MODEL 1
REMARK VINA RESULT:      -8.6      0.000      0.000
REMARK  Name = 
REMARK  4 active torsions:
REMARK  status: ('A' for Active; 'I' for Inactive)
REMARK    1  A    between atoms: C_1  and  N_2
REMARK    2  A    between atoms: C_3  and  C_4
REMARK    3  A    between atoms: N_6  and  C_7
REMARK    4  A    between atoms: C_7  and  C_8
REMARK                            x       y       z     vdW  Elec       q    Type
REMARK                         _______ _______ _______ _____ _____    ______ ____
ROOT
ATOM      1  C   UNL     1       2.658   1.842  19.637  0.00  0.00    +0.000 C 
ATOM      2  N   UNL     1       3.333   3.122  19.396  0.00  0.00    +0.000 NA
ATOM      3  C   UNL     1       2.395   4.235  19.078  0.00  0.00    +0.000 C 
ATOM      4  C   UNL     1       1.998   3.949  17.645  0.00  0.00    +0.000 C 
ATOM      5  C   UNL     1       3.359   3.588  17.025  0.00  0.00    +0.000 C 
ATOM      6  C   UNL     1       4.078   4.852  16.494  0.00  0.00    +0.000 C 
ATOM      7  N   UNL     1       5.197   5.022  17.387  0.00  0.00    +0.000 N 
ATOM      8  C   UNL     1       5.341   4.035  18.308  0.00  0.00    +0.000 A 
ATOM      9  N   UNL     1       6.399   4.239  19.056  0.00  0.00    +0.000 NA
ATOM     10  C   UNL     1       6.889   5.467  18.630  0.00  0.00    +0.000 A 
ATOM     11  C   UNL     1       7.996   6.209  19.077  0.00  0.00    +0.000 A 
ATOM     12  C   UNL     1       8.232   7.474  18.513  0.00  0.00    +0.000 A 
ATOM     13  C   UNL     1       7.386   7.996  17.532  0.00  0.00    +0.000 A 
ATOM     14  C   UNL     1       6.297   7.264  17.051  0.00  0.00    +0.000 A 
ATOM     15  C   UNL     1       6.095   6.003  17.611  0.00  0.00    +0.000 A 
ATOM     16  C   UNL     1       4.224   3.043  18.223  0.00  0.00    +0.000 C 
ENDROOT
BRANCH   3  17
ATOM     17  C   UNL     1       1.296   4.467  20.119  0.00  0.00    +0.000 C 
ATOM     18  O   UNL     1       0.381   3.672  20.308  0.00  0.00    +0.000 OA
ATOM     19  N   UNL     1       1.330   5.678  20.770  0.00  0.00    +0.000 N 
ATOM     20  H   UNL     1       0.562   5.866  21.401  0.00  0.00    +0.000 HD
BRANCH  19  21
ATOM     21  C   UNL     1       2.373   6.674  20.607  0.00  0.00    +0.000 C 
BRANCH  21  22
ATOM     22  C   UNL     1       1.931   7.837  19.776  0.00  0.00    +0.000 A 
ATOM     23  C   UNL     1       1.121   8.828  20.349  0.00  0.00    +0.000 A 
ATOM     24  C   UNL     1       0.747   9.944  19.606  0.00  0.00    +0.000 A 
ATOM     25  C   UNL     1       1.170  10.070  18.286  0.00  0.00    +0.000 A 
ATOM     26  C   UNL     1       1.962   9.079  17.703  0.00  0.00    +0.000 A 
ATOM     27  C   UNL     1       2.340   7.965  18.444  0.00  0.00    +0.000 A 
ENDBRANCH  21  22
ENDBRANCH  19  21
ENDBRANCH   3  17
TORSDOF 3
ENDMDL
MODEL 2
REMARK VINA RESULT:      -8.1      0.555      1.138
REMARK  Name = 
REMARK  4 active torsions:
REMARK  status: ('A' for Active; 'I' for Inactive)
REMARK    1  A    between atoms: C_1  and  N_2
REMARK    2  A    between atoms: C_3  and  C_4
REMARK    3  A    between atoms: N_6  and  C_7
REMARK    4  A    between atoms: C_7  and  C_8
REMARK                            x       y       z     vdW  Elec       q    Type
REMARK                         _______ _______ _______ _____ _____    ______ ____
ROOT
ATOM      1  C   UNL     1       2.900   2.137  20.057  0.00  0.00    +0.000 C 
ATOM      2  N   UNL     1       3.556   3.401  19.702  0.00  0.00    +0.000 NA
ATOM      3  C   UNL     1       2.603   4.462  19.271  0.00  0.00    +0.000 C 
ATOM      4  C   UNL     1       2.227   4.035  17.868  0.00  0.00    +0.000 C 
ATOM      5  C   UNL     1       3.601   3.642  17.298  0.00  0.00    +0.000 C 
ATOM      6  C   UNL     1       4.304   4.862  16.657  0.00  0.00    +0.000 C 
ATOM      7  N   UNL     1       5.410   5.136  17.540  0.00  0.00    +0.000 N 
ATOM      8  C   UNL     1       5.561   4.242  18.552  0.00  0.00    +0.000 A 
ATOM      9  N   UNL     1       6.607   4.535  19.287  0.00  0.00    +0.000 NA
ATOM     10  C   UNL     1       7.081   5.726  18.752  0.00  0.00    +0.000 A 
ATOM     11  C   UNL     1       8.170   6.526  19.137  0.00  0.00    +0.000 A 
ATOM     12  C   UNL     1       8.391   7.737  18.459  0.00  0.00    +0.000 A 
ATOM     13  C   UNL     1       7.547   8.148  17.424  0.00  0.00    +0.000 A 
ATOM     14  C   UNL     1       6.476   7.355  17.005  0.00  0.00    +0.000 A 
ATOM     15  C   UNL     1       6.289   6.149  17.680  0.00  0.00    +0.000 A 
ATOM     16  C   UNL     1       4.461   3.227  18.550  0.00  0.00    +0.000 C 
ENDROOT
BRANCH   3  17
ATOM     17  C   UNL     1       1.488   4.771  20.275  0.00  0.00    +0.000 C 
ATOM     18  O   UNL     1       0.705   3.919  20.682  0.00  0.00    +0.000 OA
ATOM     19  N   UNL     1       1.345   6.094  20.624  0.00  0.00    +0.000 N 
ATOM     20  H   UNL     1       0.561   6.312  21.226  0.00  0.00    +0.000 HD
BRANCH  19  21
ATOM     21  C   UNL     1       2.225   7.163  20.191  0.00  0.00    +0.000 C 
BRANCH  21  22
ATOM     22  C   UNL     1       1.478   8.408  19.825  0.00  0.00    +0.000 A 
ATOM     23  C   UNL     1       1.533   8.885  18.508  0.00  0.00    +0.000 A 
ATOM     24  C   UNL     1       0.800  10.010  18.139  0.00  0.00    +0.000 A 
ATOM     25  C   UNL     1       0.020  10.669  19.085  0.00  0.00    +0.000 A 
ATOM     26  C   UNL     1      -0.025  10.210  20.402  0.00  0.00    +0.000 A 
ATOM     27  C   UNL     1       0.702   9.085  20.774  0.00  0.00    +0.000 A 
ENDBRANCH  21  22
ENDBRANCH  19  21
ENDBRANCH   3  17
TORSDOF 3
ENDMDL
MODEL 3
REMARK VINA RESULT:      -7.9      0.749      1.122
REMARK  Name = 
REMARK  4 active torsions:
REMARK  status: ('A' for Active; 'I' for Inactive)
REMARK    1  A    between atoms: C_1  and  N_2
REMARK    2  A    between atoms: C_3  and  C_4
REMARK    3  A    between atoms: N_6  and  C_7
REMARK    4  A    between atoms: C_7  and  C_8
REMARK                            x       y       z     vdW  Elec       q    Type
REMARK                         _______ _______ _______ _____ _____    ______ ____
ROOT
ATOM      1  C   UNL     1       3.023   2.083  20.165  0.00  0.00    +0.000 C 
ATOM      2  N   UNL     1       3.636   3.360  19.782  0.00  0.00    +0.000 NA
ATOM      3  C   UNL     1       2.645   4.389  19.356  0.00  0.00    +0.000 C 
ATOM      4  C   UNL     1       2.255   3.933  17.966  0.00  0.00    +0.000 C 
ATOM      5  C   UNL     1       3.627   3.570  17.374  0.00  0.00    +0.000 C 
ATOM      6  C   UNL     1       4.284   4.802  16.704  0.00  0.00    +0.000 C 
ATOM      7  N   UNL     1       5.398   5.118  17.562  0.00  0.00    +0.000 N 
ATOM      8  C   UNL     1       5.594   4.243  18.582  0.00  0.00    +0.000 A 
ATOM      9  N   UNL     1       6.645   4.574  19.292  0.00  0.00    +0.000 NA
ATOM     10  C   UNL     1       7.074   5.771  18.732  0.00  0.00    +0.000 A 
ATOM     11  C   UNL     1       8.147   6.607  19.086  0.00  0.00    +0.000 A 
ATOM     12  C   UNL     1       8.321   7.814  18.388  0.00  0.00    +0.000 A 
ATOM     13  C   UNL     1       7.446   8.188  17.365  0.00  0.00    +0.000 A 
ATOM     14  C   UNL     1       6.390   7.360  16.977  0.00  0.00    +0.000 A 
ATOM     15  C   UNL     1       6.251   6.157  17.671  0.00  0.00    +0.000 A 
ATOM     16  C   UNL     1       4.524   3.197  18.614  0.00  0.00    +0.000 C 
ENDROOT
BRANCH   3  17
ATOM     17  C   UNL     1       1.542   4.680  20.378  0.00  0.00    +0.000 C 
ATOM     18  O   UNL     1       0.862   3.798  20.891  0.00  0.00    +0.000 OA
ATOM     19  N   UNL     1       1.280   6.009  20.617  0.00  0.00    +0.000 N 
ATOM     20  H   UNL     1       0.501   6.205  21.231  0.00  0.00    +0.000 HD
BRANCH  19  21
ATOM     21  C   UNL     1       2.034   7.113  20.053  0.00  0.00    +0.000 C 
BRANCH  21  22
ATOM     22  C   UNL     1       1.407   8.442  20.342  0.00  0.00    +0.000 A 
ATOM     23  C   UNL     1       1.042   8.763  21.657  0.00  0.00    +0.000 A 
ATOM     24  C   UNL     1       0.509  10.015  21.951  0.00  0.00    +0.000 A 
ATOM     25  C   UNL     1       0.329  10.947  20.932  0.00  0.00    +0.000 A 
ATOM     26  C   UNL     1       0.674  10.628  19.618  0.00  0.00    +0.000 A 
ATOM     27  C   UNL     1       1.209   9.380  19.322  0.00  0.00    +0.000 A 
ENDBRANCH  21  22
ENDBRANCH  19  21
ENDBRANCH   3  17
TORSDOF 3
ENDMDL
MODEL 4
REMARK VINA RESULT:      -7.8      0.908      1.081
REMARK  Name = 
REMARK  4 active torsions:
REMARK  status: ('A' for Active; 'I' for Inactive)
REMARK    1  A    between atoms: C_1  and  N_2
REMARK    2  A    between atoms: C_3  and  C_4
REMARK    3  A    between atoms: N_6  and  C_7
REMARK    4  A    between atoms: C_7  and  C_8
REMARK                            x       y       z     vdW  Elec       q    Type
REMARK                         _______ _______ _______ _____ _____    ______ ____
ROOT
ATOM      1  C   UNL     1       2.923   2.005  21.275  0.00  0.00    +0.000 C 
ATOM      2  N   UNL     1       3.388   3.098  20.413  0.00  0.00    +0.000 NA
ATOM      3  C   UNL     1       2.332   3.626  19.505  0.00  0.00    +0.000 C 
ATOM      4  C   UNL     1       2.237   2.559  18.435  0.00  0.00    +0.000 C 
ATOM      5  C   UNL     1       3.723   2.270  18.167  0.00  0.00    +0.000 C 
ATOM      6  C   UNL     1       4.282   3.211  17.073  0.00  0.00    +0.000 C 
ATOM      7  N   UNL     1       5.189   4.079  17.783  0.00  0.00    +0.000 N 
ATOM      8  C   UNL     1       5.353   3.773  19.096  0.00  0.00    +0.000 A 
ATOM      9  N   UNL     1       6.218   4.580  19.662  0.00  0.00    +0.000 NA
ATOM     10  C   UNL     1       6.543   5.490  18.665  0.00  0.00    +0.000 A 
ATOM     11  C   UNL     1       7.409   6.597  18.691  0.00  0.00    +0.000 A 
ATOM     12  C   UNL     1       7.505   7.406  17.547  0.00  0.00    +0.000 A 
ATOM     13  C   UNL     1       6.754   7.128  16.402  0.00  0.00    +0.000 A 
ATOM     14  C   UNL     1       5.909   6.018  16.343  0.00  0.00    +0.000 A 
ATOM     15  C   UNL     1       5.847   5.217  17.484  0.00  0.00    +0.000 A 
ATOM     16  C   UNL     1       4.461   2.644  19.507  0.00  0.00    +0.000 C 
ENDROOT
BRANCH   3  17
ATOM     17  C   UNL     1       1.052   4.087  20.207  0.00  0.00    +0.000 C 
ATOM     18  O   UNL     1       0.034   3.404  20.250  0.00  0.00    +0.000 OA
ATOM     19  N   UNL     1       1.069   5.369  20.707  0.00  0.00    +0.000 N 
ATOM     20  H   UNL     1       0.201   5.703  21.103  0.00  0.00    +0.000 HD
BRANCH  19  21
ATOM     21  C   UNL     1       2.227   6.243  20.699  0.00  0.00    +0.000 C 
BRANCH  21  22
ATOM     22  C   UNL     1       2.119   7.330  19.676  0.00  0.00    +0.000 A 
ATOM     23  C   UNL     1       1.382   8.485  19.971  0.00  0.00    +0.000 A 
ATOM     24  C   UNL     1       1.317   9.529  19.052  0.00  0.00    +0.000 A 
ATOM     25  C   UNL     1       1.977   9.418  17.831  0.00  0.00    +0.000 A 
ATOM     26  C   UNL     1       2.698   8.263  17.523  0.00  0.00    +0.000 A 
ATOM     27  C   UNL     1       2.768   7.220  18.440  0.00  0.00    +0.000 A 
ENDBRANCH  21  22
ENDBRANCH  19  21
ENDBRANCH   3  17
TORSDOF 3
ENDMDL
MODEL 5
REMARK VINA RESULT:      -7.6      2.654      6.014
REMARK  Name = 
REMARK  4 active torsions:
REMARK  status: ('A' for Active; 'I' for Inactive)
REMARK    1  A    between atoms: C_1  and  N_2
REMARK    2  A    between atoms: C_3  and  C_4
REMARK    3  A    between atoms: N_6  and  C_7
REMARK    4  A    between atoms: C_7  and  C_8
REMARK                            x       y       z     vdW  Elec       q    Type
REMARK                         _______ _______ _______ _____ _____    ______ ____
ROOT
ATOM      1  C   UNL     1       6.914   5.005  16.360  0.00  0.00    +0.000 C 
ATOM      2  N   UNL     1       6.068   5.835  17.226  0.00  0.00    +0.000 NA
ATOM      3  C   UNL     1       6.349   5.653  18.678  0.00  0.00    +0.000 C 
ATOM      4  C   UNL     1       5.699   4.320  18.986  0.00  0.00    +0.000 C 
ATOM      5  C   UNL     1       4.360   4.461  18.244  0.00  0.00    +0.000 C 
ATOM      6  C   UNL     1       3.288   5.109  19.153  0.00  0.00    +0.000 C 
ATOM      7  N   UNL     1       3.071   6.410  18.570  0.00  0.00    +0.000 N 
ATOM      8  C   UNL     1       3.749   6.633  17.415  0.00  0.00    +0.000 A 
ATOM      9  N   UNL     1       3.471   7.818  16.928  0.00  0.00    +0.000 NA
ATOM     10  C   UNL     1       2.640   8.395  17.880  0.00  0.00    +0.000 A 
ATOM     11  C   UNL     1       2.039   9.665  17.911  0.00  0.00    +0.000 A 
ATOM     12  C   UNL     1       1.289  10.029  19.043  0.00  0.00    +0.000 A 
ATOM     13  C   UNL     1       1.144   9.154  20.123  0.00  0.00    +0.000 A 
ATOM     14  C   UNL     1       1.708   7.876  20.100  0.00  0.00    +0.000 A 
ATOM     15  C   UNL     1       2.430   7.531  18.958  0.00  0.00    +0.000 A 
ATOM     16  C   UNL     1       4.643   5.482  17.078  0.00  0.00    +0.000 C 
ENDROOT
BRANCH   3  17
ATOM     17  C   UNL     1       7.808   5.877  19.084  0.00  0.00    +0.000 C 
ATOM     18  O   UNL     1       8.451   5.059  19.735  0.00  0.00    +0.000 OA
ATOM     19  N   UNL     1       8.339   7.105  18.763  0.00  0.00    +0.000 N 
ATOM     20  H   UNL     1       9.276   7.285  19.098  0.00  0.00    +0.000 HD
BRANCH  19  21
ATOM     21  C   UNL     1       7.651   8.127  17.998  0.00  0.00    +0.000 C 
BRANCH  21  22
ATOM     22  C   UNL     1       8.236   9.489  18.204  0.00  0.00    +0.000 A 
ATOM     23  C   UNL     1       9.232   9.675  19.172  0.00  0.00    +0.000 A 
ATOM     24  C   UNL     1       9.825  10.923  19.338  0.00  0.00    +0.000 A 
ATOM     25  C   UNL     1       9.418  11.993  18.546  0.00  0.00    +0.000 A 
ATOM     26  C   UNL     1       8.414  11.821  17.592  0.00  0.00    +0.000 A 
ATOM     27  C   UNL     1       7.822  10.574  17.421  0.00  0.00    +0.000 A 
ENDBRANCH  21  22
ENDBRANCH  19  21
ENDBRANCH   3  17
TORSDOF 3
ENDMDL
MODEL 6
REMARK VINA RESULT:      -6.5      2.245      5.039
REMARK  Name = 
REMARK  4 active torsions:
REMARK  status: ('A' for Active; 'I' for Inactive)
REMARK    1  A    between atoms: C_1  and  N_2
REMARK    2  A    between atoms: C_3  and  C_4
REMARK    3  A    between atoms: N_6  and  C_7
REMARK    4  A    between atoms: C_7  and  C_8
REMARK                            x       y       z     vdW  Elec       q    Type
REMARK                         _______ _______ _______ _____ _____    ______ ____
ROOT
ATOM      1  C   UNL     1       5.834   5.325  15.082  0.00  0.00    +0.000 C 
ATOM      2  N   UNL     1       4.977   5.149  16.260  0.00  0.00    +0.000 NA
ATOM      3  C   UNL     1       5.367   6.009  17.412  0.00  0.00    +0.000 C 
ATOM      4  C   UNL     1       6.597   5.313  17.957  0.00  0.00    +0.000 C 
ATOM      5  C   UNL     1       6.147   3.843  17.924  0.00  0.00    +0.000 C 
ATOM      6  C   UNL     1       5.434   3.452  19.240  0.00  0.00    +0.000 C 
ATOM      7  N   UNL     1       4.057   3.265  18.854  0.00  0.00    +0.000 N 
ATOM      8  C   UNL     1       3.823   3.379  17.521  0.00  0.00    +0.000 A 
ATOM      9  N   UNL     1       2.561   3.158  17.244  0.00  0.00    +0.000 NA
ATOM     10  C   UNL     1       1.962   2.982  18.485  0.00  0.00    +0.000 A 
ATOM     11  C   UNL     1       0.621   2.731  18.820  0.00  0.00    +0.000 A 
ATOM     12  C   UNL     1       0.265   2.662  20.178  0.00  0.00    +0.000 A 
ATOM     13  C   UNL     1       1.219   2.845  21.183  0.00  0.00    +0.000 A 
ATOM     14  C   UNL     1       2.563   3.066  20.873  0.00  0.00    +0.000 A 
ATOM     15  C   UNL     1       2.895   3.109  19.519  0.00  0.00    +0.000 A 
ATOM     16  C   UNL     1       5.064   3.771  16.782  0.00  0.00    +0.000 C 
ENDROOT
BRANCH   3  17
ATOM     17  C   UNL     1       5.442   7.507  17.099  0.00  0.00    +0.000 C 
ATOM     18  O   UNL     1       6.503   8.107  16.970  0.00  0.00    +0.000 OA
ATOM     19  N   UNL     1       4.239   8.175  17.071  0.00  0.00    +0.000 N 
ATOM     20  H   UNL     1       4.291   9.177  16.942  0.00  0.00    +0.000 HD
BRANCH  19  21
ATOM     21  C   UNL     1       2.941   7.544  17.214  0.00  0.00    +0.000 C 
BRANCH  21  22
ATOM     22  C   UNL     1       2.338   7.770  18.566  0.00  0.00    +0.000 A 
ATOM     23  C   UNL     1       1.703   8.989  18.844  0.00  0.00    +0.000 A 
ATOM     24  C   UNL     1       1.090   9.194  20.077  0.00  0.00    +0.000 A 
ATOM     25  C   UNL     1       1.119   8.189  21.040  0.00  0.00    +0.000 A 
ATOM     26  C   UNL     1       1.765   6.980  20.776  0.00  0.00    +0.000 A 
ATOM     27  C   UNL     1       2.375   6.771  19.545  0.00  0.00    +0.000 A 
ENDBRANCH  21  22
ENDBRANCH  19  21
ENDBRANCH   3  17
TORSDOF 3
ENDMDL
MODEL 7
REMARK VINA RESULT:      -6.5      3.404      7.124
REMARK  Name = 
REMARK  4 active torsions:
REMARK  status: ('A' for Active; 'I' for Inactive)
REMARK    1  A    between atoms: C_1  and  N_2
REMARK    2  A    between atoms: C_3  and  C_4
REMARK    3  A    between atoms: N_6  and  C_7
REMARK    4  A    between atoms: C_7  and  C_8
REMARK                            x       y       z     vdW  Elec       q    Type
REMARK                         _______ _______ _______ _____ _____    ______ ____
ROOT
ATOM      1  C   UNL     1       7.670   6.449  18.776  0.00  0.00    +0.000 C 
ATOM      2  N   UNL     1       6.497   5.585  18.602  0.00  0.00    +0.000 NA
ATOM      3  C   UNL     1       6.262   5.183  17.186  0.00  0.00    +0.000 C 
ATOM      4  C   UNL     1       5.678   6.436  16.568  0.00  0.00    +0.000 C 
ATOM      5  C   UNL     1       4.681   6.869  17.655  0.00  0.00    +0.000 C 
ATOM      6  C   UNL     1       3.299   6.207  17.435  0.00  0.00    +0.000 C 
ATOM      7  N   UNL     1       3.177   5.274  18.528  0.00  0.00    +0.000 N 
ATOM      8  C   UNL     1       4.195   5.319  19.427  0.00  0.00    +0.000 A 
ATOM      9  N   UNL     1       3.994   4.473  20.408  0.00  0.00    +0.000 NA
ATOM     10  C   UNL     1       2.828   3.805  20.053  0.00  0.00    +0.000 A 
ATOM     11  C   UNL     1       2.134   2.775  20.711  0.00  0.00    +0.000 A 
ATOM     12  C   UNL     1       1.002   2.221  20.090  0.00  0.00    +0.000 A 
ATOM     13  C   UNL     1       0.570   2.674  18.841  0.00  0.00    +0.000 A 
ATOM     14  C   UNL     1       1.226   3.717  18.183  0.00  0.00    +0.000 A 
ATOM     15  C   UNL     1       2.335   4.265  18.829  0.00  0.00    +0.000 A 
ATOM     16  C   UNL     1       5.257   6.281  18.998  0.00  0.00    +0.000 C 
ENDROOT
BRANCH   3  17
ATOM     17  C   UNL     1       7.456   4.507  16.504  0.00  0.00    +0.000 C 
ATOM     18  O   UNL     1       8.430   4.094  17.124  0.00  0.00    +0.000 OA
ATOM     19  N   UNL     1       7.424   4.479  15.129  0.00  0.00    +0.000 N 
ATOM     20  H   UNL     1       8.246   4.104  14.674  0.00  0.00    +0.000 HD
BRANCH  19  21
ATOM     21  C   UNL     1       6.315   4.945  14.318  0.00  0.00    +0.000 C 
BRANCH  21  22
ATOM     22  C   UNL     1       6.030   4.040  13.161  0.00  0.00    +0.000 A 
ATOM     23  C   UNL     1       7.090   3.389  12.515  0.00  0.00    +0.000 A 
ATOM     24  C   UNL     1       6.837   2.501  11.473  0.00  0.00    +0.000 A 
ATOM     25  C   UNL     1       5.526   2.269  11.065  0.00  0.00    +0.000 A 
ATOM     26  C   UNL     1       4.467   2.927  11.692  0.00  0.00    +0.000 A 
ATOM     27  C   UNL     1       4.716   3.811  12.735  0.00  0.00    +0.000 A 
ENDBRANCH  21  22
ENDBRANCH  19  21
ENDBRANCH   3  17
TORSDOF 3
ENDMDL
MODEL 8
REMARK VINA RESULT:      -6.4      7.048     10.461
REMARK  Name = 
REMARK  4 active torsions:
REMARK  status: ('A' for Active; 'I' for Inactive)
REMARK    1  A    between atoms: C_1  and  N_2
REMARK    2  A    between atoms: C_3  and  C_4
REMARK    3  A    between atoms: N_6  and  C_7
REMARK    4  A    between atoms: C_7  and  C_8
REMARK                            x       y       z     vdW  Elec       q    Type
REMARK                         _______ _______ _______ _____ _____    ______ ____
ROOT
ATOM      1  C   UNL     1       2.994  13.665  20.979  0.00  0.00    +0.000 C 
ATOM      2  N   UNL     1       1.544  13.440  20.946  0.00  0.00    +0.000 NA
ATOM      3  C   UNL     1       0.983  13.392  19.567  0.00  0.00    +0.000 C 
ATOM      4  C   UNL     1       0.965  14.849  19.154  0.00  0.00    +0.000 C 
ATOM      5  C   UNL     1       0.415  15.513  20.427  0.00  0.00    +0.000 C 
ATOM      6  C   UNL     1      -1.132  15.564  20.401  0.00  0.00    +0.000 C 
ATOM      7  N   UNL     1      -1.533  14.633  21.426  0.00  0.00    +0.000 N 
ATOM      8  C   UNL     1      -0.507  14.095  22.135  0.00  0.00    +0.000 A 
ATOM      9  N   UNL     1      -0.952  13.292  23.071  0.00  0.00    +0.000 NA
ATOM     10  C   UNL     1      -2.327  13.263  22.874  0.00  0.00    +0.000 A 
ATOM     11  C   UNL     1      -3.329  12.559  23.563  0.00  0.00    +0.000 A 
ATOM     12  C   UNL     1      -4.655  12.655  23.109  0.00  0.00    +0.000 A 
ATOM     13  C   UNL     1      -4.980  13.428  21.991  0.00  0.00    +0.000 A 
ATOM     14  C   UNL     1      -4.005  14.159  21.309  0.00  0.00    +0.000 A 
ATOM     15  C   UNL     1      -2.700  14.064  21.792  0.00  0.00    +0.000 A 
ATOM     16  C   UNL     1       0.817  14.544  21.602  0.00  0.00    +0.000 C 
ENDROOT
BRANCH   3  17
ATOM     17  C   UNL     1       1.644  12.367  18.639  0.00  0.00    +0.000 C 
ATOM     18  O   UNL     1       2.613  12.634  17.936  0.00  0.00    +0.000 OA
ATOM     19  N   UNL     1       1.023  11.143  18.558  0.00  0.00    +0.000 N 
ATOM     20  H   UNL     1       1.411  10.491  17.889  0.00  0.00    +0.000 HD
BRANCH  19  21
ATOM     21  C   UNL     1      -0.125  10.744  19.351  0.00  0.00    +0.000 C 
BRANCH  21  22
ATOM     22  C   UNL     1      -1.395  10.735  18.560  0.00  0.00    +0.000 A 
ATOM     23  C   UNL     1      -2.458  11.564  18.948  0.00  0.00    +0.000 A 
ATOM     24  C   UNL     1      -3.624  11.608  18.190  0.00  0.00    +0.000 A 
ATOM     25  C   UNL     1      -3.740  10.817  17.050  0.00  0.00    +0.000 A 
ATOM     26  C   UNL     1      -2.694   9.977  16.668  0.00  0.00    +0.000 A 
ATOM     27  C   UNL     1      -1.525   9.933  17.419  0.00  0.00    +0.000 A 
ENDBRANCH  21  22
ENDBRANCH  19  21
ENDBRANCH   3  17
TORSDOF 3
ENDMDL
MODEL 9
REMARK VINA RESULT:      -6.3      4.241      8.925
REMARK  Name = 
REMARK  4 active torsions:
REMARK  status: ('A' for Active; 'I' for Inactive)
REMARK    1  A    between atoms: C_1  and  N_2
REMARK    2  A    between atoms: C_3  and  C_4
REMARK    3  A    between atoms: N_6  and  C_7
REMARK    4  A    between atoms: C_7  and  C_8
REMARK                            x       y       z     vdW  Elec       q    Type
REMARK                         _______ _______ _______ _____ _____    ______ ____
ROOT
ATOM      1  C   UNL     1      -1.122  12.283  23.106  0.00  0.00    +0.000 C 
ATOM      2  N   UNL     1      -1.389  11.713  21.780  0.00  0.00    +0.000 NA
ATOM      3  C   UNL     1      -0.298  10.828  21.285  0.00  0.00    +0.000 C 
ATOM      4  C   UNL     1       0.774  11.812  20.864  0.00  0.00    +0.000 C 
ATOM      5  C   UNL     1      -0.063  12.867  20.121  0.00  0.00    +0.000 C 
ATOM      6  C   UNL     1      -0.211  12.503  18.624  0.00  0.00    +0.000 C 
ATOM      7  N   UNL     1      -1.604  12.158  18.482  0.00  0.00    +0.000 N 
ATOM      8  C   UNL     1      -2.349  12.337  19.603  0.00  0.00    +0.000 A 
ATOM      9  N   UNL     1      -3.607  12.040  19.384  0.00  0.00    +0.000 NA
ATOM     10  C   UNL     1      -3.627  11.568  18.078  0.00  0.00    +0.000 A 
ATOM     11  C   UNL     1      -4.695  11.085  17.302  0.00  0.00    +0.000 A 
ATOM     12  C   UNL     1      -4.425  10.596  16.013  0.00  0.00    +0.000 A 
ATOM     13  C   UNL     1      -3.123  10.580  15.506  0.00  0.00    +0.000 A 
ATOM     14  C   UNL     1      -2.051  11.081  16.248  0.00  0.00    +0.000 A 
ATOM     15  C   UNL     1      -2.347  11.580  17.516  0.00  0.00    +0.000 A 
ATOM     16  C   UNL     1      -1.501  12.771  20.757  0.00  0.00    +0.000 C 
ENDROOT
BRANCH   3  17
ATOM     17  C   UNL     1       0.078   9.682  22.228  0.00  0.00    +0.000 C 
ATOM     18  O   UNL     1      -0.266   9.649  23.405  0.00  0.00    +0.000 OA
ATOM     19  N   UNL     1       0.919   8.726  21.706  0.00  0.00    +0.000 N 
ATOM     20  H   UNL     1       1.230   8.010  22.349  0.00  0.00    +0.000 HD
BRANCH  19  21
ATOM     21  C   UNL     1       1.373   8.689  20.328  0.00  0.00    +0.000 C 
BRANCH  21  22
ATOM     22  C   UNL     1       1.835   7.327  19.914  0.00  0.00    +0.000 A 
ATOM     23  C   UNL     1       1.580   6.227  20.744  0.00  0.00    +0.000 A 
ATOM     24  C   UNL     1       1.954   4.946  20.347  0.00  0.00    +0.000 A 
ATOM     25  C   UNL     1       2.596   4.761  19.125  0.00  0.00    +0.000 A 
ATOM     26  C   UNL     1       2.870   5.854  18.302  0.00  0.00    +0.000 A 
ATOM     27  C   UNL     1       2.494   7.133  18.693  0.00  0.00    +0.000 A 
ENDBRANCH  21  22
ENDBRANCH  19  21
ENDBRANCH   3  17
TORSDOF 3
ENDMDL
