MODEL 1
REMARK VINA RESULT:      -9.3      0.000      0.000
REMARK  Name = 
REMARK  3 active torsions:
REMARK  status: ('A' for Active; 'I' for Inactive)
REMARK    1  A    between atoms: C_1  and  C_2
REMARK    2  A    between atoms: C_6  and  C_7
REMARK    3  A    between atoms: C_7  and  N_8
REMARK                            x       y       z     vdW  Elec       q    Type
REMARK                         _______ _______ _______ _____ _____    ______ ____
ROOT
ATOM      1  N   UNL     1       2.224   7.523  18.575  0.00  0.00    +0.000 NA
ATOM      2  C   UNL     1       2.125   8.751  17.778  0.00  0.00    +0.000 C 
ATOM      3  C   UNL     1       0.828   9.523  18.038  0.00  0.00    +0.000 C 
ATOM      4  C   UNL     1       0.623   9.749  19.505  0.00  0.00    +0.000 A 
ATOM      5  N   UNL     1      -0.135  10.804  19.876  0.00  0.00    +0.000 NA
ATOM      6  C   UNL     1      -0.317  11.026  21.187  0.00  0.00    +0.000 A 
ATOM      7  N   UNL     1      -1.075  12.092  21.581  0.00  0.00    +0.000 N 
ATOM      8  C   UNL     1      -1.845  12.889  20.616  0.00  0.00    +0.000 C 
ATOM      9  C   UNL     1      -3.335  12.998  21.040  0.00  0.00    +0.000 C 
ATOM     10  N   UNL     1      -3.396  13.398  22.450  0.00  0.00    +0.000 N 
ATOM     11  C   UNL     1      -4.272  14.359  22.882  0.00  0.00    +0.000 A 
ATOM     12  C   UNL     1      -3.972  15.126  24.011  0.00  0.00    +0.000 A 
ATOM     13  C   UNL     1      -4.840  16.128  24.435  0.00  0.00    +0.000 A 
ATOM     14  C   UNL     1      -6.009  16.344  23.723  0.00  0.00    +0.000 A 
ATOM     15  C   UNL     1      -6.238  15.557  22.611  0.00  0.00    +0.000 A 
ATOM     16  N   UNL     1      -5.396  14.593  22.173  0.00  0.00    +0.000 NA
ATOM     17  C   UNL     1      -2.719  12.481  23.371  0.00  0.00    +0.000 C 
ATOM     18  C   UNL     1      -1.227  12.424  22.998  0.00  0.00    +0.000 C 
ATOM     19  N   UNL     1       0.217  10.237  22.132  0.00  0.00    +0.000 NA
ATOM     20  C   UNL     1       0.947   9.184  21.729  0.00  0.00    +0.000 A 
ATOM     21  C   UNL     1       1.182   8.878  20.410  0.00  0.00    +0.000 A 
ATOM     22  C   UNL     1       2.040   7.722  20.018  0.00  0.00    +0.000 C 
ENDROOT
BRANCH   1  23
ATOM     23  C   UNL     1       3.431   6.726  18.269  0.00  0.00    +0.000 C 
BRANCH  23  29
ATOM     24  C   UNL     1       0.633   2.540  18.776  0.00  0.00    +0.000 C 
ATOM     25  C   UNL     1       1.872   3.213  18.264  0.00  0.00    +0.000 A 
ATOM     26  C   UNL     1       2.893   2.470  17.659  0.00  0.00    +0.000 A 
ATOM     27  C   UNL     1       4.053   3.104  17.215  0.00  0.00    +0.000 A 
ATOM     28  C   UNL     1       4.213   4.479  17.391  0.00  0.00    +0.000 A 
ATOM     29  C   UNL     1       3.217   5.242  18.013  0.00  0.00    +0.000 A 
ATOM     30  C   UNL     1       2.035   4.595  18.420  0.00  0.00    +0.000 A 
ENDBRANCH  23  29
ENDBRANCH   1  23
TORSDOF 2
ENDMDL
MODEL 2
REMARK VINA RESULT:      -9.0      0.991      1.216
REMARK  Name = 
REMARK  3 active torsions:
REMARK  status: ('A' for Active; 'I' for Inactive)
REMARK    1  A    between atoms: C_1  and  C_2
REMARK    2  A    between atoms: C_6  and  C_7
REMARK    3  A    between atoms: C_7  and  N_8
REMARK                            x       y       z     vdW  Elec       q    Type
REMARK                         _______ _______ _______ _____ _____    ______ ____
ROOT
ATOM      1  N   UNL     1       2.493   7.148  18.444  0.00  0.00    +0.000 NA
ATOM      2  C   UNL     1       2.590   8.453  17.778  0.00  0.00    +0.000 C 
ATOM      3  C   UNL     1       1.336   9.311  17.972  0.00  0.00    +0.000 C 
ATOM      4  C   UNL     1       0.972   9.409  19.423  0.00  0.00    +0.000 A 
ATOM      5  N   UNL     1       0.261  10.487  19.817  0.00  0.00    +0.000 NA
ATOM      6  C   UNL     1      -0.062  10.596  21.115  0.00  0.00    +0.000 A 
ATOM      7  N   UNL     1      -0.774  11.683  21.534  0.00  0.00    +0.000 N 
ATOM      8  C   UNL     1      -1.355  12.638  20.581  0.00  0.00    +0.000 C 
ATOM      9  C   UNL     1      -2.872  12.841  20.842  0.00  0.00    +0.000 C 
ATOM     10  N   UNL     1      -3.073  13.105  22.271  0.00  0.00    +0.000 N 
ATOM     11  C   UNL     1      -3.917  14.095  22.703  0.00  0.00    +0.000 A 
ATOM     12  C   UNL     1      -3.697  14.717  23.935  0.00  0.00    +0.000 A 
ATOM     13  C   UNL     1      -4.527  15.748  24.364  0.00  0.00    +0.000 A 
ATOM     14  C   UNL     1      -5.579  16.139  23.552  0.00  0.00    +0.000 A 
ATOM     15  C   UNL     1      -5.733  15.489  22.342  0.00  0.00    +0.000 A 
ATOM     16  N   UNL     1      -4.923  14.500  21.900  0.00  0.00    +0.000 NA
ATOM     17  C   UNL     1      -2.589  12.043  23.158  0.00  0.00    +0.000 C 
ATOM     18  C   UNL     1      -1.071  11.886  22.953  0.00  0.00    +0.000 C 
ATOM     19  N   UNL     1       0.289   9.672  22.024  0.00  0.00    +0.000 NA
ATOM     20  C   UNL     1       0.976   8.601  21.595  0.00  0.00    +0.000 A 
ATOM     21  C   UNL     1       1.345   8.407  20.285  0.00  0.00    +0.000 A 
ATOM     22  C   UNL     1       2.151   7.221  19.869  0.00  0.00    +0.000 C 
ENDROOT
BRANCH   1  23
ATOM     23  C   UNL     1       3.661   6.277  18.192  0.00  0.00    +0.000 C 
BRANCH  23  29
ATOM     24  C   UNL     1       4.682   1.890  20.497  0.00  0.00    +0.000 C 
ATOM     25  C   UNL     1       3.934   2.654  19.446  0.00  0.00    +0.000 A 
ATOM     26  C   UNL     1       3.122   1.990  18.519  0.00  0.00    +0.000 A 
ATOM     27  C   UNL     1       2.456   2.711  17.528  0.00  0.00    +0.000 A 
ATOM     28  C   UNL     1       2.612   4.095  17.439  0.00  0.00    +0.000 A 
ATOM     29  C   UNL     1       3.436   4.781  18.341  0.00  0.00    +0.000 A 
ATOM     30  C   UNL     1       4.071   4.045  19.359  0.00  0.00    +0.000 A 
ENDBRANCH  23  29
ENDBRANCH   1  23
TORSDOF 2
ENDMDL
MODEL 3
REMARK VINA RESULT:      -9.0      1.349      1.640
REMARK  Name = 
REMARK  3 active torsions:
REMARK  status: ('A' for Active; 'I' for Inactive)
REMARK    1  A    between atoms: C_1  and  C_2
REMARK    2  A    between atoms: C_6  and  C_7
REMARK    3  A    between atoms: C_7  and  N_8
REMARK                            x       y       z     vdW  Elec       q    Type
REMARK                         _______ _______ _______ _____ _____    ______ ____
ROOT
ATOM      1  N   UNL     1       1.400   7.982  19.711  0.00  0.00    +0.000 NA
ATOM      2  C   UNL     1       1.500   9.196  18.890  0.00  0.00    +0.000 C 
ATOM      3  C   UNL     1       0.283  10.113  19.040  0.00  0.00    +0.000 C 
ATOM      4  C   UNL     1      -0.003  10.394  20.485  0.00  0.00    +0.000 A 
ATOM      5  N   UNL     1      -0.661  11.535  20.781  0.00  0.00    +0.000 NA
ATOM      6  C   UNL     1      -0.914  11.806  22.072  0.00  0.00    +0.000 A 
ATOM      7  N   UNL     1      -1.573  12.959  22.391  0.00  0.00    +0.000 N 
ATOM      8  C   UNL     1      -2.174  13.815  21.360  0.00  0.00    +0.000 C 
ATOM      9  C   UNL     1      -3.670  14.100  21.667  0.00  0.00    +0.000 C 
ATOM     10  N   UNL     1      -3.789  14.536  23.063  0.00  0.00    +0.000 N 
ATOM     11  C   UNL     1      -4.580  15.599  23.413  0.00  0.00    +0.000 A 
ATOM     12  C   UNL     1      -4.280  16.353  24.550  0.00  0.00    +0.000 A 
ATOM     13  C   UNL     1      -5.057  17.455  24.893  0.00  0.00    +0.000 A 
ATOM     14  C   UNL     1      -6.138  17.784  24.091  0.00  0.00    +0.000 A 
ATOM     15  C   UNL     1      -6.372  17.003  22.976  0.00  0.00    +0.000 A 
ATOM     16  N   UNL     1      -5.615  15.941  22.617  0.00  0.00    +0.000 NA
ATOM     17  C   UNL     1      -3.290  13.570  24.046  0.00  0.00    +0.000 C 
ATOM     18  C   UNL     1      -1.790  13.338  23.788  0.00  0.00    +0.000 C 
ATOM     19  N   UNL     1      -0.544  10.984  23.066  0.00  0.00    +0.000 NA
ATOM     20  C   UNL     1       0.089   9.847  22.735  0.00  0.00    +0.000 A 
ATOM     21  C   UNL     1       0.385   9.487  21.441  0.00  0.00    +0.000 A 
ATOM     22  C   UNL     1       1.134   8.234  21.132  0.00  0.00    +0.000 C 
ENDROOT
BRANCH   1  23
ATOM     23  C   UNL     1       2.528   7.048  19.509  0.00  0.00    +0.000 C 
BRANCH  23  29
ATOM     24  C   UNL     1       1.549   2.565  21.641  0.00  0.00    +0.000 C 
ATOM     25  C   UNL     1       1.710   3.402  20.407  0.00  0.00    +0.000 A 
ATOM     26  C   UNL     1       1.658   2.820  19.135  0.00  0.00    +0.000 A 
ATOM     27  C   UNL     1       1.839   3.606  17.997  0.00  0.00    +0.000 A 
ATOM     28  C   UNL     1       2.095   4.972  18.119  0.00  0.00    +0.000 A 
ATOM     29  C   UNL     1       2.174   5.575  19.381  0.00  0.00    +0.000 A 
ATOM     30  C   UNL     1       1.951   4.777  20.518  0.00  0.00    +0.000 A 
ENDBRANCH  23  29
ENDBRANCH   1  23
TORSDOF 2
ENDMDL
MODEL 4
REMARK VINA RESULT:      -8.6      2.152      4.166
REMARK  Name = 
REMARK  3 active torsions:
REMARK  status: ('A' for Active; 'I' for Inactive)
REMARK    1  A    between atoms: C_1  and  C_2
REMARK    2  A    between atoms: C_6  and  C_7
REMARK    3  A    between atoms: C_7  and  N_8
REMARK                            x       y       z     vdW  Elec       q    Type
REMARK                         _______ _______ _______ _____ _____    ______ ____
ROOT
ATOM      1  N   UNL     1       3.993   4.878  18.568  0.00  0.00    +0.000 NA
ATOM      2  C   UNL     1       2.865   4.511  19.432  0.00  0.00    +0.000 C 
ATOM      3  C   UNL     1       2.460   5.638  20.388  0.00  0.00    +0.000 C 
ATOM      4  C   UNL     1       2.245   6.921  19.643  0.00  0.00    +0.000 A 
ATOM      5  N   UNL     1       1.419   7.834  20.197  0.00  0.00    +0.000 NA
ATOM      6  C   UNL     1       1.207   8.983  19.536  0.00  0.00    +0.000 A 
ATOM      7  N   UNL     1       0.369   9.916  20.078  0.00  0.00    +0.000 N 
ATOM      8  C   UNL     1      -0.158   9.779  21.442  0.00  0.00    +0.000 C 
ATOM      9  C   UNL     1       0.120  11.055  22.283  0.00  0.00    +0.000 C 
ATOM     10  N   UNL     1      -0.299  12.229  21.510  0.00  0.00    +0.000 N 
ATOM     11  C   UNL     1      -1.006  13.251  22.090  0.00  0.00    +0.000 A 
ATOM     12  C   UNL     1      -1.864  14.037  21.317  0.00  0.00    +0.000 A 
ATOM     13  C   UNL     1      -2.613  15.053  21.905  0.00  0.00    +0.000 A 
ATOM     14  C   UNL     1      -2.483  15.274  23.266  0.00  0.00    +0.000 A 
ATOM     15  C   UNL     1      -1.624  14.454  23.972  0.00  0.00    +0.000 A 
ATOM     16  N   UNL     1      -0.906  13.449  23.421  0.00  0.00    +0.000 NA
ATOM     17  C   UNL     1       0.371  12.374  20.214  0.00  0.00    +0.000 C 
ATOM     18  C   UNL     1       0.040  11.143  19.351  0.00  0.00    +0.000 C 
ATOM     19  N   UNL     1       1.790   9.254  18.358  0.00  0.00    +0.000 NA
ATOM     20  C   UNL     1       2.624   8.334  17.846  0.00  0.00    +0.000 A 
ATOM     21  C   UNL     1       2.902   7.134  18.455  0.00  0.00    +0.000 A 
ATOM     22  C   UNL     1       3.799   6.125  17.818  0.00  0.00    +0.000 C 
ENDROOT
BRANCH   1  23
ATOM     23  C   UNL     1       4.449   3.769  17.703  0.00  0.00    +0.000 C 
BRANCH  23  29
ATOM     24  C   UNL     1       5.609   3.706  12.777  0.00  0.00    +0.000 C 
ATOM     25  C   UNL     1       5.954   4.104  14.182  0.00  0.00    +0.000 A 
ATOM     26  C   UNL     1       7.184   4.705  14.474  0.00  0.00    +0.000 A 
ATOM     27  C   UNL     1       7.504   5.042  15.789  0.00  0.00    +0.000 A 
ATOM     28  C   UNL     1       6.612   4.762  16.824  0.00  0.00    +0.000 A 
ATOM     29  C   UNL     1       5.384   4.140  16.561  0.00  0.00    +0.000 A 
ATOM     30  C   UNL     1       5.058   3.842  15.225  0.00  0.00    +0.000 A 
ENDBRANCH  23  29
ENDBRANCH   1  23
TORSDOF 2
ENDMDL
MODEL 5
REMARK VINA RESULT:      -8.6      2.204      3.652
REMARK  Name = 
REMARK  3 active torsions:
REMARK  status: ('A' for Active; 'I' for Inactive)
REMARK    1  A    between atoms: C_1  and  C_2
REMARK    2  A    between atoms: C_6  and  C_7
REMARK    3  A    between atoms: C_7  and  N_8
REMARK                            x       y       z     vdW  Elec       q    Type
REMARK                         _______ _______ _______ _____ _____    ______ ____
ROOT
ATOM      1  N   UNL     1       3.272   5.748  19.000  0.00  0.00    +0.000 NA
ATOM      2  C   UNL     1       2.184   5.535  19.962  0.00  0.00    +0.000 C 
ATOM      3  C   UNL     1       1.843   6.798  20.760  0.00  0.00    +0.000 C 
ATOM      4  C   UNL     1       1.609   7.963  19.846  0.00  0.00    +0.000 A 
ATOM      5  N   UNL     1       0.825   8.965  20.299  0.00  0.00    +0.000 NA
ATOM      6  C   UNL     1       0.597  10.010  19.487  0.00  0.00    +0.000 A 
ATOM      7  N   UNL     1      -0.199  11.029  19.926  0.00  0.00    +0.000 N 
ATOM      8  C   UNL     1      -0.659  11.104  21.319  0.00  0.00    +0.000 C 
ATOM      9  C   UNL     1      -0.320  12.483  21.949  0.00  0.00    +0.000 C 
ATOM     10  N   UNL     1      -0.761  13.541  21.033  0.00  0.00    +0.000 N 
ATOM     11  C   UNL     1      -1.423  14.651  21.490  0.00  0.00    +0.000 A 
ATOM     12  C   UNL     1      -2.308  15.334  20.652  0.00  0.00    +0.000 A 
ATOM     13  C   UNL     1      -3.011  16.441  21.120  0.00  0.00    +0.000 A 
ATOM     14  C   UNL     1      -2.809  16.856  22.426  0.00  0.00    +0.000 A 
ATOM     15  C   UNL     1      -1.928  16.128  23.203  0.00  0.00    +0.000 A 
ATOM     16  N   UNL     1      -1.253  15.039  22.771  0.00  0.00    +0.000 NA
ATOM     17  C   UNL     1      -0.155  13.480  19.699  0.00  0.00    +0.000 C 
ATOM     18  C   UNL     1      -0.547  12.144  19.043  0.00  0.00    +0.000 C 
ATOM     19  N   UNL     1       1.124  10.093  18.256  0.00  0.00    +0.000 NA
ATOM     20  C   UNL     1       1.917   9.091  17.845  0.00  0.00    +0.000 A 
ATOM     21  C   UNL     1       2.208   7.986  18.609  0.00  0.00    +0.000 A 
ATOM     22  C   UNL     1       3.058   6.876  18.085  0.00  0.00    +0.000 C 
ENDROOT
BRANCH   1  23
ATOM     23  C   UNL     1       3.667   4.515  18.285  0.00  0.00    +0.000 C 
BRANCH  23  29
ATOM     24  C   UNL     1       6.308   4.007  13.999  0.00  0.00    +0.000 C 
ATOM     25  C   UNL     1       6.274   4.306  15.468  0.00  0.00    +0.000 A 
ATOM     26  C   UNL     1       7.458   4.507  16.186  0.00  0.00    +0.000 A 
ATOM     27  C   UNL     1       7.413   4.755  17.558  0.00  0.00    +0.000 A 
ATOM     28  C   UNL     1       6.189   4.781  18.228  0.00  0.00    +0.000 A 
ATOM     29  C   UNL     1       4.990   4.561  17.537  0.00  0.00    +0.000 A 
ATOM     30  C   UNL     1       5.049   4.351  16.146  0.00  0.00    +0.000 A 
ENDBRANCH  23  29
ENDBRANCH   1  23
TORSDOF 2
ENDMDL
MODEL 6
REMARK VINA RESULT:      -8.4      1.219      2.339
REMARK  Name = 
REMARK  3 active torsions:
REMARK  status: ('A' for Active; 'I' for Inactive)
REMARK    1  A    between atoms: C_1  and  C_2
REMARK    2  A    between atoms: C_6  and  C_7
REMARK    3  A    between atoms: C_7  and  N_8
REMARK                            x       y       z     vdW  Elec       q    Type
REMARK                         _______ _______ _______ _____ _____    ______ ____
ROOT
ATOM      1  N   UNL     1       2.686   7.542  18.769  0.00  0.00    +0.000 NA
ATOM      2  C   UNL     1       2.022   7.045  19.981  0.00  0.00    +0.000 C 
ATOM      3  C   UNL     1       1.638   8.169  20.948  0.00  0.00    +0.000 C 
ATOM      4  C   UNL     1       0.863   9.242  20.243  0.00  0.00    +0.000 A 
ATOM      5  N   UNL     1       0.030  10.002  20.986  0.00  0.00    +0.000 NA
ATOM      6  C   UNL     1      -0.679  10.959  20.368  0.00  0.00    +0.000 A 
ATOM      7  N   UNL     1      -1.531  11.733  21.102  0.00  0.00    +0.000 N 
ATOM      8  C   UNL     1      -1.557  11.674  22.569  0.00  0.00    +0.000 C 
ATOM      9  C   UNL     1      -1.394  13.087  23.192  0.00  0.00    +0.000 C 
ATOM     10  N   UNL     1      -2.333  14.003  22.535  0.00  0.00    +0.000 N 
ATOM     11  C   UNL     1      -3.079  14.899  23.256  0.00  0.00    +0.000 A 
ATOM     12  C   UNL     1      -4.313  15.337  22.770  0.00  0.00    +0.000 A 
ATOM     13  C   UNL     1      -5.092  16.219  23.513  0.00  0.00    +0.000 A 
ATOM     14  C   UNL     1      -4.617  16.661  24.737  0.00  0.00    +0.000 A 
ATOM     15  C   UNL     1      -3.394  16.180  25.163  0.00  0.00    +0.000 A 
ATOM     16  N   UNL     1      -2.633  15.306  24.463  0.00  0.00    +0.000 NA
ATOM     17  C   UNL     1      -2.159  14.114  21.084  0.00  0.00    +0.000 C 
ATOM     18  C   UNL     1      -2.390  12.728  20.455  0.00  0.00    +0.000 C 
ATOM     19  N   UNL     1      -0.582  11.188  19.049  0.00  0.00    +0.000 NA
ATOM     20  C   UNL     1       0.272  10.429  18.343  0.00  0.00    +0.000 A 
ATOM     21  C   UNL     1       1.040   9.431  18.894  0.00  0.00    +0.000 A 
ATOM     22  C   UNL     1       1.939   8.584  18.055  0.00  0.00    +0.000 C 
ENDROOT
BRANCH   1  23
ATOM     23  C   UNL     1       3.139   6.461  17.868  0.00  0.00    +0.000 C 
BRANCH  23  29
ATOM     24  C   UNL     1       4.446   2.131  20.138  0.00  0.00    +0.000 C 
ATOM     25  C   UNL     1       3.434   2.940  19.382  0.00  0.00    +0.000 A 
ATOM     26  C   UNL     1       2.231   2.365  18.955  0.00  0.00    +0.000 A 
ATOM     27  C   UNL     1       1.314   3.121  18.226  0.00  0.00    +0.000 A 
ATOM     28  C   UNL     1       1.597   4.447  17.898  0.00  0.00    +0.000 A 
ATOM     29  C   UNL     1       2.803   5.039  18.294  0.00  0.00    +0.000 A 
ATOM     30  C   UNL     1       3.703   4.277  19.062  0.00  0.00    +0.000 A 
ENDBRANCH  23  29
ENDBRANCH   1  23
TORSDOF 2
ENDMDL
MODEL 7
REMARK VINA RESULT:      -8.4      0.969      1.649
REMARK  Name = 
REMARK  3 active torsions:
REMARK  status: ('A' for Active; 'I' for Inactive)
REMARK    1  A    between atoms: C_1  and  C_2
REMARK    2  A    between atoms: C_6  and  C_7
REMARK    3  A    between atoms: C_7  and  N_8
REMARK                            x       y       z     vdW  Elec       q    Type
REMARK                         _______ _______ _______ _____ _____    ______ ____
ROOT
ATOM      1  N   UNL     1       1.900   7.759  19.429  0.00  0.00    +0.000 NA
ATOM      2  C   UNL     1       1.851   8.947  18.568  0.00  0.00    +0.000 C 
ATOM      3  C   UNL     1       0.500   9.668  18.632  0.00  0.00    +0.000 C 
ATOM      4  C   UNL     1       0.107   9.946  20.051  0.00  0.00    +0.000 A 
ATOM      5  N   UNL     1      -0.733  10.979  20.276  0.00  0.00    +0.000 NA
ATOM      6  C   UNL     1      -1.085  11.248  21.543  0.00  0.00    +0.000 A 
ATOM      7  N   UNL     1      -1.928  12.294  21.791  0.00  0.00    +0.000 N 
ATOM      8  C   UNL     1      -2.604  13.013  20.703  0.00  0.00    +0.000 C 
ATOM      9  C   UNL     1      -4.139  13.071  20.937  0.00  0.00    +0.000 C 
ATOM     10  N   UNL     1      -4.390  13.527  22.308  0.00  0.00    +0.000 N 
ATOM     11  C   UNL     1      -5.351  14.464  22.584  0.00  0.00    +0.000 A 
ATOM     12  C   UNL     1      -5.224  15.291  23.704  0.00  0.00    +0.000 A 
ATOM     13  C   UNL     1      -6.177  16.269  23.971  0.00  0.00    +0.000 A 
ATOM     14  C   UNL     1      -7.257  16.401  23.113  0.00  0.00    +0.000 A 
ATOM     15  C   UNL     1      -7.315  15.558  22.019  0.00  0.00    +0.000 A 
ATOM     16  N   UNL     1      -6.387  14.616  21.733  0.00  0.00    +0.000 NA
ATOM     17  C   UNL     1      -3.795  12.682  23.348  0.00  0.00    +0.000 C 
ATOM     18  C   UNL     1      -2.267  12.678  23.162  0.00  0.00    +0.000 C 
ATOM     19  N   UNL     1      -0.639  10.526  22.583  0.00  0.00    +0.000 NA
ATOM     20  C   UNL     1       0.176   9.491  22.322  0.00  0.00    +0.000 A 
ATOM     21  C   UNL     1       0.585   9.141  21.057  0.00  0.00    +0.000 A 
ATOM     22  C   UNL     1       1.532   8.011  20.828  0.00  0.00    +0.000 C 
ENDROOT
BRANCH   1  23
ATOM     23  C   UNL     1       3.167   7.006  19.311  0.00  0.00    +0.000 C 
BRANCH  23  29
ATOM     24  C   UNL     1       5.249   3.749  16.045  0.00  0.00    +0.000 C 
ATOM     25  C   UNL     1       4.108   4.129  16.942  0.00  0.00    +0.000 A 
ATOM     26  C   UNL     1       2.938   3.363  16.977  0.00  0.00    +0.000 A 
ATOM     27  C   UNL     1       1.873   3.746  17.792  0.00  0.00    +0.000 A 
ATOM     28  C   UNL     1       1.959   4.906  18.562  0.00  0.00    +0.000 A 
ATOM     29  C   UNL     1       3.111   5.703  18.528  0.00  0.00    +0.000 A 
ATOM     30  C   UNL     1       4.191   5.284  17.731  0.00  0.00    +0.000 A 
ENDBRANCH  23  29
ENDBRANCH   1  23
TORSDOF 2
ENDMDL
MODEL 8
REMARK VINA RESULT:      -8.4      1.732      3.247
REMARK  Name = 
REMARK  3 active torsions:
REMARK  status: ('A' for Active; 'I' for Inactive)
REMARK    1  A    between atoms: C_1  and  C_2
REMARK    2  A    between atoms: C_6  and  C_7
REMARK    3  A    between atoms: C_7  and  N_8
REMARK                            x       y       z     vdW  Elec       q    Type
REMARK                         _______ _______ _______ _____ _____    ______ ____
ROOT
ATOM      1  N   UNL     1       2.754   7.205  18.690  0.00  0.00    +0.000 NA
ATOM      2  C   UNL     1       2.059   6.726  19.891  0.00  0.00    +0.000 C 
ATOM      3  C   UNL     1       1.714   7.857  20.865  0.00  0.00    +0.000 C 
ATOM      4  C   UNL     1       0.992   8.968  20.163  0.00  0.00    +0.000 A 
ATOM      5  N   UNL     1       0.185   9.756  20.906  0.00  0.00    +0.000 NA
ATOM      6  C   UNL     1      -0.478  10.748  20.290  0.00  0.00    +0.000 A 
ATOM      7  N   UNL     1      -1.303  11.551  21.023  0.00  0.00    +0.000 N 
ATOM      8  C   UNL     1      -1.344  11.480  22.490  0.00  0.00    +0.000 C 
ATOM      9  C   UNL     1      -1.128  12.880  23.126  0.00  0.00    +0.000 C 
ATOM     10  N   UNL     1      -2.021  13.841  22.470  0.00  0.00    +0.000 N 
ATOM     11  C   UNL     1      -2.735  14.761  23.192  0.00  0.00    +0.000 A 
ATOM     12  C   UNL     1      -3.945  15.255  22.698  0.00  0.00    +0.000 A 
ATOM     13  C   UNL     1      -4.693  16.163  23.442  0.00  0.00    +0.000 A 
ATOM     14  C   UNL     1      -4.211  16.573  24.675  0.00  0.00    +0.000 A 
ATOM     15  C   UNL     1      -3.013  16.038  25.107  0.00  0.00    +0.000 A 
ATOM     16  N   UNL     1      -2.284  15.139  24.406  0.00  0.00    +0.000 NA
ATOM     17  C   UNL     1      -1.830  13.956  21.021  0.00  0.00    +0.000 C 
ATOM     18  C   UNL     1      -2.113  12.586  20.378  0.00  0.00    +0.000 C 
ATOM     19  N   UNL     1      -0.359  10.983  18.973  0.00  0.00    +0.000 NA
ATOM     20  C   UNL     1       0.469  10.195  18.269  0.00  0.00    +0.000 A 
ATOM     21  C   UNL     1       1.189   9.161  18.817  0.00  0.00    +0.000 A 
ATOM     22  C   UNL     1       2.058   8.284  17.979  0.00  0.00    +0.000 C 
ENDROOT
BRANCH   1  23
ATOM     23  C   UNL     1       3.169   6.113  17.784  0.00  0.00    +0.000 C 
BRANCH  23  29
ATOM     24  C   UNL     1       7.845   8.034  17.559  0.00  0.00    +0.000 C 
ATOM     25  C   UNL     1       6.928   6.850  17.471  0.00  0.00    +0.000 A 
ATOM     26  C   UNL     1       7.415   5.594  17.092  0.00  0.00    +0.000 A 
ATOM     27  C   UNL     1       6.545   4.509  16.984  0.00  0.00    +0.000 A 
ATOM     28  C   UNL     1       5.182   4.673  17.231  0.00  0.00    +0.000 A 
ATOM     29  C   UNL     1       4.666   5.925  17.590  0.00  0.00    +0.000 A 
ATOM     30  C   UNL     1       5.561   7.001  17.733  0.00  0.00    +0.000 A 
ENDBRANCH  23  29
ENDBRANCH   1  23
TORSDOF 2
ENDMDL
MODEL 9
REMARK VINA RESULT:      -8.3      1.183      2.104
REMARK  Name = 
REMARK  3 active torsions:
REMARK  status: ('A' for Active; 'I' for Inactive)
REMARK    1  A    between atoms: C_1  and  C_2
REMARK    2  A    between atoms: C_6  and  C_7
REMARK    3  A    between atoms: C_7  and  N_8
REMARK                            x       y       z     vdW  Elec       q    Type
REMARK                         _______ _______ _______ _____ _____    ______ ____
ROOT
ATOM      1  N   UNL     1       2.827   7.543  18.669  0.00  0.00    +0.000 NA
ATOM      2  C   UNL     1       2.106   7.007  19.830  0.00  0.00    +0.000 C 
ATOM      3  C   UNL     1       1.693   8.097  20.825  0.00  0.00    +0.000 C 
ATOM      4  C   UNL     1       0.963   9.208  20.131  0.00  0.00    +0.000 A 
ATOM      5  N   UNL     1       0.108   9.949  20.868  0.00  0.00    +0.000 NA
ATOM      6  C   UNL     1      -0.563  10.939  20.258  0.00  0.00    +0.000 A 
ATOM      7  N   UNL     1      -1.437  11.695  20.985  0.00  0.00    +0.000 N 
ATOM      8  C   UNL     1      -1.526  11.579  22.447  0.00  0.00    +0.000 C 
ATOM      9  C   UNL     1      -1.374  12.964  23.132  0.00  0.00    +0.000 C 
ATOM     10  N   UNL     1      -2.273  13.917  22.473  0.00  0.00    +0.000 N 
ATOM     11  C   UNL     1      -3.038  14.794  23.197  0.00  0.00    +0.000 A 
ATOM     12  C   UNL     1      -4.245  15.268  22.676  0.00  0.00    +0.000 A 
ATOM     13  C   UNL     1      -5.045  16.130  23.419  0.00  0.00    +0.000 A 
ATOM     14  C   UNL     1      -4.618  16.517  24.679  0.00  0.00    +0.000 A 
ATOM     15  C   UNL     1      -3.420  16.003  25.138  0.00  0.00    +0.000 A 
ATOM     16  N   UNL     1      -2.641  15.148  24.437  0.00  0.00    +0.000 NA
ATOM     17  C   UNL     1      -2.035  14.083  21.036  0.00  0.00    +0.000 C 
ATOM     18  C   UNL     1      -2.254  12.726  20.343  0.00  0.00    +0.000 C 
ATOM     19  N   UNL     1      -0.406  11.218  18.954  0.00  0.00    +0.000 NA
ATOM     20  C   UNL     1       0.469  10.477  18.256  0.00  0.00    +0.000 A 
ATOM     21  C   UNL     1       1.200   9.447  18.799  0.00  0.00    +0.000 A 
ATOM     22  C   UNL     1       2.124   8.622  17.966  0.00  0.00    +0.000 C 
ENDROOT
BRANCH   1  23
ATOM     23  C   UNL     1       3.306   6.491  17.746  0.00  0.00    +0.000 C 
BRANCH  23  29
ATOM     24  C   UNL     1       0.638   2.320  18.787  0.00  0.00    +0.000 C 
ATOM     25  C   UNL     1       1.952   3.043  18.771  0.00  0.00    +0.000 A 
ATOM     26  C   UNL     1       3.096   2.464  19.332  0.00  0.00    +0.000 A 
ATOM     27  C   UNL     1       4.304   3.162  19.337  0.00  0.00    +0.000 A 
ATOM     28  C   UNL     1       4.375   4.449  18.803  0.00  0.00    +0.000 A 
ATOM     29  C   UNL     1       3.239   5.060  18.256  0.00  0.00    +0.000 A 
ATOM     30  C   UNL     1       2.036   4.329  18.223  0.00  0.00    +0.000 A 
ENDBRANCH  23  29
ENDBRANCH   1  23
TORSDOF 2
ENDMDL
