MODEL 1
REMARK VINA RESULT:      -7.5      0.000      0.000
REMARK  Name = 
REMARK  4 active torsions:
REMARK  status: ('A' for Active; 'I' for Inactive)
REMARK    1  A    between atoms: C_1  and  O_2
REMARK    2  A    between atoms: O_2  and  C_3
REMARK    3  A    between atoms: C_7  and  C_8
REMARK    4  A    between atoms: C_9  and  C_10
REMARK                            x       y       z     vdW  Elec       q    Type
REMARK                         _______ _______ _______ _____ _____    ______ ____
ROOT
ATOM      1  C   UNL     1       5.127   4.562  15.670  0.00  0.00    +0.000 C 
ATOM      2  C   UNL     1       4.523   4.723  16.699  0.00  0.00    +0.000 C 
ENDROOT
BRANCH   2   3
ATOM      3  C   UNL     1       3.765   4.915  17.885  0.00  0.00    +0.000 A 
ATOM      4  N   UNL     1       3.990   5.994  18.697  0.00  0.00    +0.000 NA
ATOM      5  N   UNL     1       3.172   5.898  19.741  0.00  0.00    +0.000 NA
ATOM      6  N   UNL     1       2.464   4.771  19.582  0.00  0.00    +0.000 N 
ATOM      7  C   UNL     1       2.781   4.119  18.422  0.00  0.00    +0.000 A 
ATOM      8  C   UNL     1       2.136   2.839  18.042  0.00  0.00    +0.000 C 
ATOM      9  C   UNL     1       0.860   2.581  18.859  0.00  0.00    +0.000 C 
ATOM     10  C   UNL     1       1.069   2.897  20.344  0.00  0.00    +0.000 C 
ATOM     11  C   UNL     1       1.456   4.365  20.537  0.00  0.00    +0.000 C 
ENDBRANCH   2   3
BRANCH   1  16
ATOM     12  C   UNL     1       6.014   3.255  12.286  0.00  0.00    +0.000 A 
ATOM     13  C   UNL     1       7.182   3.973  12.025  0.00  0.00    +0.000 A 
ATOM     14  C   UNL     1       7.659   4.900  12.954  0.00  0.00    +0.000 A 
ATOM     15  C   UNL     1       6.972   5.105  14.152  0.00  0.00    +0.000 A 
ATOM     16  C   UNL     1       5.798   4.395  14.416  0.00  0.00    +0.000 A 
ATOM     17  C   UNL     1       5.309   3.490  13.469  0.00  0.00    +0.000 A 
BRANCH  12  19
ATOM     18  C   UNL     1       6.330   1.243  11.100  0.00  0.00    +0.000 C 
ATOM     19  O   UNL     1       5.468   2.323  11.446  0.00  0.00    +0.000 OA
ENDBRANCH  12  19
ENDBRANCH   1  16
TORSDOF 3
ENDMDL
MODEL 2
REMARK VINA RESULT:      -7.4      3.274      7.677
REMARK  Name = 
REMARK  4 active torsions:
REMARK  status: ('A' for Active; 'I' for Inactive)
REMARK    1  A    between atoms: C_1  and  O_2
REMARK    2  A    between atoms: O_2  and  C_3
REMARK    3  A    between atoms: C_7  and  C_8
REMARK    4  A    between atoms: C_9  and  C_10
REMARK                            x       y       z     vdW  Elec       q    Type
REMARK                         _______ _______ _______ _____ _____    ______ ____
ROOT
ATOM      1  C   UNL     1       3.861   4.089  17.094  0.00  0.00    +0.000 C 
ATOM      2  C   UNL     1       4.778   4.382  16.371  0.00  0.00    +0.000 C 
ENDROOT
BRANCH   2   3
ATOM      3  C   UNL     1       5.895   4.718  15.560  0.00  0.00    +0.000 A 
ATOM      4  N   UNL     1       6.896   5.519  16.037  0.00  0.00    +0.000 NA
ATOM      5  N   UNL     1       7.781   5.695  15.059  0.00  0.00    +0.000 NA
ATOM      6  N   UNL     1       7.325   5.024  13.992  0.00  0.00    +0.000 N 
ATOM      7  C   UNL     1       6.150   4.374  14.253  0.00  0.00    +0.000 A 
ATOM      8  C   UNL     1       5.448   3.579  13.215  0.00  0.00    +0.000 C 
ATOM      9  C   UNL     1       6.366   3.265  12.024  0.00  0.00    +0.000 C 
ATOM     10  C   UNL     1       7.177   4.493  11.598  0.00  0.00    +0.000 C 
ATOM     11  C   UNL     1       8.059   4.985  12.747  0.00  0.00    +0.000 C 
ENDBRANCH   2   3
BRANCH   1  16
ATOM     12  C   UNL     1       1.450   4.285  19.939  0.00  0.00    +0.000 A 
ATOM     13  C   UNL     1       0.836   3.034  19.850  0.00  0.00    +0.000 A 
ATOM     14  C   UNL     1       1.204   2.141  18.841  0.00  0.00    +0.000 A 
ATOM     15  C   UNL     1       2.193   2.496  17.922  0.00  0.00    +0.000 A 
ATOM     16  C   UNL     1       2.805   3.749  18.000  0.00  0.00    +0.000 A 
ATOM     17  C   UNL     1       2.412   4.650  18.994  0.00  0.00    +0.000 A 
BRANCH  12  19
ATOM     18  C   UNL     1       1.693   6.524  20.631  0.00  0.00    +0.000 C 
ATOM     19  O   UNL     1       1.165   5.226  20.890  0.00  0.00    +0.000 OA
ENDBRANCH  12  19
ENDBRANCH   1  16
TORSDOF 3
ENDMDL
MODEL 3
REMARK VINA RESULT:      -7.4      6.765      8.250
REMARK  Name = 
REMARK  4 active torsions:
REMARK  status: ('A' for Active; 'I' for Inactive)
REMARK    1  A    between atoms: C_1  and  O_2
REMARK    2  A    between atoms: O_2  and  C_3
REMARK    3  A    between atoms: C_7  and  C_8
REMARK    4  A    between atoms: C_9  and  C_10
REMARK                            x       y       z     vdW  Elec       q    Type
REMARK                         _______ _______ _______ _____ _____    ______ ____
ROOT
ATOM      1  C   UNL     1       8.404   8.980  18.257  0.00  0.00    +0.000 C 
ATOM      2  C   UNL     1       7.924   7.977  17.796  0.00  0.00    +0.000 C 
ENDROOT
BRANCH   2   3
ATOM      3  C   UNL     1       7.378   6.808  17.203  0.00  0.00    +0.000 A 
ATOM      4  N   UNL     1       7.722   6.437  15.931  0.00  0.00    +0.000 NA
ATOM      5  N   UNL     1       7.038   5.338  15.625  0.00  0.00    +0.000 NA
ATOM      6  N   UNL     1       6.273   5.044  16.687  0.00  0.00    +0.000 N 
ATOM      7  C   UNL     1       6.458   5.924  17.718  0.00  0.00    +0.000 A 
ATOM      8  C   UNL     1       5.707   5.807  18.991  0.00  0.00    +0.000 C 
ATOM      9  C   UNL     1       5.052   4.425  19.139  0.00  0.00    +0.000 C 
ATOM     10  C   UNL     1       4.382   3.976  17.836  0.00  0.00    +0.000 C 
ATOM     11  C   UNL     1       5.407   3.886  16.703  0.00  0.00    +0.000 C 
ENDBRANCH   2   3
BRANCH   1  16
ATOM     12  C   UNL     1       9.888  12.407  18.339  0.00  0.00    +0.000 A 
ATOM     13  C   UNL     1      10.212  12.520  19.692  0.00  0.00    +0.000 A 
ATOM     14  C   UNL     1       9.920  11.478  20.574  0.00  0.00    +0.000 A 
ATOM     15  C   UNL     1       9.310  10.314  20.103  0.00  0.00    +0.000 A 
ATOM     16  C   UNL     1       8.976  10.197  18.752  0.00  0.00    +0.000 A 
ATOM     17  C   UNL     1       9.243  11.256  17.878  0.00  0.00    +0.000 A 
BRANCH  12  19
ATOM     18  C   UNL     1      10.081  14.708  17.872  0.00  0.00    +0.000 C 
ATOM     19  O   UNL     1      10.135  13.366  17.396  0.00  0.00    +0.000 OA
ENDBRANCH  12  19
ENDBRANCH   1  16
TORSDOF 3
ENDMDL
MODEL 4
REMARK VINA RESULT:      -7.2      7.126      9.099
REMARK  Name = 
REMARK  4 active torsions:
REMARK  status: ('A' for Active; 'I' for Inactive)
REMARK    1  A    between atoms: C_1  and  O_2
REMARK    2  A    between atoms: O_2  and  C_3
REMARK    3  A    between atoms: C_7  and  C_8
REMARK    4  A    between atoms: C_9  and  C_10
REMARK                            x       y       z     vdW  Elec       q    Type
REMARK                         _______ _______ _______ _____ _____    ______ ____
ROOT
ATOM      1  C   UNL     1       8.495   8.467  18.595  0.00  0.00    +0.000 C 
ATOM      2  C   UNL     1       8.971   9.489  19.016  0.00  0.00    +0.000 C 
ENDROOT
BRANCH   2   3
ATOM      3  C   UNL     1       9.538  10.672  19.562  0.00  0.00    +0.000 A 
ATOM      4  N   UNL     1       9.303  11.029  20.862  0.00  0.00    +0.000 NA
ATOM      5  N   UNL     1       9.920  12.186  21.086  0.00  0.00    +0.000 NA
ATOM      6  N   UNL     1      10.513  12.544  19.938  0.00  0.00    +0.000 N 
ATOM      7  C   UNL     1      10.322  11.620  18.947  0.00  0.00    +0.000 A 
ATOM      8  C   UNL     1      10.873  11.809  17.583  0.00  0.00    +0.000 C 
ATOM      9  C   UNL     1      11.958  12.897  17.555  0.00  0.00    +0.000 C 
ATOM     10  C   UNL     1      11.541  14.129  18.367  0.00  0.00    +0.000 C 
ATOM     11  C   UNL     1      11.295  13.755  19.831  0.00  0.00    +0.000 C 
ENDBRANCH   2   3
BRANCH   1  16
ATOM     12  C   UNL     1       6.608   5.999  16.521  0.00  0.00    +0.000 A 
ATOM     13  C   UNL     1       6.664   4.870  17.341  0.00  0.00    +0.000 A 
ATOM     14  C   UNL     1       7.341   4.921  18.561  0.00  0.00    +0.000 A 
ATOM     15  C   UNL     1       7.958   6.105  18.968  0.00  0.00    +0.000 A 
ATOM     16  C   UNL     1       7.912   7.236  18.150  0.00  0.00    +0.000 A 
ATOM     17  C   UNL     1       7.258   7.171  16.915  0.00  0.00    +0.000 A 
BRANCH  12  19
ATOM     18  C   UNL     1       5.593   4.791  14.771  0.00  0.00    +0.000 C 
ATOM     19  O   UNL     1       5.967   6.054  15.313  0.00  0.00    +0.000 OA
ENDBRANCH  12  19
ENDBRANCH   1  16
TORSDOF 3
ENDMDL
MODEL 5
REMARK VINA RESULT:      -7.1      1.518      2.016
REMARK  Name = 
REMARK  4 active torsions:
REMARK  status: ('A' for Active; 'I' for Inactive)
REMARK    1  A    between atoms: C_1  and  O_2
REMARK    2  A    between atoms: O_2  and  C_3
REMARK    3  A    between atoms: C_7  and  C_8
REMARK    4  A    between atoms: C_9  and  C_10
REMARK                            x       y       z     vdW  Elec       q    Type
REMARK                         _______ _______ _______ _____ _____    ______ ____
ROOT
ATOM      1  C   UNL     1       5.374   4.124  15.926  0.00  0.00    +0.000 C 
ATOM      2  C   UNL     1       4.867   4.048  17.015  0.00  0.00    +0.000 C 
ENDROOT
BRANCH   2   3
ATOM      3  C   UNL     1       4.236   3.919  18.282  0.00  0.00    +0.000 A 
ATOM      4  N   UNL     1       4.356   2.769  19.013  0.00  0.00    +0.000 NA
ATOM      5  N   UNL     1       3.639   2.913  20.125  0.00  0.00    +0.000 NA
ATOM      6  N   UNL     1       3.074   4.128  20.071  0.00  0.00    +0.000 N 
ATOM      7  C   UNL     1       3.428   4.815  18.942  0.00  0.00    +0.000 A 
ATOM      8  C   UNL     1       2.911   6.176  18.659  0.00  0.00    +0.000 C 
ATOM      9  C   UNL     1       2.305   6.825  19.913  0.00  0.00    +0.000 C 
ATOM     10  C   UNL     1       1.422   5.839  20.687  0.00  0.00    +0.000 C 
ATOM     11  C   UNL     1       2.235   4.624  21.139  0.00  0.00    +0.000 C 
ENDBRANCH   2   3
BRANCH   1  16
ATOM     12  C   UNL     1       5.938   3.453  12.296  0.00  0.00    +0.000 A 
ATOM     13  C   UNL     1       7.090   4.208  12.065  0.00  0.00    +0.000 A 
ATOM     14  C   UNL     1       7.661   4.951  13.100  0.00  0.00    +0.000 A 
ATOM     15  C   UNL     1       7.086   4.934  14.372  0.00  0.00    +0.000 A 
ATOM     16  C   UNL     1       5.930   4.188  14.607  0.00  0.00    +0.000 A 
ATOM     17  C   UNL     1       5.344   3.469  13.561  0.00  0.00    +0.000 A 
BRANCH  12  19
ATOM     18  C   UNL     1       3.962   3.072  11.071  0.00  0.00    +0.000 C 
ATOM     19  O   UNL     1       5.305   2.690  11.353  0.00  0.00    +0.000 OA
ENDBRANCH  12  19
ENDBRANCH   1  16
TORSDOF 3
ENDMDL
MODEL 6
REMARK VINA RESULT:      -7.1      4.466      5.952
REMARK  Name = 
REMARK  4 active torsions:
REMARK  status: ('A' for Active; 'I' for Inactive)
REMARK    1  A    between atoms: C_1  and  O_2
REMARK    2  A    between atoms: O_2  and  C_3
REMARK    3  A    between atoms: C_7  and  C_8
REMARK    4  A    between atoms: C_9  and  C_10
REMARK                            x       y       z     vdW  Elec       q    Type
REMARK                         _______ _______ _______ _____ _____    ______ ____
ROOT
ATOM      1  C   UNL     1       2.670   7.491  18.231  0.00  0.00    +0.000 C 
ATOM      2  C   UNL     1       2.001   8.390  18.668  0.00  0.00    +0.000 C 
ENDROOT
BRANCH   2   3
ATOM      3  C   UNL     1       1.166   9.424  19.173  0.00  0.00    +0.000 A 
ATOM      4  N   UNL     1       0.861  10.517  18.409  0.00  0.00    +0.000 NA
ATOM      5  N   UNL     1       0.103  11.330  19.141  0.00  0.00    +0.000 NA
ATOM      6  N   UNL     1      -0.044  10.752  20.342  0.00  0.00    +0.000 N 
ATOM      7  C   UNL     1       0.588   9.541  20.415  0.00  0.00    +0.000 A 
ATOM      8  C   UNL     1       0.576   8.725  21.654  0.00  0.00    +0.000 C 
ATOM      9  C   UNL     1      -0.511   9.195  22.632  0.00  0.00    +0.000 C 
ATOM     10  C   UNL     1      -0.544  10.724  22.747  0.00  0.00    +0.000 C 
ATOM     11  C   UNL     1      -0.834  11.363  21.387  0.00  0.00    +0.000 C 
ENDBRANCH   2   3
BRANCH   1  16
ATOM     12  C   UNL     1       5.251   5.597  16.307  0.00  0.00    +0.000 A 
ATOM     13  C   UNL     1       4.807   4.286  16.491  0.00  0.00    +0.000 A 
ATOM     14  C   UNL     1       3.673   4.031  17.266  0.00  0.00    +0.000 A 
ATOM     15  C   UNL     1       2.976   5.089  17.852  0.00  0.00    +0.000 A 
ATOM     16  C   UNL     1       3.420   6.402  17.678  0.00  0.00    +0.000 A 
ATOM     17  C   UNL     1       4.572   6.650  16.926  0.00  0.00    +0.000 A 
BRANCH  12  19
ATOM     18  C   UNL     1       6.978   4.879  14.873  0.00  0.00    +0.000 C 
ATOM     19  O   UNL     1       6.344   5.952  15.565  0.00  0.00    +0.000 OA
ENDBRANCH  12  19
ENDBRANCH   1  16
TORSDOF 3
ENDMDL
MODEL 7
REMARK VINA RESULT:      -7.1      7.211      9.209
REMARK  Name = 
REMARK  4 active torsions:
REMARK  status: ('A' for Active; 'I' for Inactive)
REMARK    1  A    between atoms: C_1  and  O_2
REMARK    2  A    between atoms: O_2  and  C_3
REMARK    3  A    between atoms: C_7  and  C_8
REMARK    4  A    between atoms: C_9  and  C_10
REMARK                            x       y       z     vdW  Elec       q    Type
REMARK                         _______ _______ _______ _____ _____    ______ ____
ROOT
ATOM      1  C   UNL     1       8.231   8.897  17.882  0.00  0.00    +0.000 C 
ATOM      2  C   UNL     1       8.551  10.056  17.937  0.00  0.00    +0.000 C 
ENDROOT
BRANCH   2   3
ATOM      3  C   UNL     1       8.960  11.412  18.044  0.00  0.00    +0.000 A 
ATOM      4  N   UNL     1       8.159  12.426  17.592  0.00  0.00    +0.000 NA
ATOM      5  N   UNL     1       8.804  13.574  17.784  0.00  0.00    +0.000 NA
ATOM      6  N   UNL     1       9.989  13.271  18.332  0.00  0.00    +0.000 N 
ATOM      7  C   UNL     1      10.137  11.926  18.537  0.00  0.00    +0.000 A 
ATOM      8  C   UNL     1      11.375  11.354  19.118  0.00  0.00    +0.000 C 
ATOM      9  C   UNL     1      12.235  12.432  19.795  0.00  0.00    +0.000 C 
ATOM     10  C   UNL     1      12.332  13.698  18.936  0.00  0.00    +0.000 C 
ATOM     11  C   UNL     1      10.944  14.294  18.693  0.00  0.00    +0.000 C 
ENDBRANCH   2   3
BRANCH   1  16
ATOM     12  C   UNL     1       6.752   5.641  16.806  0.00  0.00    +0.000 A 
ATOM     13  C   UNL     1       7.035   4.843  17.917  0.00  0.00    +0.000 A 
ATOM     14  C   UNL     1       7.731   5.376  19.004  0.00  0.00    +0.000 A 
ATOM     15  C   UNL     1       8.138   6.711  18.986  0.00  0.00    +0.000 A 
ATOM     16  C   UNL     1       7.865   7.512  17.875  0.00  0.00    +0.000 A 
ATOM     17  C   UNL     1       7.194   6.966  16.776  0.00  0.00    +0.000 A 
BRANCH  12  19
ATOM     18  C   UNL     1       5.135   4.170  15.924  0.00  0.00    +0.000 C 
ATOM     19  O   UNL     1       6.075   5.217  15.695  0.00  0.00    +0.000 OA
ENDBRANCH  12  19
ENDBRANCH   1  16
TORSDOF 3
ENDMDL
MODEL 8
REMARK VINA RESULT:      -7.0      6.821      8.469
REMARK  Name = 
REMARK  4 active torsions:
REMARK  status: ('A' for Active; 'I' for Inactive)
REMARK    1  A    between atoms: C_1  and  O_2
REMARK    2  A    between atoms: O_2  and  C_3
REMARK    3  A    between atoms: C_7  and  C_8
REMARK    4  A    between atoms: C_9  and  C_10
REMARK                            x       y       z     vdW  Elec       q    Type
REMARK                         _______ _______ _______ _____ _____    ______ ____
ROOT
ATOM      1  C   UNL     1       8.745   8.958  18.722  0.00  0.00    +0.000 C 
ATOM      2  C   UNL     1       8.281   7.867  18.513  0.00  0.00    +0.000 C 
ENDROOT
BRANCH   2   3
ATOM      3  C   UNL     1       7.685   6.601  18.272  0.00  0.00    +0.000 A 
ATOM      4  N   UNL     1       7.958   5.529  19.078  0.00  0.00    +0.000 NA
ATOM      5  N   UNL     1       7.298   4.478  18.599  0.00  0.00    +0.000 NA
ATOM      6  N   UNL     1       6.641   4.892  17.506  0.00  0.00    +0.000 N 
ATOM      7  C   UNL     1       6.832   6.224  17.261  0.00  0.00    +0.000 A 
ATOM      8  C   UNL     1       6.215   6.901  16.095  0.00  0.00    +0.000 C 
ATOM      9  C   UNL     1       5.081   6.062  15.485  0.00  0.00    +0.000 C 
ATOM     10  C   UNL     1       5.475   4.585  15.366  0.00  0.00    +0.000 C 
ATOM     11  C   UNL     1       5.800   3.999  16.742  0.00  0.00    +0.000 C 
ENDBRANCH   2   3
BRANCH   1  16
ATOM     12  C   UNL     1      10.147  12.382  18.210  0.00  0.00    +0.000 A 
ATOM     13  C   UNL     1      10.344  12.786  19.532  0.00  0.00    +0.000 A 
ATOM     14  C   UNL     1       9.994  11.938  20.585  0.00  0.00    +0.000 A 
ATOM     15  C   UNL     1       9.452  10.679  20.317  0.00  0.00    +0.000 A 
ATOM     16  C   UNL     1       9.246  10.272  18.997  0.00  0.00    +0.000 A 
ATOM     17  C   UNL     1       9.570  11.137  17.947  0.00  0.00    +0.000 A 
BRANCH  12  19
ATOM     18  C   UNL     1      11.502  14.086  17.308  0.00  0.00    +0.000 C 
ATOM     19  O   UNL     1      10.460  13.134  17.111  0.00  0.00    +0.000 OA
ENDBRANCH  12  19
ENDBRANCH   1  16
TORSDOF 3
ENDMDL
MODEL 9
REMARK VINA RESULT:      -7.0      6.771      8.348
REMARK  Name = 
REMARK  4 active torsions:
REMARK  status: ('A' for Active; 'I' for Inactive)
REMARK    1  A    between atoms: C_1  and  O_2
REMARK    2  A    between atoms: O_2  and  C_3
REMARK    3  A    between atoms: C_7  and  C_8
REMARK    4  A    between atoms: C_9  and  C_10
REMARK                            x       y       z     vdW  Elec       q    Type
REMARK                         _______ _______ _______ _____ _____    ______ ____
ROOT
ATOM      1  C   UNL     1       8.453   8.929  18.269  0.00  0.00    +0.000 C 
ATOM      2  C   UNL     1       7.918   7.952  17.813  0.00  0.00    +0.000 C 
ENDROOT
BRANCH   2   3
ATOM      3  C   UNL     1       7.312   6.806  17.230  0.00  0.00    +0.000 A 
ATOM      4  N   UNL     1       7.582   6.450  15.937  0.00  0.00    +0.000 NA
ATOM      5  N   UNL     1       6.855   5.374  15.648  0.00  0.00    +0.000 NA
ATOM      6  N   UNL     1       6.137   5.081  16.742  0.00  0.00    +0.000 N 
ATOM      7  C   UNL     1       6.397   5.938  17.776  0.00  0.00    +0.000 A 
ATOM      8  C   UNL     1       5.707   5.818  19.084  0.00  0.00    +0.000 C 
ATOM      9  C   UNL     1       5.024   4.450  19.243  0.00  0.00    +0.000 C 
ATOM     10  C   UNL     1       4.278   4.041  17.967  0.00  0.00    +0.000 C 
ATOM     11  C   UNL     1       5.243   3.946  16.783  0.00  0.00    +0.000 C 
ENDBRANCH   2   3
BRANCH   1  16
ATOM     12  C   UNL     1       9.622  11.618  20.582  0.00  0.00    +0.000 A 
ATOM     13  C   UNL     1      10.247  12.484  19.684  0.00  0.00    +0.000 A 
ATOM     14  C   UNL     1      10.301  12.167  18.324  0.00  0.00    +0.000 A 
ATOM     15  C   UNL     1       9.720  10.986  17.859  0.00  0.00    +0.000 A 
ATOM     16  C   UNL     1       9.100  10.111  18.754  0.00  0.00    +0.000 A 
ATOM     17  C   UNL     1       9.075  10.418  20.118  0.00  0.00    +0.000 A 
BRANCH  12  19
ATOM     18  C   UNL     1       8.178  11.937  22.416  0.00  0.00    +0.000 C 
ATOM     19  O   UNL     1       9.513  11.838  21.928  0.00  0.00    +0.000 OA
ENDBRANCH  12  19
ENDBRANCH   1  16
TORSDOF 3
ENDMDL
