MODEL 1
REMARK VINA RESULT:      -8.5      0.000      0.000
REMARK  Name = 
REMARK  8 active torsions:
REMARK  status: ('A' for Active; 'I' for Inactive)
REMARK    1  A    between atoms: C_1  and  C_2
REMARK    2  A    between atoms: C_4  and  N_5
REMARK    3  A    between atoms: C_7  and  C_8
REMARK    4  A    between atoms: C_9  and  C_10
REMARK    5  A    between atoms: C_10  and  N_11
REMARK    6  A    between atoms: C_12  and  C_14
REMARK    7  A    between atoms: N_17  and  C_18
REMARK    8  A    between atoms: C_18  and  C_19
REMARK                            x       y       z     vdW  Elec       q    Type
REMARK                         _______ _______ _______ _____ _____    ______ ____
ROOT
ATOM      1  C   UNL     1       1.343   9.874  18.861  0.00  0.00    +0.000 A 
ATOM      2  C   UNL     1       1.757   9.280  17.649  0.00  0.00    +0.000 A 
ATOM      3  N   UNL     1       2.237   8.034  17.819  0.00  0.00    +0.000 NA
ATOM      4  N   UNL     1       2.140   7.843  19.153  0.00  0.00    +0.000 N 
ATOM      5  C   UNL     1       1.475   8.853  19.779  0.00  0.00    +0.000 A 
ENDROOT
BRANCH   1   7
ATOM      6  N   UNL     1      -0.466  11.483  18.999  0.00  0.00    +0.000 N 
ATOM      7  C   UNL     1       0.884  11.225  19.101  0.00  0.00    +0.000 C 
ATOM      8  O   UNL     1       1.657  12.135  19.398  0.00  0.00    +0.000 OA
ATOM      9  H   UNL     1      -0.709  12.463  19.082  0.00  0.00    +0.000 HD
BRANCH   6  10
ATOM     10  C   UNL     1      -1.513  10.519  18.746  0.00  0.00    +0.000 C 
BRANCH  10  18
ATOM     11  C   UNL     1      -2.475   9.769  16.006  0.00  0.00    +0.000 C 
ATOM     12  C   UNL     1      -3.248  10.696  16.902  0.00  0.00    +0.000 A 
ATOM     13  C   UNL     1      -4.515  11.127  16.500  0.00  0.00    +0.000 A 
ATOM     14  C   UNL     1      -5.268  11.927  17.344  0.00  0.00    +0.000 A 
ATOM     15  N   UNL     1      -4.831  12.318  18.546  0.00  0.00    +0.000 NA
ATOM     16  C   UNL     1      -3.605  11.907  18.955  0.00  0.00    +0.000 A 
ATOM     17  C   UNL     1      -3.233  12.317  20.356  0.00  0.00    +0.000 C 
ATOM     18  C   UNL     1      -2.779  11.083  18.169  0.00  0.00    +0.000 A 
BRANCH  14  19
ATOM     19  N   UNL     1      -6.553  12.317  16.999  0.00  0.00    +0.000 N 
ATOM     20  H   UNL     1      -6.679  13.314  17.120  0.00  0.00    +0.000 HD
ATOM     21  H   UNL     1      -7.189  11.783  17.588  0.00  0.00    +0.000 HD
ENDBRANCH  14  19
ENDBRANCH  10  18
ENDBRANCH   6  10
ENDBRANCH   1   7
BRANCH   4  22
ATOM     22  C   UNL     1       2.609   6.630  19.810  0.00  0.00    +0.000 C 
BRANCH  22  23
ATOM     23  C   UNL     1       2.763   5.485  18.846  0.00  0.00    +0.000 A 
ATOM     24  C   UNL     1       1.592   4.704  18.633  0.00  0.00    +0.000 A 
ATOM     25  C   UNL     1       1.576   3.613  17.791  0.00  0.00    +0.000 A 
ATOM     26  C   UNL     1       2.751   3.288  17.141  0.00  0.00    +0.000 A 
ATOM     27  C   UNL     1       3.928   4.054  17.315  0.00  0.00    +0.000 A 
ATOM     28  C   UNL     1       3.979   5.156  18.174  0.00  0.00    +0.000 A 
ATOM     29  O   UNL     1       5.007   6.010  18.454  0.00  0.00    +0.000 OA
ATOM     30  C   UNL     1       6.418   6.032  18.162  0.00  0.00    +0.000 C 
ATOM     31  C   UNL     1       7.062   5.180  17.096  0.00  0.00    +0.000 C 
ATOM     32  C   UNL     1       6.117   4.228  16.388  0.00  0.00    +0.000 C 
ATOM     33  O   UNL     1       4.893   3.528  16.518  0.00  0.00    +0.000 OA
ENDBRANCH  22  23
ENDBRANCH   4  22
TORSDOF 6
ENDMDL
MODEL 2
REMARK VINA RESULT:      -8.3      1.230      1.466
REMARK  Name = 
REMARK  8 active torsions:
REMARK  status: ('A' for Active; 'I' for Inactive)
REMARK    1  A    between atoms: C_1  and  C_2
REMARK    2  A    between atoms: C_4  and  N_5
REMARK    3  A    between atoms: C_7  and  C_8
REMARK    4  A    between atoms: C_9  and  C_10
REMARK    5  A    between atoms: C_10  and  N_11
REMARK    6  A    between atoms: C_12  and  C_14
REMARK    7  A    between atoms: N_17  and  C_18
REMARK    8  A    between atoms: C_18  and  C_19
REMARK                            x       y       z     vdW  Elec       q    Type
REMARK                         _______ _______ _______ _____ _____    ______ ____
ROOT
ATOM      1  C   UNL     1       1.723   8.821  19.076  0.00  0.00    +0.000 A 
ATOM      2  C   UNL     1       1.195   8.818  20.386  0.00  0.00    +0.000 A 
ATOM      3  N   UNL     1       1.438   7.668  21.041  0.00  0.00    +0.000 NA
ATOM      4  N   UNL     1       2.113   6.929  20.133  0.00  0.00    +0.000 N 
ATOM      5  C   UNL     1       2.430   7.638  19.014  0.00  0.00    +0.000 A 
ENDROOT
BRANCH   1   7
ATOM      6  N   UNL     1       0.298  10.139  17.625  0.00  0.00    +0.000 N 
ATOM      7  C   UNL     1       1.572   9.816  18.037  0.00  0.00    +0.000 C 
ATOM      8  O   UNL     1       2.539  10.377  17.524  0.00  0.00    +0.000 OA
ATOM      9  H   UNL     1       0.266  10.767  16.830  0.00  0.00    +0.000 HD
BRANCH   6  10
ATOM     10  C   UNL     1      -0.942   9.642  18.178  0.00  0.00    +0.000 C 
BRANCH  10  18
ATOM     11  C   UNL     1      -2.867   9.612  15.878  0.00  0.00    +0.000 C 
ATOM     12  C   UNL     1      -3.027  10.544  17.046  0.00  0.00    +0.000 A 
ATOM     13  C   UNL     1      -4.175  11.338  17.127  0.00  0.00    +0.000 A 
ATOM     14  C   UNL     1      -4.369  12.153  18.231  0.00  0.00    +0.000 A 
ATOM     15  N   UNL     1      -3.493  12.222  19.239  0.00  0.00    +0.000 NA
ATOM     16  C   UNL     1      -2.375  11.457  19.179  0.00  0.00    +0.000 A 
ATOM     17  C   UNL     1      -1.491  11.528  20.398  0.00  0.00    +0.000 C 
ATOM     18  C   UNL     1      -2.103  10.591  18.104  0.00  0.00    +0.000 A 
BRANCH  14  19
ATOM     19  N   UNL     1      -5.527  12.902  18.369  0.00  0.00    +0.000 N 
ATOM     20  H   UNL     1      -5.332  13.894  18.306  0.00  0.00    +0.000 HD
ATOM     21  H   UNL     1      -5.931  12.654  19.270  0.00  0.00    +0.000 HD
ENDBRANCH  14  19
ENDBRANCH  10  18
ENDBRANCH   6  10
ENDBRANCH   1   7
BRANCH   4  22
ATOM     22  C   UNL     1       2.536   5.560  20.392  0.00  0.00    +0.000 C 
BRANCH  22  23
ATOM     23  C   UNL     1       2.882   4.821  19.127  0.00  0.00    +0.000 A 
ATOM     24  C   UNL     1       1.788   4.190  18.471  0.00  0.00    +0.000 A 
ATOM     25  C   UNL     1       1.945   3.464  17.310  0.00  0.00    +0.000 A 
ATOM     26  C   UNL     1       3.219   3.362  16.785  0.00  0.00    +0.000 A 
ATOM     27  C   UNL     1       4.324   3.993  17.401  0.00  0.00    +0.000 A 
ATOM     28  C   UNL     1       4.199   4.723  18.586  0.00  0.00    +0.000 A 
ATOM     29  O   UNL     1       5.139   5.402  19.308  0.00  0.00    +0.000 OA
ATOM     30  C   UNL     1       6.577   5.495  19.272  0.00  0.00    +0.000 C 
ATOM     31  C   UNL     1       7.411   5.056  18.094  0.00  0.00    +0.000 C 
ATOM     32  C   UNL     1       6.625   4.433  16.956  0.00  0.00    +0.000 C 
ATOM     33  O   UNL     1       5.421   3.759  16.636  0.00  0.00    +0.000 OA
ENDBRANCH  22  23
ENDBRANCH   4  22
TORSDOF 6
ENDMDL
MODEL 3
REMARK VINA RESULT:      -8.3      3.597      5.594
REMARK  Name = 
REMARK  8 active torsions:
REMARK  status: ('A' for Active; 'I' for Inactive)
REMARK    1  A    between atoms: C_1  and  C_2
REMARK    2  A    between atoms: C_4  and  N_5
REMARK    3  A    between atoms: C_7  and  C_8
REMARK    4  A    between atoms: C_9  and  C_10
REMARK    5  A    between atoms: C_10  and  N_11
REMARK    6  A    between atoms: C_12  and  C_14
REMARK    7  A    between atoms: N_17  and  C_18
REMARK    8  A    between atoms: C_18  and  C_19
REMARK                            x       y       z     vdW  Elec       q    Type
REMARK                         _______ _______ _______ _____ _____    ______ ____
ROOT
ATOM      1  C   UNL     1       2.080   3.817  19.130  0.00  0.00    +0.000 A 
ATOM      2  C   UNL     1       1.579   3.916  17.814  0.00  0.00    +0.000 A 
ATOM      3  N   UNL     1       2.441   3.449  16.893  0.00  0.00    +0.000 NA
ATOM      4  N   UNL     1       3.506   3.065  17.631  0.00  0.00    +0.000 N 
ATOM      5  C   UNL     1       3.265   3.128  18.970  0.00  0.00    +0.000 A 
ENDROOT
BRANCH   1   7
ATOM      6  N   UNL     1       1.949   5.518  20.852  0.00  0.00    +0.000 N 
ATOM      7  C   UNL     1       1.505   4.309  20.363  0.00  0.00    +0.000 C 
ATOM      8  O   UNL     1       0.637   3.688  20.973  0.00  0.00    +0.000 OA
ATOM      9  H   UNL     1       1.580   5.758  21.764  0.00  0.00    +0.000 HD
BRANCH   6  10
ATOM     10  C   UNL     1       2.894   6.412  20.219  0.00  0.00    +0.000 C 
BRANCH  10  18
ATOM     11  C   UNL     1       3.408   7.112  17.348  0.00  0.00    +0.000 C 
ATOM     12  C   UNL     1       2.504   7.932  18.224  0.00  0.00    +0.000 A 
ATOM     13  C   UNL     1       1.782   8.985  17.655  0.00  0.00    +0.000 A 
ATOM     14  C   UNL     1       0.894   9.708  18.435  0.00  0.00    +0.000 A 
ATOM     15  N   UNL     1       0.693   9.446  19.730  0.00  0.00    +0.000 NA
ATOM     16  C   UNL     1       1.384   8.428  20.300  0.00  0.00    +0.000 A 
ATOM     17  C   UNL     1       1.028   8.145  21.737  0.00  0.00    +0.000 C 
ATOM     18  C   UNL     1       2.294   7.632  19.581  0.00  0.00    +0.000 A 
BRANCH  14  19
ATOM     19  N   UNL     1       0.117  10.715  17.883  0.00  0.00    +0.000 N 
ATOM     20  H   UNL     1      -0.624  10.995  18.513  0.00  0.00    +0.000 HD
ATOM     21  H   UNL     1      -0.252  10.353  17.005  0.00  0.00    +0.000 HD
ENDBRANCH  14  19
ENDBRANCH  10  18
ENDBRANCH   6  10
ENDBRANCH   1   7
BRANCH   4  22
ATOM     22  C   UNL     1       4.728   2.541  17.034  0.00  0.00    +0.000 C 
BRANCH  22  23
ATOM     23  C   UNL     1       5.480   3.591  16.262  0.00  0.00    +0.000 A 
ATOM     24  C   UNL     1       5.375   3.499  14.845  0.00  0.00    +0.000 A 
ATOM     25  C   UNL     1       6.018   4.378  14.000  0.00  0.00    +0.000 A 
ATOM     26  C   UNL     1       6.783   5.375  14.574  0.00  0.00    +0.000 A 
ATOM     27  C   UNL     1       6.893   5.506  15.978  0.00  0.00    +0.000 A 
ATOM     28  C   UNL     1       6.267   4.621  16.860  0.00  0.00    +0.000 A 
ATOM     29  O   UNL     1       6.249   4.600  18.225  0.00  0.00    +0.000 OA
ATOM     30  C   UNL     1       6.963   5.301  19.262  0.00  0.00    +0.000 C 
ATOM     31  C   UNL     1       7.740   6.573  19.025  0.00  0.00    +0.000 C 
ATOM     32  C   UNL     1       7.777   7.035  17.580  0.00  0.00    +0.000 C 
ATOM     33  O   UNL     1       7.661   6.595  16.239  0.00  0.00    +0.000 OA
ENDBRANCH  22  23
ENDBRANCH   4  22
TORSDOF 6
ENDMDL
MODEL 4
REMARK VINA RESULT:      -8.2      4.035      9.252
REMARK  Name = 
REMARK  8 active torsions:
REMARK  status: ('A' for Active; 'I' for Inactive)
REMARK    1  A    between atoms: C_1  and  C_2
REMARK    2  A    between atoms: C_4  and  N_5
REMARK    3  A    between atoms: C_7  and  C_8
REMARK    4  A    between atoms: C_9  and  C_10
REMARK    5  A    between atoms: C_10  and  N_11
REMARK    6  A    between atoms: C_12  and  C_14
REMARK    7  A    between atoms: N_17  and  C_18
REMARK    8  A    between atoms: C_18  and  C_19
REMARK                            x       y       z     vdW  Elec       q    Type
REMARK                         _______ _______ _______ _____ _____    ______ ____
ROOT
ATOM      1  C   UNL     1       2.879   3.694  20.280  0.00  0.00    +0.000 A 
ATOM      2  C   UNL     1       1.491   3.464  20.165  0.00  0.00    +0.000 A 
ATOM      3  N   UNL     1       0.758   4.561  20.430  0.00  0.00    +0.000 NA
ATOM      4  N   UNL     1       1.691   5.493  20.731  0.00  0.00    +0.000 N 
ATOM      5  C   UNL     1       2.960   5.053  20.503  0.00  0.00    +0.000 A 
ENDROOT
BRANCH   1   7
ATOM      6  N   UNL     1       5.116   3.139  19.532  0.00  0.00    +0.000 N 
ATOM      7  C   UNL     1       3.969   2.748  20.186  0.00  0.00    +0.000 C 
ATOM      8  O   UNL     1       3.900   1.621  20.674  0.00  0.00    +0.000 OA
ATOM      9  H   UNL     1       5.800   2.400  19.416  0.00  0.00    +0.000 HD
BRANCH   6  10
ATOM     10  C   UNL     1       5.394   4.446  18.980  0.00  0.00    +0.000 C 
BRANCH  10  18
ATOM     11  C   UNL     1       3.465   4.134  16.704  0.00  0.00    +0.000 C 
ATOM     12  C   UNL     1       4.936   4.351  16.485  0.00  0.00    +0.000 A 
ATOM     13  C   UNL     1       5.407   4.538  15.182  0.00  0.00    +0.000 A 
ATOM     14  C   UNL     1       6.749   4.806  14.970  0.00  0.00    +0.000 A 
ATOM     15  N   UNL     1       7.634   4.893  15.968  0.00  0.00    +0.000 NA
ATOM     16  C   UNL     1       7.196   4.717  17.240  0.00  0.00    +0.000 A 
ATOM     17  C   UNL     1       8.241   4.923  18.306  0.00  0.00    +0.000 C 
ATOM     18  C   UNL     1       5.849   4.455  17.549  0.00  0.00    +0.000 A 
BRANCH  14  19
ATOM     19  N   UNL     1       7.233   5.059  13.695  0.00  0.00    +0.000 N 
ATOM     20  H   UNL     1       6.621   5.686  13.188  0.00  0.00    +0.000 HD
ATOM     21  H   UNL     1       7.318   4.157  13.230  0.00  0.00    +0.000 HD
ENDBRANCH  14  19
ENDBRANCH  10  18
ENDBRANCH   6  10
ENDBRANCH   1   7
BRANCH   4  22
ATOM     22  C   UNL     1       1.346   6.845  21.146  0.00  0.00    +0.000 C 
BRANCH  22  23
ATOM     23  C   UNL     1       1.509   7.842  20.031  0.00  0.00    +0.000 A 
ATOM     24  C   UNL     1       2.301   7.405  18.932  0.00  0.00    +0.000 A 
ATOM     25  C   UNL     1       2.555   8.208  17.840  0.00  0.00    +0.000 A 
ATOM     26  C   UNL     1       2.007   9.476  17.837  0.00  0.00    +0.000 A 
ATOM     27  C   UNL     1       1.199   9.935  18.903  0.00  0.00    +0.000 A 
ATOM     28  C   UNL     1       0.937   9.151  20.030  0.00  0.00    +0.000 A 
ATOM     29  O   UNL     1       0.180   9.417  21.135  0.00  0.00    +0.000 OA
ATOM     30  C   UNL     1      -0.465  10.591  21.666  0.00  0.00    +0.000 C 
ATOM     31  C   UNL     1      -0.729  11.836  20.854  0.00  0.00    +0.000 C 
ATOM     32  C   UNL     1      -0.197  11.793  19.434  0.00  0.00    +0.000 C 
ATOM     33  O   UNL     1       0.769  11.186  18.596  0.00  0.00    +0.000 OA
ENDBRANCH  22  23
ENDBRANCH   4  22
TORSDOF 6
ENDMDL
MODEL 5
REMARK VINA RESULT:      -8.2      3.650      5.750
REMARK  Name = 
REMARK  8 active torsions:
REMARK  status: ('A' for Active; 'I' for Inactive)
REMARK    1  A    between atoms: C_1  and  C_2
REMARK    2  A    between atoms: C_4  and  N_5
REMARK    3  A    between atoms: C_7  and  C_8
REMARK    4  A    between atoms: C_9  and  C_10
REMARK    5  A    between atoms: C_10  and  N_11
REMARK    6  A    between atoms: C_12  and  C_14
REMARK    7  A    between atoms: N_17  and  C_18
REMARK    8  A    between atoms: C_18  and  C_19
REMARK                            x       y       z     vdW  Elec       q    Type
REMARK                         _______ _______ _______ _____ _____    ______ ____
ROOT
ATOM      1  C   UNL     1       2.055   3.904  19.074  0.00  0.00    +0.000 A 
ATOM      2  C   UNL     1       1.577   4.061  17.755  0.00  0.00    +0.000 A 
ATOM      3  N   UNL     1       2.430   3.578  16.833  0.00  0.00    +0.000 NA
ATOM      4  N   UNL     1       3.465   3.124  17.574  0.00  0.00    +0.000 N 
ATOM      5  C   UNL     1       3.208   3.164  18.911  0.00  0.00    +0.000 A 
ENDROOT
BRANCH   1   7
ATOM      6  N   UNL     1       1.874   5.634  20.763  0.00  0.00    +0.000 N 
ATOM      7  C   UNL     1       1.486   4.391  20.312  0.00  0.00    +0.000 C 
ATOM      8  O   UNL     1       0.671   3.735  20.960  0.00  0.00    +0.000 OA
ATOM      9  H   UNL     1       1.516   5.873  21.680  0.00  0.00    +0.000 HD
BRANCH   6  10
ATOM     10  C   UNL     1       2.748   6.564  20.085  0.00  0.00    +0.000 C 
BRANCH  10  18
ATOM     11  C   UNL     1       0.978   8.273  21.801  0.00  0.00    +0.000 C 
ATOM     12  C   UNL     1       1.287   8.620  20.372  0.00  0.00    +0.000 A 
ATOM     13  C   UNL     1       0.839   9.841  19.859  0.00  0.00    +0.000 A 
ATOM     14  C   UNL     1       1.173  10.205  18.565  0.00  0.00    +0.000 A 
ATOM     15  N   UNL     1       1.914   9.431  17.766  0.00  0.00    +0.000 NA
ATOM     16  C   UNL     1       2.361   8.244  18.247  0.00  0.00    +0.000 A 
ATOM     17  C   UNL     1       3.263   7.479  17.313  0.00  0.00    +0.000 C 
ATOM     18  C   UNL     1       2.082   7.800  19.552  0.00  0.00    +0.000 A 
BRANCH  14  19
ATOM     19  N   UNL     1       0.796  11.437  18.051  0.00  0.00    +0.000 N 
ATOM     20  H   UNL     1       0.133  11.901  18.659  0.00  0.00    +0.000 HD
ATOM     21  H   UNL     1       0.404  11.262  17.128  0.00  0.00    +0.000 HD
ENDBRANCH  14  19
ENDBRANCH  10  18
ENDBRANCH   6  10
ENDBRANCH   1   7
BRANCH   4  22
ATOM     22  C   UNL     1       4.669   2.559  16.980  0.00  0.00    +0.000 C 
BRANCH  22  23
ATOM     23  C   UNL     1       5.461   3.583  16.214  0.00  0.00    +0.000 A 
ATOM     24  C   UNL     1       5.401   3.467  14.796  0.00  0.00    +0.000 A 
ATOM     25  C   UNL     1       6.083   4.320  13.956  0.00  0.00    +0.000 A 
ATOM     26  C   UNL     1       6.844   5.317  14.537  0.00  0.00    +0.000 A 
ATOM     27  C   UNL     1       6.911   5.473  15.941  0.00  0.00    +0.000 A 
ATOM     28  C   UNL     1       6.243   4.614  16.818  0.00  0.00    +0.000 A 
ATOM     29  O   UNL     1       6.181   4.618  18.182  0.00  0.00    +0.000 OA
ATOM     30  C   UNL     1       6.872   5.329  19.228  0.00  0.00    +0.000 C 
ATOM     31  C   UNL     1       7.673   6.585  18.993  0.00  0.00    +0.000 C 
ATOM     32  C   UNL     1       7.764   7.019  17.543  0.00  0.00    +0.000 C 
ATOM     33  O   UNL     1       7.686   6.555  16.207  0.00  0.00    +0.000 OA
ENDBRANCH  22  23
ENDBRANCH   4  22
TORSDOF 6
ENDMDL
MODEL 6
REMARK VINA RESULT:      -8.2      0.590      1.604
REMARK  Name = 
REMARK  8 active torsions:
REMARK  status: ('A' for Active; 'I' for Inactive)
REMARK    1  A    between atoms: C_1  and  C_2
REMARK    2  A    between atoms: C_4  and  N_5
REMARK    3  A    between atoms: C_7  and  C_8
REMARK    4  A    between atoms: C_9  and  C_10
REMARK    5  A    between atoms: C_10  and  N_11
REMARK    6  A    between atoms: C_12  and  C_14
REMARK    7  A    between atoms: N_17  and  C_18
REMARK    8  A    between atoms: C_18  and  C_19
REMARK                            x       y       z     vdW  Elec       q    Type
REMARK                         _______ _______ _______ _____ _____    ______ ____
ROOT
ATOM      1  C   UNL     1       1.396   9.772  18.701  0.00  0.00    +0.000 A 
ATOM      2  C   UNL     1       1.970   9.206  17.542  0.00  0.00    +0.000 A 
ATOM      3  N   UNL     1       2.484   7.981  17.762  0.00  0.00    +0.000 NA
ATOM      4  N   UNL     1       2.248   7.776  19.077  0.00  0.00    +0.000 N 
ATOM      5  C   UNL     1       1.471   8.751  19.627  0.00  0.00    +0.000 A 
ENDROOT
BRANCH   1   7
ATOM      6  N   UNL     1      -0.415  11.358  18.418  0.00  0.00    +0.000 N 
ATOM      7  C   UNL     1       0.853  11.099  18.892  0.00  0.00    +0.000 C 
ATOM      8  O   UNL     1       1.482  11.987  19.466  0.00  0.00    +0.000 OA
ATOM      9  H   UNL     1      -0.697  12.328  18.496  0.00  0.00    +0.000 HD
BRANCH   6  10
ATOM     10  C   UNL     1      -1.318  10.411  17.803  0.00  0.00    +0.000 C 
BRANCH  10  18
ATOM     11  C   UNL     1      -2.644  11.995  19.978  0.00  0.00    +0.000 C 
ATOM     12  C   UNL     1      -3.350  11.640  18.699  0.00  0.00    +0.000 A 
ATOM     13  C   UNL     1      -4.622  12.168  18.458  0.00  0.00    +0.000 A 
ATOM     14  C   UNL     1      -5.257  11.905  17.255  0.00  0.00    +0.000 A 
ATOM     15  N   UNL     1      -4.704  11.154  16.297  0.00  0.00    +0.000 NA
ATOM     16  C   UNL     1      -3.469  10.636  16.511  0.00  0.00    +0.000 A 
ATOM     17  C   UNL     1      -2.886   9.881  15.345  0.00  0.00    +0.000 C 
ATOM     18  C   UNL     1      -2.746  10.862  17.696  0.00  0.00    +0.000 A 
BRANCH  14  19
ATOM     19  N   UNL     1      -6.490  12.467  16.963  0.00  0.00    +0.000 N 
ATOM     20  H   UNL     1      -6.528  12.791  16.004  0.00  0.00    +0.000 HD
ATOM     21  H   UNL     1      -6.630  13.228  17.624  0.00  0.00    +0.000 HD
ENDBRANCH  14  19
ENDBRANCH  10  18
ENDBRANCH   6  10
ENDBRANCH   1   7
BRANCH   4  22
ATOM     22  C   UNL     1       2.694   6.581  19.779  0.00  0.00    +0.000 C 
BRANCH  22  23
ATOM     23  C   UNL     1       2.850   5.403  18.856  0.00  0.00    +0.000 A 
ATOM     24  C   UNL     1       1.686   4.601  18.687  0.00  0.00    +0.000 A 
ATOM     25  C   UNL     1       1.672   3.481  17.885  0.00  0.00    +0.000 A 
ATOM     26  C   UNL     1       2.843   3.146  17.231  0.00  0.00    +0.000 A 
ATOM     27  C   UNL     1       4.012   3.931  17.362  0.00  0.00    +0.000 A 
ATOM     28  C   UNL     1       4.061   5.064  18.180  0.00  0.00    +0.000 A 
ATOM     29  O   UNL     1       5.082   5.940  18.415  0.00  0.00    +0.000 OA
ATOM     30  C   UNL     1       6.489   5.968  18.104  0.00  0.00    +0.000 C 
ATOM     31  C   UNL     1       7.129   5.085  17.061  0.00  0.00    +0.000 C 
ATOM     32  C   UNL     1       6.188   4.097  16.400  0.00  0.00    +0.000 C 
ATOM     33  O   UNL     1       4.973   3.388  16.572  0.00  0.00    +0.000 OA
ENDBRANCH  22  23
ENDBRANCH   4  22
TORSDOF 6
ENDMDL
MODEL 7
REMARK VINA RESULT:      -8.1      3.615      5.720
REMARK  Name = 
REMARK  8 active torsions:
REMARK  status: ('A' for Active; 'I' for Inactive)
REMARK    1  A    between atoms: C_1  and  C_2
REMARK    2  A    between atoms: C_4  and  N_5
REMARK    3  A    between atoms: C_7  and  C_8
REMARK    4  A    between atoms: C_9  and  C_10
REMARK    5  A    between atoms: C_10  and  N_11
REMARK    6  A    between atoms: C_12  and  C_14
REMARK    7  A    between atoms: N_17  and  C_18
REMARK    8  A    between atoms: C_18  and  C_19
REMARK                            x       y       z     vdW  Elec       q    Type
REMARK                         _______ _______ _______ _____ _____    ______ ____
ROOT
ATOM      1  C   UNL     1       1.979   3.972  19.031  0.00  0.00    +0.000 A 
ATOM      2  C   UNL     1       1.393   4.120  17.755  0.00  0.00    +0.000 A 
ATOM      3  N   UNL     1       2.198   3.699  16.762  0.00  0.00    +0.000 NA
ATOM      4  N   UNL     1       3.311   3.294  17.414  0.00  0.00    +0.000 N 
ATOM      5  C   UNL     1       3.155   3.301  18.767  0.00  0.00    +0.000 A 
ENDROOT
BRANCH   1   7
ATOM      6  N   UNL     1       1.961   5.592  20.834  0.00  0.00    +0.000 N 
ATOM      7  C   UNL     1       1.481   4.409  20.317  0.00  0.00    +0.000 C 
ATOM      8  O   UNL     1       0.646   3.763  20.948  0.00  0.00    +0.000 OA
ATOM      9  H   UNL     1       1.648   5.791  21.777  0.00  0.00    +0.000 HD
BRANCH   6  10
ATOM     10  C   UNL     1       2.873   6.510  20.189  0.00  0.00    +0.000 C 
BRANCH  10  18
ATOM     11  C   UNL     1       3.303   7.221  17.306  0.00  0.00    +0.000 C 
ATOM     12  C   UNL     1       2.405   8.023  18.205  0.00  0.00    +0.000 A 
ATOM     13  C   UNL     1       1.647   9.061  17.654  0.00  0.00    +0.000 A 
ATOM     14  C   UNL     1       0.765   9.766  18.456  0.00  0.00    +0.000 A 
ATOM     15  N   UNL     1       0.601   9.500  19.756  0.00  0.00    +0.000 NA
ATOM     16  C   UNL     1       1.325   8.495  20.308  0.00  0.00    +0.000 A 
ATOM     17  C   UNL     1       1.012   8.205  21.753  0.00  0.00    +0.000 C 
ATOM     18  C   UNL     1       2.234   7.718  19.567  0.00  0.00    +0.000 A 
BRANCH  14  19
ATOM     19  N   UNL     1      -0.046  10.757  17.924  0.00  0.00    +0.000 N 
ATOM     20  H   UNL     1      -1.018  10.476  17.925  0.00  0.00    +0.000 HD
ATOM     21  H   UNL     1       0.294  10.939  16.982  0.00  0.00    +0.000 HD
ENDBRANCH  14  19
ENDBRANCH  10  18
ENDBRANCH   6  10
ENDBRANCH   1   7
BRANCH   4  22
ATOM     22  C   UNL     1       4.495   2.806  16.720  0.00  0.00    +0.000 C 
BRANCH  22  23
ATOM     23  C   UNL     1       5.536   3.878  16.547  0.00  0.00    +0.000 A 
ATOM     24  C   UNL     1       5.879   4.593  17.730  0.00  0.00    +0.000 A 
ATOM     25  C   UNL     1       6.805   5.613  17.733  0.00  0.00    +0.000 A 
ATOM     26  C   UNL     1       7.409   5.933  16.532  0.00  0.00    +0.000 A 
ATOM     27  C   UNL     1       7.106   5.231  15.342  0.00  0.00    +0.000 A 
ATOM     28  C   UNL     1       6.161   4.203  15.305  0.00  0.00    +0.000 A 
ATOM     29  O   UNL     1       5.753   3.415  14.266  0.00  0.00    +0.000 OA
ATOM     30  C   UNL     1       5.959   3.427  12.840  0.00  0.00    +0.000 C 
ATOM     31  C   UNL     1       7.050   4.219  12.162  0.00  0.00    +0.000 C 
ATOM     32  C   UNL     1       7.887   5.074  13.095  0.00  0.00    +0.000 C 
ATOM     33  O   UNL     1       7.885   5.732  14.349  0.00  0.00    +0.000 OA
ENDBRANCH  22  23
ENDBRANCH   4  22
TORSDOF 6
ENDMDL
MODEL 8
REMARK VINA RESULT:      -8.1      3.713      5.990
REMARK  Name = 
REMARK  8 active torsions:
REMARK  status: ('A' for Active; 'I' for Inactive)
REMARK    1  A    between atoms: C_1  and  C_2
REMARK    2  A    between atoms: C_4  and  N_5
REMARK    3  A    between atoms: C_7  and  C_8
REMARK    4  A    between atoms: C_9  and  C_10
REMARK    5  A    between atoms: C_10  and  N_11
REMARK    6  A    between atoms: C_12  and  C_14
REMARK    7  A    between atoms: N_17  and  C_18
REMARK    8  A    between atoms: C_18  and  C_19
REMARK                            x       y       z     vdW  Elec       q    Type
REMARK                         _______ _______ _______ _____ _____    ______ ____
ROOT
ATOM      1  C   UNL     1       2.069   3.891  19.094  0.00  0.00    +0.000 A 
ATOM      2  C   UNL     1       1.413   4.048  17.854  0.00  0.00    +0.000 A 
ATOM      3  N   UNL     1       2.166   3.649  16.812  0.00  0.00    +0.000 NA
ATOM      4  N   UNL     1       3.318   3.250  17.397  0.00  0.00    +0.000 N 
ATOM      5  C   UNL     1       3.237   3.237  18.757  0.00  0.00    +0.000 A 
ENDROOT
BRANCH   1   7
ATOM      6  N   UNL     1       2.079   5.519  20.889  0.00  0.00    +0.000 N 
ATOM      7  C   UNL     1       1.638   4.305  20.411  0.00  0.00    +0.000 C 
ATOM      8  O   UNL     1       0.891   3.613  21.102  0.00  0.00    +0.000 OA
ATOM      9  H   UNL     1       1.821   5.704  21.851  0.00  0.00    +0.000 HD
BRANCH   6  10
ATOM     10  C   UNL     1       2.883   6.487  20.178  0.00  0.00    +0.000 C 
BRANCH  10  18
ATOM     11  C   UNL     1       1.036   8.146  21.861  0.00  0.00    +0.000 C 
ATOM     12  C   UNL     1       1.297   8.456  20.414  0.00  0.00    +0.000 A 
ATOM     13  C   UNL     1       0.763   9.624  19.864  0.00  0.00    +0.000 A 
ATOM     14  C   UNL     1       1.050   9.957  18.550  0.00  0.00    +0.000 A 
ATOM     15  N   UNL     1       1.826   9.200  17.767  0.00  0.00    +0.000 NA
ATOM     16  C   UNL     1       2.356   8.064  18.284  0.00  0.00    +0.000 A 
ATOM     17  C   UNL     1       3.290   7.322  17.363  0.00  0.00    +0.000 C 
ATOM     18  C   UNL     1       2.129   7.656  19.612  0.00  0.00    +0.000 A 
BRANCH  14  19
ATOM     19  N   UNL     1       0.587  11.141  17.997  0.00  0.00    +0.000 N 
ATOM     20  H   UNL     1      -0.133  11.558  18.574  0.00  0.00    +0.000 HD
ATOM     21  H   UNL     1       0.240  10.914  17.067  0.00  0.00    +0.000 HD
ENDBRANCH  14  19
ENDBRANCH  10  18
ENDBRANCH   6  10
ENDBRANCH   1   7
BRANCH   4  22
ATOM     22  C   UNL     1       4.468   2.785  16.633  0.00  0.00    +0.000 C 
BRANCH  22  23
ATOM     23  C   UNL     1       5.513   3.855  16.470  0.00  0.00    +0.000 A 
ATOM     24  C   UNL     1       5.851   4.565  17.657  0.00  0.00    +0.000 A 
ATOM     25  C   UNL     1       6.780   5.583  17.668  0.00  0.00    +0.000 A 
ATOM     26  C   UNL     1       7.392   5.905  16.472  0.00  0.00    +0.000 A 
ATOM     27  C   UNL     1       7.094   5.207  15.278  0.00  0.00    +0.000 A 
ATOM     28  C   UNL     1       6.146   4.181  15.232  0.00  0.00    +0.000 A 
ATOM     29  O   UNL     1       5.743   3.397  14.189  0.00  0.00    +0.000 OA
ATOM     30  C   UNL     1       5.958   3.413  12.764  0.00  0.00    +0.000 C 
ATOM     31  C   UNL     1       7.056   4.204  12.095  0.00  0.00    +0.000 C 
ATOM     32  C   UNL     1       7.889   5.054  13.035  0.00  0.00    +0.000 C 
ATOM     33  O   UNL     1       7.880   5.708  14.292  0.00  0.00    +0.000 OA
ENDBRANCH  22  23
ENDBRANCH   4  22
TORSDOF 6
ENDMDL
MODEL 9
REMARK VINA RESULT:      -8.0      1.188      1.520
REMARK  Name = 
REMARK  8 active torsions:
REMARK  status: ('A' for Active; 'I' for Inactive)
REMARK    1  A    between atoms: C_1  and  C_2
REMARK    2  A    between atoms: C_4  and  N_5
REMARK    3  A    between atoms: C_7  and  C_8
REMARK    4  A    between atoms: C_9  and  C_10
REMARK    5  A    between atoms: C_10  and  N_11
REMARK    6  A    between atoms: C_12  and  C_14
REMARK    7  A    between atoms: N_17  and  C_18
REMARK    8  A    between atoms: C_18  and  C_19
REMARK                            x       y       z     vdW  Elec       q    Type
REMARK                         _______ _______ _______ _____ _____    ______ ____
ROOT
ATOM      1  C   UNL     1       1.593   9.580  18.692  0.00  0.00    +0.000 A 
ATOM      2  C   UNL     1       1.670   8.845  19.895  0.00  0.00    +0.000 A 
ATOM      3  N   UNL     1       1.880   7.532  19.689  0.00  0.00    +0.000 NA
ATOM      4  N   UNL     1       1.921   7.432  18.341  0.00  0.00    +0.000 N 
ATOM      5  C   UNL     1       1.907   8.647  17.726  0.00  0.00    +0.000 A 
ENDROOT
BRANCH   1   7
ATOM      6  N   UNL     1      -0.061  11.330  18.406  0.00  0.00    +0.000 N 
ATOM      7  C   UNL     1       1.268  10.977  18.499  0.00  0.00    +0.000 C 
ATOM      8  O   UNL     1       2.135  11.846  18.423  0.00  0.00    +0.000 OA
ATOM      9  H   UNL     1      -0.216  12.303  18.174  0.00  0.00    +0.000 HD
BRANCH   6  10
ATOM     10  C   UNL     1      -1.200  10.454  18.561  0.00  0.00    +0.000 C 
BRANCH  10  18
ATOM     11  C   UNL     1      -2.328   9.657  15.898  0.00  0.00    +0.000 C 
ATOM     12  C   UNL     1      -3.049  10.593  16.826  0.00  0.00    +0.000 A 
ATOM     13  C   UNL     1      -4.342  11.011  16.499  0.00  0.00    +0.000 A 
ATOM     14  C   UNL     1      -5.045  11.820  17.377  0.00  0.00    +0.000 A 
ATOM     15  N   UNL     1      -4.537  12.231  18.543  0.00  0.00    +0.000 NA
ATOM     16  C   UNL     1      -3.285  11.834  18.880  0.00  0.00    +0.000 A 
ATOM     17  C   UNL     1      -2.828  12.267  20.249  0.00  0.00    +0.000 C 
ATOM     18  C   UNL     1      -2.504  11.002  18.056  0.00  0.00    +0.000 A 
BRANCH  14  19
ATOM     19  N   UNL     1      -6.352  12.197  17.108  0.00  0.00    +0.000 N 
ATOM     20  H   UNL     1      -6.473  13.197  17.208  0.00  0.00    +0.000 HD
ATOM     21  H   UNL     1      -6.945  11.679  17.753  0.00  0.00    +0.000 HD
ENDBRANCH  14  19
ENDBRANCH  10  18
ENDBRANCH   6  10
ENDBRANCH   1   7
BRANCH   4  22
ATOM     22  C   UNL     1       2.075   6.158  17.652  0.00  0.00    +0.000 C 
BRANCH  22  23
ATOM     23  C   UNL     1       3.082   5.264  18.324  0.00  0.00    +0.000 A 
ATOM     24  C   UNL     1       2.535   4.183  19.072  0.00  0.00    +0.000 A 
ATOM     25  C   UNL     1       3.326   3.286  19.757  0.00  0.00    +0.000 A 
ATOM     26  C   UNL     1       4.695   3.463  19.697  0.00  0.00    +0.000 A 
ATOM     27  C   UNL     1       5.272   4.515  18.948  0.00  0.00    +0.000 A 
ATOM     28  C   UNL     1       4.496   5.449  18.256  0.00  0.00    +0.000 A 
ATOM     29  O   UNL     1       4.871   6.508  17.480  0.00  0.00    +0.000 OA
ATOM     30  C   UNL     1       6.117   7.182  17.215  0.00  0.00    +0.000 C 
ATOM     31  C   UNL     1       7.469   6.591  17.533  0.00  0.00    +0.000 C 
ATOM     32  C   UNL     1       7.425   5.244  18.228  0.00  0.00    +0.000 C 
ATOM     33  O   UNL     1       6.622   4.403  19.037  0.00  0.00    +0.000 OA
ENDBRANCH  22  23
ENDBRANCH   4  22
TORSDOF 6
ENDMDL
