MODEL 1
REMARK VINA RESULT:      -6.2      0.000      0.000
REMARK  Name = 
REMARK  16 active torsions:
REMARK  status: ('A' for Active; 'I' for Inactive)
REMARK    1  A    between atoms: C_1  and  C_2
REMARK    2  A    between atoms: C_2  and  C_3
REMARK    3  A    between atoms: C_3  and  C_4
REMARK    4  A    between atoms: C_4  and  C_5
REMARK    5  A    between atoms: C_5  and  C_6
REMARK    6  A    between atoms: C_7  and  C_8
REMARK    7  A    between atoms: C_8  and  C_9
REMARK    8  A    between atoms: C_10  and  C_11
REMARK    9  A    between atoms: C_13  and  C_14
REMARK   10  A    between atoms: C_15  and  C_16
REMARK   11  A    between atoms: C_16  and  C_17
REMARK   12  A    between atoms: C_18  and  C_19
REMARK   13  A    between atoms: C_19  and  C_20
REMARK   14  A    between atoms: C_20  and  C_21
REMARK   15  A    between atoms: C_21  and  C_22
REMARK   16  A    between atoms: C_22  and  O_24
REMARK                            x       y       z     vdW  Elec       q    Type
REMARK                         _______ _______ _______ _____ _____    ______ ____
ROOT
ATOM      1  C   UNL     1       2.230   3.212  18.341  0.00  0.00    +0.000 C 
ATOM      2  C   UNL     1       2.652   2.199  17.321  0.00  0.00    +0.000 C 
ATOM      3  C   UNL     1       3.691   2.826  18.212  0.00  0.00    +0.000 C 
ENDROOT
BRANCH   1   5
ATOM      4  C   UNL     1       0.935   3.614  20.436  0.00  0.00    +0.000 C 
ATOM      5  C   UNL     1       1.519   2.787  19.550  0.00  0.00    +0.000 C 
BRANCH   4   6
ATOM      6  C   UNL     1       0.945   5.106  20.285  0.00  0.00    +0.000 C 
BRANCH   6   8
ATOM      7  C   UNL     1       2.948   6.496  19.657  0.00  0.00    +0.000 C 
ATOM      8  C   UNL     1       2.300   5.707  20.533  0.00  0.00    +0.000 C 
BRANCH   7   9
ATOM      9  C   UNL     1       2.391   6.835  18.305  0.00  0.00    +0.000 C 
BRANCH   9  10
ATOM     10  C   UNL     1       2.586   8.294  17.908  0.00  0.00    +0.000 C 
BRANCH  10  11
ATOM     11  C   UNL     1       1.249   9.035  17.986  0.00  0.00    +0.000 C 
BRANCH  11  13
ATOM     12  C   UNL     1      -0.264  10.164  19.644  0.00  0.00    +0.000 C 
ATOM     13  C   UNL     1       1.176   9.913  19.231  0.00  0.00    +0.000 C 
ENDBRANCH  11  13
ENDBRANCH  10  11
ENDBRANCH   9  10
ENDBRANCH   7   9
ENDBRANCH   6   8
ENDBRANCH   4   6
ENDBRANCH   1   5
BRANCH   3  14
ATOM     14  C   UNL     1       4.609   3.841  17.687  0.00  0.00    +0.000 C 
ATOM     15  C   UNL     1       5.694   4.321  18.312  0.00  0.00    +0.000 C 
BRANCH  15  16
ATOM     16  C   UNL     1       6.664   5.250  17.659  0.00  0.00    +0.000 C 
BRANCH  16  17
ATOM     17  C   UNL     1       7.592   5.874  18.660  0.00  0.00    +0.000 C 
ATOM     18  C   UNL     1       8.083   7.122  18.588  0.00  0.00    +0.000 C 
BRANCH  18  19
ATOM     19  C   UNL     1       7.791   8.109  17.491  0.00  0.00    +0.000 C 
BRANCH  19  20
ATOM     20  C   UNL     1       8.023   9.554  17.939  0.00  0.00    +0.000 C 
BRANCH  20  21
ATOM     21  C   UNL     1       9.179   9.668  18.932  0.00  0.00    +0.000 C 
BRANCH  21  22
ATOM     22  C   UNL     1       9.709  11.082  19.030  0.00  0.00    +0.000 C 
ATOM     23  O   UNL     1       9.239  11.962  19.725  0.00  0.00    +0.000 OA
BRANCH  22  24
ATOM     24  O   UNL     1      10.790  11.268  18.246  0.00  0.00    +0.000 OA
ATOM     25  H   UNL     1      11.452  11.879  18.616  0.00  0.00    +0.000 HD
ENDBRANCH  22  24
ENDBRANCH  21  22
ENDBRANCH  20  21
ENDBRANCH  19  20
ENDBRANCH  18  19
ENDBRANCH  16  17
ENDBRANCH  15  16
ENDBRANCH   3  14
TORSDOF 15
ENDMDL
MODEL 2
REMARK VINA RESULT:      -6.2      2.067      4.926
REMARK  Name = 
REMARK  16 active torsions:
REMARK  status: ('A' for Active; 'I' for Inactive)
REMARK    1  A    between atoms: C_1  and  C_2
REMARK    2  A    between atoms: C_2  and  C_3
REMARK    3  A    between atoms: C_3  and  C_4
REMARK    4  A    between atoms: C_4  and  C_5
REMARK    5  A    between atoms: C_5  and  C_6
REMARK    6  A    between atoms: C_7  and  C_8
REMARK    7  A    between atoms: C_8  and  C_9
REMARK    8  A    between atoms: C_10  and  C_11
REMARK    9  A    between atoms: C_13  and  C_14
REMARK   10  A    between atoms: C_15  and  C_16
REMARK   11  A    between atoms: C_16  and  C_17
REMARK   12  A    between atoms: C_18  and  C_19
REMARK   13  A    between atoms: C_19  and  C_20
REMARK   14  A    between atoms: C_20  and  C_21
REMARK   15  A    between atoms: C_21  and  C_22
REMARK   16  A    between atoms: C_22  and  O_24
REMARK                            x       y       z     vdW  Elec       q    Type
REMARK                         _______ _______ _______ _____ _____    ______ ____
ROOT
ATOM      1  C   UNL     1       6.249   6.240  17.956  0.00  0.00    +0.000 C 
ATOM      2  C   UNL     1       7.098   5.983  16.747  0.00  0.00    +0.000 C 
ATOM      3  C   UNL     1       7.633   6.853  17.854  0.00  0.00    +0.000 C 
ENDROOT
BRANCH   1   5
ATOM      4  C   UNL     1       5.195   4.149  18.818  0.00  0.00    +0.000 C 
ATOM      5  C   UNL     1       6.045   5.183  18.950  0.00  0.00    +0.000 C 
BRANCH   4   6
ATOM      6  C   UNL     1       4.335   3.953  17.605  0.00  0.00    +0.000 C 
BRANCH   6   8
ATOM      7  C   UNL     1       2.180   2.741  18.079  0.00  0.00    +0.000 C 
ATOM      8  C   UNL     1       3.470   2.729  17.695  0.00  0.00    +0.000 C 
BRANCH   7   9
ATOM      9  C   UNL     1       1.470   3.996  18.496  0.00  0.00    +0.000 C 
BRANCH   9  10
ATOM     10  C   UNL     1       1.153   4.057  19.986  0.00  0.00    +0.000 C 
BRANCH  10  11
ATOM     11  C   UNL     1       2.129   5.003  20.686  0.00  0.00    +0.000 C 
BRANCH  11  13
ATOM     12  C   UNL     1       1.706   7.470  20.465  0.00  0.00    +0.000 C 
ATOM     13  C   UNL     1       2.380   6.255  19.851  0.00  0.00    +0.000 C 
ENDBRANCH  11  13
ENDBRANCH  10  11
ENDBRANCH   9  10
ENDBRANCH   7   9
ENDBRANCH   6   8
ENDBRANCH   4   6
ENDBRANCH   1   5
BRANCH   3  14
ATOM     14  C   UNL     1       7.712   8.307  17.687  0.00  0.00    +0.000 C 
ATOM     15  C   UNL     1       8.541   9.132  18.343  0.00  0.00    +0.000 C 
BRANCH  15  16
ATOM     16  C   UNL     1       8.666  10.584  18.021  0.00  0.00    +0.000 C 
BRANCH  16  17
ATOM     17  C   UNL     1      10.051  11.094  18.292  0.00  0.00    +0.000 C 
ATOM     18  C   UNL     1      10.529  11.433  19.500  0.00  0.00    +0.000 C 
BRANCH  18  19
ATOM     19  C   UNL     1       9.758  11.365  20.790  0.00  0.00    +0.000 C 
BRANCH  19  20
ATOM     20  C   UNL     1       9.739  12.708  21.523  0.00  0.00    +0.000 C 
BRANCH  20  21
ATOM     21  C   UNL     1       8.552  13.574  21.104  0.00  0.00    +0.000 C 
BRANCH  21  22
ATOM     22  C   UNL     1       7.446  13.564  22.137  0.00  0.00    +0.000 C 
ATOM     23  O   UNL     1       7.113  12.602  22.801  0.00  0.00    +0.000 OA
BRANCH  22  24
ATOM     24  O   UNL     1       6.855  14.771  22.249  0.00  0.00    +0.000 OA
ATOM     25  H   UNL     1       6.787  15.099  23.163  0.00  0.00    +0.000 HD
ENDBRANCH  22  24
ENDBRANCH  21  22
ENDBRANCH  20  21
ENDBRANCH  19  20
ENDBRANCH  18  19
ENDBRANCH  16  17
ENDBRANCH  15  16
ENDBRANCH   3  14
TORSDOF 15
ENDMDL
MODEL 3
REMARK VINA RESULT:      -6.1      3.827      4.932
REMARK  Name = 
REMARK  16 active torsions:
REMARK  status: ('A' for Active; 'I' for Inactive)
REMARK    1  A    between atoms: C_1  and  C_2
REMARK    2  A    between atoms: C_2  and  C_3
REMARK    3  A    between atoms: C_3  and  C_4
REMARK    4  A    between atoms: C_4  and  C_5
REMARK    5  A    between atoms: C_5  and  C_6
REMARK    6  A    between atoms: C_7  and  C_8
REMARK    7  A    between atoms: C_8  and  C_9
REMARK    8  A    between atoms: C_10  and  C_11
REMARK    9  A    between atoms: C_13  and  C_14
REMARK   10  A    between atoms: C_15  and  C_16
REMARK   11  A    between atoms: C_16  and  C_17
REMARK   12  A    between atoms: C_18  and  C_19
REMARK   13  A    between atoms: C_19  and  C_20
REMARK   14  A    between atoms: C_20  and  C_21
REMARK   15  A    between atoms: C_21  and  C_22
REMARK   16  A    between atoms: C_22  and  O_24
REMARK                            x       y       z     vdW  Elec       q    Type
REMARK                         _______ _______ _______ _____ _____    ______ ____
ROOT
ATOM      1  C   UNL     1       3.275   2.430  19.383  0.00  0.00    +0.000 C 
ATOM      2  C   UNL     1       4.462   1.692  19.922  0.00  0.00    +0.000 C 
ATOM      3  C   UNL     1       4.447   3.197  19.963  0.00  0.00    +0.000 C 
ENDROOT
BRANCH   1   5
ATOM      4  C   UNL     1       1.289   3.544  20.406  0.00  0.00    +0.000 C 
ATOM      5  C   UNL     1       2.015   2.445  20.132  0.00  0.00    +0.000 C 
BRANCH   4   6
ATOM      6  C   UNL     1       1.698   4.918  19.966  0.00  0.00    +0.000 C 
BRANCH   6   8
ATOM      7  C   UNL     1       2.169   6.170  17.834  0.00  0.00    +0.000 C 
ATOM      8  C   UNL     1       1.795   5.047  18.473  0.00  0.00    +0.000 C 
BRANCH   7   9
ATOM      9  C   UNL     1       2.501   7.443  18.558  0.00  0.00    +0.000 C 
BRANCH   9  10
ATOM     10  C   UNL     1       2.659   8.649  17.640  0.00  0.00    +0.000 C 
BRANCH  10  11
ATOM     11  C   UNL     1       1.782   9.799  18.140  0.00  0.00    +0.000 C 
BRANCH  11  13
ATOM     12  C   UNL     1      -0.569  10.477  18.710  0.00  0.00    +0.000 C 
ATOM     13  C   UNL     1       0.301   9.482  17.961  0.00  0.00    +0.000 C 
ENDBRANCH  11  13
ENDBRANCH  10  11
ENDBRANCH   9  10
ENDBRANCH   7   9
ENDBRANCH   6   8
ENDBRANCH   4   6
ENDBRANCH   1   5
BRANCH   3  14
ATOM     14  C   UNL     1       5.267   3.976  19.031  0.00  0.00    +0.000 C 
ATOM     15  C   UNL     1       5.663   5.246  19.201  0.00  0.00    +0.000 C 
BRANCH  15  16
ATOM     16  C   UNL     1       6.615   5.932  18.277  0.00  0.00    +0.000 C 
BRANCH  16  17
ATOM     17  C   UNL     1       5.894   6.770  17.263  0.00  0.00    +0.000 C 
ATOM     18  C   UNL     1       5.386   6.319  16.105  0.00  0.00    +0.000 C 
BRANCH  18  19
ATOM     19  C   UNL     1       5.454   4.895  15.621  0.00  0.00    +0.000 C 
BRANCH  19  20
ATOM     20  C   UNL     1       6.213   4.772  14.298  0.00  0.00    +0.000 C 
BRANCH  20  21
ATOM     21  C   UNL     1       5.685   3.624  13.439  0.00  0.00    +0.000 C 
BRANCH  21  22
ATOM     22  C   UNL     1       6.523   3.410  12.197  0.00  0.00    +0.000 C 
ATOM     23  O   UNL     1       7.257   4.236  11.693  0.00  0.00    +0.000 OA
BRANCH  22  24
ATOM     24  O   UNL     1       6.365   2.167  11.696  0.00  0.00    +0.000 OA
ATOM     25  H   UNL     1       6.926   1.493  12.118  0.00  0.00    +0.000 HD
ENDBRANCH  22  24
ENDBRANCH  21  22
ENDBRANCH  20  21
ENDBRANCH  19  20
ENDBRANCH  18  19
ENDBRANCH  16  17
ENDBRANCH  15  16
ENDBRANCH   3  14
TORSDOF 15
ENDMDL
MODEL 4
REMARK VINA RESULT:      -6.0      2.588      3.500
REMARK  Name = 
REMARK  16 active torsions:
REMARK  status: ('A' for Active; 'I' for Inactive)
REMARK    1  A    between atoms: C_1  and  C_2
REMARK    2  A    between atoms: C_2  and  C_3
REMARK    3  A    between atoms: C_3  and  C_4
REMARK    4  A    between atoms: C_4  and  C_5
REMARK    5  A    between atoms: C_5  and  C_6
REMARK    6  A    between atoms: C_7  and  C_8
REMARK    7  A    between atoms: C_8  and  C_9
REMARK    8  A    between atoms: C_10  and  C_11
REMARK    9  A    between atoms: C_13  and  C_14
REMARK   10  A    between atoms: C_15  and  C_16
REMARK   11  A    between atoms: C_16  and  C_17
REMARK   12  A    between atoms: C_18  and  C_19
REMARK   13  A    between atoms: C_19  and  C_20
REMARK   14  A    between atoms: C_20  and  C_21
REMARK   15  A    between atoms: C_21  and  C_22
REMARK   16  A    between atoms: C_22  and  O_24
REMARK                            x       y       z     vdW  Elec       q    Type
REMARK                         _______ _______ _______ _____ _____    ______ ____
ROOT
ATOM      1  C   UNL     1       1.756   3.646  19.217  0.00  0.00    +0.000 C 
ATOM      2  C   UNL     1       1.972   2.206  19.574  0.00  0.00    +0.000 C 
ATOM      3  C   UNL     1       3.164   3.093  19.329  0.00  0.00    +0.000 C 
ENDROOT
BRANCH   1   5
ATOM      4  C   UNL     1       1.777   5.856  20.376  0.00  0.00    +0.000 C 
ATOM      5  C   UNL     1       1.316   4.599  20.239  0.00  0.00    +0.000 C 
BRANCH   4   6
ATOM      6  C   UNL     1       2.823   6.440  19.475  0.00  0.00    +0.000 C 
BRANCH   6   8
ATOM      7  C   UNL     1       1.856   8.178  17.932  0.00  0.00    +0.000 C 
ATOM      8  C   UNL     1       2.264   6.918  18.165  0.00  0.00    +0.000 C 
BRANCH   7   9
ATOM      9  C   UNL     1       1.885   9.248  18.986  0.00  0.00    +0.000 C 
BRANCH   9  10
ATOM     10  C   UNL     1       0.504   9.661  19.481  0.00  0.00    +0.000 C 
BRANCH  10  11
ATOM     11  C   UNL     1       0.624  10.328  20.852  0.00  0.00    +0.000 C 
BRANCH  11  13
ATOM     12  C   UNL     1       0.298   9.400  23.164  0.00  0.00    +0.000 C 
ATOM     13  C   UNL     1      -0.372   9.735  21.843  0.00  0.00    +0.000 C 
ENDBRANCH  11  13
ENDBRANCH  10  11
ENDBRANCH   9  10
ENDBRANCH   7   9
ENDBRANCH   6   8
ENDBRANCH   4   6
ENDBRANCH   1   5
BRANCH   3  14
ATOM     14  C   UNL     1       3.939   2.975  18.091  0.00  0.00    +0.000 C 
ATOM     15  C   UNL     1       4.412   3.993  17.357  0.00  0.00    +0.000 C 
BRANCH  15  16
ATOM     16  C   UNL     1       5.315   3.799  16.184  0.00  0.00    +0.000 C 
BRANCH  16  17
ATOM     17  C   UNL     1       5.349   5.014  15.305  0.00  0.00    +0.000 C 
ATOM     18  C   UNL     1       5.593   6.266  15.723  0.00  0.00    +0.000 C 
BRANCH  18  19
ATOM     19  C   UNL     1       5.870   6.669  17.146  0.00  0.00    +0.000 C 
BRANCH  19  20
ATOM     20  C   UNL     1       7.244   7.324  17.303  0.00  0.00    +0.000 C 
BRANCH  20  21
ATOM     21  C   UNL     1       8.025   6.745  18.481  0.00  0.00    +0.000 C 
BRANCH  21  22
ATOM     22  C   UNL     1       7.451   5.426  18.953  0.00  0.00    +0.000 C 
ATOM     23  O   UNL     1       6.684   5.286  19.885  0.00  0.00    +0.000 OA
BRANCH  22  24
ATOM     24  O   UNL     1       7.892   4.393  18.207  0.00  0.00    +0.000 OA
ATOM     25  H   UNL     1       7.789   4.522  17.246  0.00  0.00    +0.000 HD
ENDBRANCH  22  24
ENDBRANCH  21  22
ENDBRANCH  20  21
ENDBRANCH  19  20
ENDBRANCH  18  19
ENDBRANCH  16  17
ENDBRANCH  15  16
ENDBRANCH   3  14
TORSDOF 15
ENDMDL
MODEL 5
REMARK VINA RESULT:      -5.9      4.257      7.497
REMARK  Name = 
REMARK  16 active torsions:
REMARK  status: ('A' for Active; 'I' for Inactive)
REMARK    1  A    between atoms: C_1  and  C_2
REMARK    2  A    between atoms: C_2  and  C_3
REMARK    3  A    between atoms: C_3  and  C_4
REMARK    4  A    between atoms: C_4  and  C_5
REMARK    5  A    between atoms: C_5  and  C_6
REMARK    6  A    between atoms: C_7  and  C_8
REMARK    7  A    between atoms: C_8  and  C_9
REMARK    8  A    between atoms: C_10  and  C_11
REMARK    9  A    between atoms: C_13  and  C_14
REMARK   10  A    between atoms: C_15  and  C_16
REMARK   11  A    between atoms: C_16  and  C_17
REMARK   12  A    between atoms: C_18  and  C_19
REMARK   13  A    between atoms: C_19  and  C_20
REMARK   14  A    between atoms: C_20  and  C_21
REMARK   15  A    between atoms: C_21  and  C_22
REMARK   16  A    between atoms: C_22  and  O_24
REMARK                            x       y       z     vdW  Elec       q    Type
REMARK                         _______ _______ _______ _____ _____    ______ ____
ROOT
ATOM      1  C   UNL     1       2.991   4.602  19.646  0.00  0.00    +0.000 C 
ATOM      2  C   UNL     1       1.631   4.311  19.087  0.00  0.00    +0.000 C 
ATOM      3  C   UNL     1       2.485   5.369  18.439  0.00  0.00    +0.000 C 
ENDROOT
BRANCH   1   5
ATOM      4  C   UNL     1       5.389   3.988  19.327  0.00  0.00    +0.000 C 
ATOM      5  C   UNL     1       4.090   3.655  19.438  0.00  0.00    +0.000 C 
BRANCH   4   6
ATOM      6  C   UNL     1       5.874   5.404  19.402  0.00  0.00    +0.000 C 
BRANCH   6   8
ATOM      7  C   UNL     1       7.242   6.389  17.532  0.00  0.00    +0.000 C 
ATOM      8  C   UNL     1       7.147   5.626  18.635  0.00  0.00    +0.000 C 
BRANCH   7   9
ATOM      9  C   UNL     1       6.058   7.084  16.922  0.00  0.00    +0.000 C 
BRANCH   9  10
ATOM     10  C   UNL     1       5.274   6.217  15.944  0.00  0.00    +0.000 C 
BRANCH  10  11
ATOM     11  C   UNL     1       6.241   5.464  15.029  0.00  0.00    +0.000 C 
BRANCH  11  13
ATOM     12  C   UNL     1       4.784   3.633  15.943  0.00  0.00    +0.000 C 
ATOM     13  C   UNL     1       5.954   3.966  15.033  0.00  0.00    +0.000 C 
ENDBRANCH  11  13
ENDBRANCH  10  11
ENDBRANCH   9  10
ENDBRANCH   7   9
ENDBRANCH   6   8
ENDBRANCH   4   6
ENDBRANCH   1   5
BRANCH   3  14
ATOM     14  C   UNL     1       2.181   6.790  18.626  0.00  0.00    +0.000 C 
ATOM     15  C   UNL     1       2.504   7.783  17.784  0.00  0.00    +0.000 C 
BRANCH  15  16
ATOM     16  C   UNL     1       2.039   9.190  17.969  0.00  0.00    +0.000 C 
BRANCH  16  17
ATOM     17  C   UNL     1       1.347   9.375  19.287  0.00  0.00    +0.000 C 
ATOM     18  C   UNL     1       0.695  10.484  19.671  0.00  0.00    +0.000 C 
BRANCH  18  19
ATOM     19  C   UNL     1       0.548  11.735  18.848  0.00  0.00    +0.000 C 
BRANCH  19  20
ATOM     20  C   UNL     1      -0.914  12.036  18.513  0.00  0.00    +0.000 C 
BRANCH  20  21
ATOM     21  C   UNL     1      -1.603  10.854  17.833  0.00  0.00    +0.000 C 
BRANCH  21  22
ATOM     22  C   UNL     1      -2.815  11.282  17.034  0.00  0.00    +0.000 C 
ATOM     23  O   UNL     1      -3.924  11.480  17.490  0.00  0.00    +0.000 OA
BRANCH  22  24
ATOM     24  O   UNL     1      -2.524  11.429  15.725  0.00  0.00    +0.000 OA
ATOM     25  H   UNL     1      -2.245  12.328  15.476  0.00  0.00    +0.000 HD
ENDBRANCH  22  24
ENDBRANCH  21  22
ENDBRANCH  20  21
ENDBRANCH  19  20
ENDBRANCH  18  19
ENDBRANCH  16  17
ENDBRANCH  15  16
ENDBRANCH   3  14
TORSDOF 15
ENDMDL
MODEL 6
REMARK VINA RESULT:      -5.9      2.038      4.119
REMARK  Name = 
REMARK  16 active torsions:
REMARK  status: ('A' for Active; 'I' for Inactive)
REMARK    1  A    between atoms: C_1  and  C_2
REMARK    2  A    between atoms: C_2  and  C_3
REMARK    3  A    between atoms: C_3  and  C_4
REMARK    4  A    between atoms: C_4  and  C_5
REMARK    5  A    between atoms: C_5  and  C_6
REMARK    6  A    between atoms: C_7  and  C_8
REMARK    7  A    between atoms: C_8  and  C_9
REMARK    8  A    between atoms: C_10  and  C_11
REMARK    9  A    between atoms: C_13  and  C_14
REMARK   10  A    between atoms: C_15  and  C_16
REMARK   11  A    between atoms: C_16  and  C_17
REMARK   12  A    between atoms: C_18  and  C_19
REMARK   13  A    between atoms: C_19  and  C_20
REMARK   14  A    between atoms: C_20  and  C_21
REMARK   15  A    between atoms: C_21  and  C_22
REMARK   16  A    between atoms: C_22  and  O_24
REMARK                            x       y       z     vdW  Elec       q    Type
REMARK                         _______ _______ _______ _____ _____    ______ ____
ROOT
ATOM      1  C   UNL     1       4.855   5.572  17.404  0.00  0.00    +0.000 C 
ATOM      2  C   UNL     1       4.314   6.760  16.668  0.00  0.00    +0.000 C 
ATOM      3  C   UNL     1       5.804   6.582  16.789  0.00  0.00    +0.000 C 
ENDROOT
BRANCH   1   5
ATOM      4  C   UNL     1       3.721   3.425  16.826  0.00  0.00    +0.000 C 
ATOM      5  C   UNL     1       4.792   4.239  16.799  0.00  0.00    +0.000 C 
BRANCH   4   6
ATOM      6  C   UNL     1       2.434   3.798  17.498  0.00  0.00    +0.000 C 
BRANCH   6   8
ATOM      7  C   UNL     1       1.276   2.963  19.571  0.00  0.00    +0.000 C 
ATOM      8  C   UNL     1       1.924   2.725  18.417  0.00  0.00    +0.000 C 
BRANCH   7   9
ATOM      9  C   UNL     1       1.021   4.350  20.087  0.00  0.00    +0.000 C 
BRANCH   9  10
ATOM     10  C   UNL     1       2.192   4.941  20.864  0.00  0.00    +0.000 C 
BRANCH  10  11
ATOM     11  C   UNL     1       2.659   6.233  20.193  0.00  0.00    +0.000 C 
BRANCH  11  13
ATOM     12  C   UNL     1       1.460   8.109  21.357  0.00  0.00    +0.000 C 
ATOM     13  C   UNL     1       1.528   7.251  20.105  0.00  0.00    +0.000 C 
ENDBRANCH  11  13
ENDBRANCH  10  11
ENDBRANCH   9  10
ENDBRANCH   7   9
ENDBRANCH   6   8
ENDBRANCH   4   6
ENDBRANCH   1   5
BRANCH   3  14
ATOM     14  C   UNL     1       6.583   7.417  17.707  0.00  0.00    +0.000 C 
ATOM     15  C   UNL     1       7.826   7.874  17.495  0.00  0.00    +0.000 C 
BRANCH  15  16
ATOM     16  C   UNL     1       8.505   8.838  18.411  0.00  0.00    +0.000 C 
BRANCH  16  17
ATOM     17  C   UNL     1       8.338  10.255  17.947  0.00  0.00    +0.000 C 
ATOM     18  C   UNL     1       9.283  11.207  18.009  0.00  0.00    +0.000 C 
BRANCH  18  19
ATOM     19  C   UNL     1      10.671  11.019  18.558  0.00  0.00    +0.000 C 
BRANCH  19  20
ATOM     20  C   UNL     1      11.628  12.119  18.093  0.00  0.00    +0.000 C 
BRANCH  20  21
ATOM     21  C   UNL     1      10.985  13.503  18.155  0.00  0.00    +0.000 C 
BRANCH  21  22
ATOM     22  C   UNL     1      11.454  14.401  17.030  0.00  0.00    +0.000 C 
ATOM     23  O   UNL     1      11.977  15.489  17.169  0.00  0.00    +0.000 OA
BRANCH  22  24
ATOM     24  O   UNL     1      11.226  13.848  15.821  0.00  0.00    +0.000 OA
ATOM     25  H   UNL     1      12.032  13.682  15.299  0.00  0.00    +0.000 HD
ENDBRANCH  22  24
ENDBRANCH  21  22
ENDBRANCH  20  21
ENDBRANCH  19  20
ENDBRANCH  18  19
ENDBRANCH  16  17
ENDBRANCH  15  16
ENDBRANCH   3  14
TORSDOF 15
ENDMDL
MODEL 7
REMARK VINA RESULT:      -5.9      3.347      6.691
REMARK  Name = 
REMARK  16 active torsions:
REMARK  status: ('A' for Active; 'I' for Inactive)
REMARK    1  A    between atoms: C_1  and  C_2
REMARK    2  A    between atoms: C_2  and  C_3
REMARK    3  A    between atoms: C_3  and  C_4
REMARK    4  A    between atoms: C_4  and  C_5
REMARK    5  A    between atoms: C_5  and  C_6
REMARK    6  A    between atoms: C_7  and  C_8
REMARK    7  A    between atoms: C_8  and  C_9
REMARK    8  A    between atoms: C_10  and  C_11
REMARK    9  A    between atoms: C_13  and  C_14
REMARK   10  A    between atoms: C_15  and  C_16
REMARK   11  A    between atoms: C_16  and  C_17
REMARK   12  A    between atoms: C_18  and  C_19
REMARK   13  A    between atoms: C_19  and  C_20
REMARK   14  A    between atoms: C_20  and  C_21
REMARK   15  A    between atoms: C_21  and  C_22
REMARK   16  A    between atoms: C_22  and  O_24
REMARK                            x       y       z     vdW  Elec       q    Type
REMARK                         _______ _______ _______ _____ _____    ______ ____
ROOT
ATOM      1  C   UNL     1       3.013   3.265  20.285  0.00  0.00    +0.000 C 
ATOM      2  C   UNL     1       2.020   3.029  21.383  0.00  0.00    +0.000 C 
ATOM      3  C   UNL     1       1.674   3.977  20.265  0.00  0.00    +0.000 C 
ENDROOT
BRANCH   1   5
ATOM      4  C   UNL     1       3.739   2.454  18.040  0.00  0.00    +0.000 C 
ATOM      5  C   UNL     1       3.251   2.232  19.273  0.00  0.00    +0.000 C 
BRANCH   4   6
ATOM      6  C   UNL     1       4.107   3.821  17.545  0.00  0.00    +0.000 C 
BRANCH   6   8
ATOM      7  C   UNL     1       5.399   4.876  15.659  0.00  0.00    +0.000 C 
ATOM      8  C   UNL     1       4.988   3.784  16.328  0.00  0.00    +0.000 C 
BRANCH   7   9
ATOM      9  C   UNL     1       4.985   6.267  16.044  0.00  0.00    +0.000 C 
BRANCH   9  10
ATOM     10  C   UNL     1       5.537   6.721  17.391  0.00  0.00    +0.000 C 
BRANCH  10  11
ATOM     11  C   UNL     1       7.065   6.762  17.338  0.00  0.00    +0.000 C 
BRANCH  11  13
ATOM     12  C   UNL     1       7.724   5.740  19.536  0.00  0.00    +0.000 C 
ATOM     13  C   UNL     1       7.675   5.548  18.030  0.00  0.00    +0.000 C 
ENDBRANCH  11  13
ENDBRANCH  10  11
ENDBRANCH   9  10
ENDBRANCH   7   9
ENDBRANCH   6   8
ENDBRANCH   4   6
ENDBRANCH   1   5
BRANCH   3  14
ATOM     14  C   UNL     1       1.680   5.425  20.486  0.00  0.00    +0.000 C 
ATOM     15  C   UNL     1       2.159   6.350  19.640  0.00  0.00    +0.000 C 
BRANCH  15  16
ATOM     16  C   UNL     1       2.004   7.818  19.868  0.00  0.00    +0.000 C 
BRANCH  16  17
ATOM     17  C   UNL     1       2.028   8.584  18.579  0.00  0.00    +0.000 C 
ATOM     18  C   UNL     1       1.158   9.545  18.232  0.00  0.00    +0.000 C 
BRANCH  18  19
ATOM     19  C   UNL     1       0.005  10.019  19.075  0.00  0.00    +0.000 C 
BRANCH  19  20
ATOM     20  C   UNL     1       0.419  11.122  20.051  0.00  0.00    +0.000 C 
BRANCH  20  21
ATOM     21  C   UNL     1      -0.593  11.299  21.182  0.00  0.00    +0.000 C 
BRANCH  21  22
ATOM     22  C   UNL     1      -0.248  10.458  22.392  0.00  0.00    +0.000 C 
ATOM     23  O   UNL     1      -1.025  10.139  23.271  0.00  0.00    +0.000 OA
BRANCH  22  24
ATOM     24  O   UNL     1       1.048  10.086  22.390  0.00  0.00    +0.000 OA
ATOM     25  H   UNL     1       1.196   9.158  22.132  0.00  0.00    +0.000 HD
ENDBRANCH  22  24
ENDBRANCH  21  22
ENDBRANCH  20  21
ENDBRANCH  19  20
ENDBRANCH  18  19
ENDBRANCH  16  17
ENDBRANCH  15  16
ENDBRANCH   3  14
TORSDOF 15
ENDMDL
MODEL 8
REMARK VINA RESULT:      -5.8      3.984      6.822
REMARK  Name = 
REMARK  16 active torsions:
REMARK  status: ('A' for Active; 'I' for Inactive)
REMARK    1  A    between atoms: C_1  and  C_2
REMARK    2  A    between atoms: C_2  and  C_3
REMARK    3  A    between atoms: C_3  and  C_4
REMARK    4  A    between atoms: C_4  and  C_5
REMARK    5  A    between atoms: C_5  and  C_6
REMARK    6  A    between atoms: C_7  and  C_8
REMARK    7  A    between atoms: C_8  and  C_9
REMARK    8  A    between atoms: C_10  and  C_11
REMARK    9  A    between atoms: C_13  and  C_14
REMARK   10  A    between atoms: C_15  and  C_16
REMARK   11  A    between atoms: C_16  and  C_17
REMARK   12  A    between atoms: C_18  and  C_19
REMARK   13  A    between atoms: C_19  and  C_20
REMARK   14  A    between atoms: C_20  and  C_21
REMARK   15  A    between atoms: C_21  and  C_22
REMARK   16  A    between atoms: C_22  and  O_24
REMARK                            x       y       z     vdW  Elec       q    Type
REMARK                         _______ _______ _______ _____ _____    ______ ____
ROOT
ATOM      1  C   UNL     1       1.820   5.323  19.630  0.00  0.00    +0.000 C 
ATOM      2  C   UNL     1       3.203   5.810  19.943  0.00  0.00    +0.000 C 
ATOM      3  C   UNL     1       2.018   6.664  20.311  0.00  0.00    +0.000 C 
ENDROOT
BRANCH   1   5
ATOM      4  C   UNL     1       1.027   2.983  19.983  0.00  0.00    +0.000 C 
ATOM      5  C   UNL     1       1.226   4.240  20.419  0.00  0.00    +0.000 C 
BRANCH   4   6
ATOM      6  C   UNL     1       1.400   2.533  18.602  0.00  0.00    +0.000 C 
BRANCH   6   8
ATOM      7  C   UNL     1       3.806   2.250  17.918  0.00  0.00    +0.000 C 
ATOM      8  C   UNL     1       2.712   1.804  18.561  0.00  0.00    +0.000 C 
BRANCH   7   9
ATOM      9  C   UNL     1       3.818   3.530  17.132  0.00  0.00    +0.000 C 
BRANCH   9  10
ATOM     10  C   UNL     1       5.067   3.714  16.278  0.00  0.00    +0.000 C 
BRANCH  10  11
ATOM     11  C   UNL     1       5.097   5.131  15.703  0.00  0.00    +0.000 C 
BRANCH  11  13
ATOM     12  C   UNL     1       5.874   6.930  17.276  0.00  0.00    +0.000 C 
ATOM     13  C   UNL     1       4.676   6.160  16.747  0.00  0.00    +0.000 C 
ENDBRANCH  11  13
ENDBRANCH  10  11
ENDBRANCH   9  10
ENDBRANCH   7   9
ENDBRANCH   6   8
ENDBRANCH   4   6
ENDBRANCH   1   5
BRANCH   3  14
ATOM     14  C   UNL     1       1.694   7.864  19.536  0.00  0.00    +0.000 C 
ATOM     15  C   UNL     1       2.296   8.258  18.404  0.00  0.00    +0.000 C 
BRANCH  15  16
ATOM     16  C   UNL     1       1.820   9.416  17.590  0.00  0.00    +0.000 C 
BRANCH  16  17
ATOM     17  C   UNL     1       2.234  10.725  18.196  0.00  0.00    +0.000 C 
ATOM     18  C   UNL     1       1.419  11.569  18.849  0.00  0.00    +0.000 C 
BRANCH  18  19
ATOM     19  C   UNL     1      -0.051  11.351  19.083  0.00  0.00    +0.000 C 
BRANCH  19  20
ATOM     20  C   UNL     1      -0.429  11.509  20.557  0.00  0.00    +0.000 C 
BRANCH  20  21
ATOM     21  C   UNL     1       0.424  10.626  21.467  0.00  0.00    +0.000 C 
BRANCH  21  22
ATOM     22  C   UNL     1      -0.414   9.858  22.466  0.00  0.00    +0.000 C 
ATOM     23  O   UNL     1      -0.656   8.668  22.414  0.00  0.00    +0.000 OA
BRANCH  22  24
ATOM     24  O   UNL     1      -0.874  10.656  23.451  0.00  0.00    +0.000 OA
ATOM     25  H   UNL     1      -1.601  11.246  23.180  0.00  0.00    +0.000 HD
ENDBRANCH  22  24
ENDBRANCH  21  22
ENDBRANCH  20  21
ENDBRANCH  19  20
ENDBRANCH  18  19
ENDBRANCH  16  17
ENDBRANCH  15  16
ENDBRANCH   3  14
TORSDOF 15
ENDMDL
MODEL 9
REMARK VINA RESULT:      -5.8      2.714      3.203
REMARK  Name = 
REMARK  16 active torsions:
REMARK  status: ('A' for Active; 'I' for Inactive)
REMARK    1  A    between atoms: C_1  and  C_2
REMARK    2  A    between atoms: C_2  and  C_3
REMARK    3  A    between atoms: C_3  and  C_4
REMARK    4  A    between atoms: C_4  and  C_5
REMARK    5  A    between atoms: C_5  and  C_6
REMARK    6  A    between atoms: C_7  and  C_8
REMARK    7  A    between atoms: C_8  and  C_9
REMARK    8  A    between atoms: C_10  and  C_11
REMARK    9  A    between atoms: C_13  and  C_14
REMARK   10  A    between atoms: C_15  and  C_16
REMARK   11  A    between atoms: C_16  and  C_17
REMARK   12  A    between atoms: C_18  and  C_19
REMARK   13  A    between atoms: C_19  and  C_20
REMARK   14  A    between atoms: C_20  and  C_21
REMARK   15  A    between atoms: C_21  and  C_22
REMARK   16  A    between atoms: C_22  and  O_24
REMARK                            x       y       z     vdW  Elec       q    Type
REMARK                         _______ _______ _______ _____ _____    ______ ____
ROOT
ATOM      1  C   UNL     1       1.928   3.354  19.137  0.00  0.00    +0.000 C 
ATOM      2  C   UNL     1       1.562   2.042  18.512  0.00  0.00    +0.000 C 
ATOM      3  C   UNL     1       2.994   2.302  18.901  0.00  0.00    +0.000 C 
ENDROOT
BRANCH   1   5
ATOM      4  C   UNL     1       1.491   4.866  21.074  0.00  0.00    +0.000 C 
ATOM      5  C   UNL     1       1.549   3.640  20.524  0.00  0.00    +0.000 C 
BRANCH   4   6
ATOM      6  C   UNL     1       1.817   6.116  20.312  0.00  0.00    +0.000 C 
BRANCH   6   8
ATOM      7  C   UNL     1       3.546   6.663  18.565  0.00  0.00    +0.000 C 
ATOM      8  C   UNL     1       3.207   6.105  19.741  0.00  0.00    +0.000 C 
BRANCH   7   9
ATOM      9  C   UNL     1       2.546   7.336  17.669  0.00  0.00    +0.000 C 
BRANCH   9  10
ATOM     10  C   UNL     1       2.491   8.850  17.839  0.00  0.00    +0.000 C 
BRANCH  10  11
ATOM     11  C   UNL     1       1.063   9.281  18.178  0.00  0.00    +0.000 C 
BRANCH  11  13
ATOM     12  C   UNL     1       0.382   9.430  20.592  0.00  0.00    +0.000 C 
ATOM     13  C   UNL     1       1.032  10.156  19.427  0.00  0.00    +0.000 C 
ENDBRANCH  11  13
ENDBRANCH  10  11
ENDBRANCH   9  10
ENDBRANCH   7   9
ENDBRANCH   6   8
ENDBRANCH   4   6
ENDBRANCH   1   5
BRANCH   3  14
ATOM     14  C   UNL     1       4.004   2.588  17.878  0.00  0.00    +0.000 C 
ATOM     15  C   UNL     1       3.972   3.601  17.000  0.00  0.00    +0.000 C 
BRANCH  15  16
ATOM     16  C   UNL     1       5.105   3.915  16.079  0.00  0.00    +0.000 C 
BRANCH  16  17
ATOM     17  C   UNL     1       4.913   5.237  15.396  0.00  0.00    +0.000 C 
ATOM     18  C   UNL     1       5.784   6.258  15.426  0.00  0.00    +0.000 C 
BRANCH  18  19
ATOM     19  C   UNL     1       7.103   6.254  16.151  0.00  0.00    +0.000 C 
BRANCH  19  20
ATOM     20  C   UNL     1       7.090   7.176  17.373  0.00  0.00    +0.000 C 
BRANCH  20  21
ATOM     21  C   UNL     1       7.797   6.547  18.573  0.00  0.00    +0.000 C 
BRANCH  21  22
ATOM     22  C   UNL     1       7.320   5.136  18.841  0.00  0.00    +0.000 C 
ATOM     23  O   UNL     1       6.379   4.834  19.548  0.00  0.00    +0.000 OA
BRANCH  22  24
ATOM     24  O   UNL     1       8.070   4.223  18.191  0.00  0.00    +0.000 OA
ATOM     25  H   UNL     1       8.120   3.358  18.636  0.00  0.00    +0.000 HD
ENDBRANCH  22  24
ENDBRANCH  21  22
ENDBRANCH  20  21
ENDBRANCH  19  20
ENDBRANCH  18  19
ENDBRANCH  16  17
ENDBRANCH  15  16
ENDBRANCH   3  14
TORSDOF 15
ENDMDL
