MODEL 1
REMARK VINA RESULT:      -8.4      0.000      0.000
REMARK  Name = 
REMARK  6 active torsions:
REMARK  status: ('A' for Active; 'I' for Inactive)
REMARK    1  A    between atoms: C_1  and  O_2
REMARK    2  A    between atoms: O_2  and  C_3
REMARK    3  A    between atoms: C_6  and  C_7
REMARK    4  A    between atoms: C_9  and  C_10
REMARK    5  A    between atoms: C_11  and  C_12
REMARK    6  A    between atoms: C_12  and  O_13
REMARK                            x       y       z     vdW  Elec       q    Type
REMARK                         _______ _______ _______ _____ _____    ______ ____
ROOT
ATOM      1  C   UNL     1       5.119   4.151  16.947  0.00  0.00    +0.000 A 
ATOM      2  C   UNL     1       6.241   4.244  17.789  0.00  0.00    +0.000 A 
ATOM      3  C   UNL     1       7.273   5.029  17.387  0.00  0.00    +0.000 A 
ATOM      4  N   UNL     1       7.811   4.623  16.257  0.00  0.00    +0.000 NA
ATOM      5  C   UNL     1       6.935   4.376  15.303  0.00  0.00    +0.000 A 
ATOM      6  C   UNL     1       7.537   4.554  14.083  0.00  0.00    +0.000 A 
ATOM      7  C   UNL     1       6.826   4.388  12.925  0.00  0.00    +0.000 A 
ATOM      8  F   UNL     1       7.433   4.656  11.760  0.00  0.00    +0.000 F 
ATOM      9  C   UNL     1       5.517   3.934  13.005  0.00  0.00    +0.000 A 
ATOM     10 CL   UNL     1       4.762   3.426  11.538  0.00  0.00    +0.000 Cl
ATOM     11  C   UNL     1       4.847   3.825  14.264  0.00  0.00    +0.000 A 
ATOM     12  C   UNL     1       5.506   4.113  15.518  0.00  0.00    +0.000 A 
ENDROOT
BRANCH   1  16
ATOM     13  C   UNL     1       1.766   3.791  19.849  0.00  0.00    +0.000 A 
ATOM     14  C   UNL     1       3.091   3.722  20.200  0.00  0.00    +0.000 A 
ATOM     15  C   UNL     1       4.064   3.962  19.240  0.00  0.00    +0.000 A 
ATOM     16  C   UNL     1       3.843   4.218  17.823  0.00  0.00    +0.000 A 
ATOM     17  C   UNL     1       2.491   4.423  17.539  0.00  0.00    +0.000 A 
ATOM     18  C   UNL     1       1.458   4.199  18.545  0.00  0.00    +0.000 A 
BRANCH  13  20
ATOM     19  C   UNL     1       1.423   2.594  21.940  0.00  0.00    +0.000 C 
ATOM     20  O   UNL     1       0.969   3.411  20.880  0.00  0.00    +0.000 OA
ENDBRANCH  13  20
ENDBRANCH   1  16
BRANCH   3  21
ATOM     21  C   UNL     1       6.992   6.503  17.328  0.00  0.00    +0.000 C 
ATOM     22  C   UNL     1       7.752   7.398  17.980  0.00  0.00    +0.000 C 
BRANCH  22  23
ATOM     23  C   UNL     1       7.782   8.845  17.646  0.00  0.00    +0.000 C 
BRANCH  23  24
ATOM     24  O   UNL     1       8.674   9.494  18.526  0.00  0.00    +0.000 OA
ATOM     25  H   UNL     1       8.186  10.239  18.913  0.00  0.00    +0.000 HD
ENDBRANCH  23  24
ENDBRANCH  22  23
ENDBRANCH   3  21
TORSDOF 5
ENDMDL
MODEL 2
REMARK VINA RESULT:      -8.3      3.955      5.856
REMARK  Name = 
REMARK  6 active torsions:
REMARK  status: ('A' for Active; 'I' for Inactive)
REMARK    1  A    between atoms: C_1  and  O_2
REMARK    2  A    between atoms: O_2  and  C_3
REMARK    3  A    between atoms: C_6  and  C_7
REMARK    4  A    between atoms: C_9  and  C_10
REMARK    5  A    between atoms: C_11  and  C_12
REMARK    6  A    between atoms: C_12  and  O_13
REMARK                            x       y       z     vdW  Elec       q    Type
REMARK                         _______ _______ _______ _____ _____    ______ ____
ROOT
ATOM      1  C   UNL     1       2.636   6.723  18.283  0.00  0.00    +0.000 A 
ATOM      2  C   UNL     1       1.684   5.730  17.990  0.00  0.00    +0.000 A 
ATOM      3  C   UNL     1       2.040   4.434  18.180  0.00  0.00    +0.000 A 
ATOM      4  N   UNL     1       3.056   4.070  17.428  0.00  0.00    +0.000 NA
ATOM      5  C   UNL     1       4.077   4.906  17.462  0.00  0.00    +0.000 A 
ATOM      6  C   UNL     1       5.231   4.216  17.189  0.00  0.00    +0.000 A 
ATOM      7  C   UNL     1       6.442   4.857  17.194  0.00  0.00    +0.000 A 
ATOM      8  F   UNL     1       7.550   4.125  17.006  0.00  0.00    +0.000 F 
ATOM      9  C   UNL     1       6.467   6.232  17.376  0.00  0.00    +0.000 A 
ATOM     10 CL   UNL     1       7.955   7.046  17.054  0.00  0.00    +0.000 Cl
ATOM     11  C   UNL     1       5.289   6.953  17.745  0.00  0.00    +0.000 A 
ATOM     12  C   UNL     1       4.001   6.310  17.884  0.00  0.00    +0.000 A 
ENDROOT
BRANCH   1  16
ATOM     13  C   UNL     1       0.276   9.515  20.817  0.00  0.00    +0.000 A 
ATOM     14  C   UNL     1       0.933   8.412  21.304  0.00  0.00    +0.000 A 
ATOM     15  C   UNL     1       1.737   7.669  20.452  0.00  0.00    +0.000 A 
ATOM     16  C   UNL     1       1.923   7.882  19.022  0.00  0.00    +0.000 A 
ATOM     17  C   UNL     1       1.359   9.089  18.602  0.00  0.00    +0.000 A 
ATOM     18  C   UNL     1       0.531   9.894  19.494  0.00  0.00    +0.000 A 
BRANCH  13  20
ATOM     19  C   UNL     1      -0.405   9.786  23.139  0.00  0.00    +0.000 C 
ATOM     20  O   UNL     1      -0.552  10.041  21.756  0.00  0.00    +0.000 OA
ENDBRANCH  13  20
ENDBRANCH   1  16
BRANCH   3  21
ATOM     21  C   UNL     1       2.272   4.019  19.604  0.00  0.00    +0.000 C 
ATOM     22  C   UNL     1       1.266   3.631  20.404  0.00  0.00    +0.000 C 
BRANCH  22  23
ATOM     23  C   UNL     1       1.465   2.843  21.648  0.00  0.00    +0.000 C 
BRANCH  23  24
ATOM     24  O   UNL     1       2.849   2.642  21.839  0.00  0.00    +0.000 OA
ATOM     25  H   UNL     1       3.301   3.186  21.173  0.00  0.00    +0.000 HD
ENDBRANCH  23  24
ENDBRANCH  22  23
ENDBRANCH   3  21
TORSDOF 5
ENDMDL
MODEL 3
REMARK VINA RESULT:      -8.1      1.538      1.790
REMARK  Name = 
REMARK  6 active torsions:
REMARK  status: ('A' for Active; 'I' for Inactive)
REMARK    1  A    between atoms: C_1  and  O_2
REMARK    2  A    between atoms: O_2  and  C_3
REMARK    3  A    between atoms: C_6  and  C_7
REMARK    4  A    between atoms: C_9  and  C_10
REMARK    5  A    between atoms: C_11  and  C_12
REMARK    6  A    between atoms: C_12  and  O_13
REMARK                            x       y       z     vdW  Elec       q    Type
REMARK                         _______ _______ _______ _____ _____    ______ ____
ROOT
ATOM      1  C   UNL     1       5.163   4.607  17.316  0.00  0.00    +0.000 A 
ATOM      2  C   UNL     1       6.322   4.641  18.111  0.00  0.00    +0.000 A 
ATOM      3  C   UNL     1       7.417   5.267  17.611  0.00  0.00    +0.000 A 
ATOM      4  N   UNL     1       7.860   4.711  16.504  0.00  0.00    +0.000 NA
ATOM      5  C   UNL     1       6.924   4.488  15.602  0.00  0.00    +0.000 A 
ATOM      6  C   UNL     1       7.493   4.495  14.353  0.00  0.00    +0.000 A 
ATOM      7  C   UNL     1       6.720   4.316  13.237  0.00  0.00    +0.000 A 
ATOM      8  F   UNL     1       7.306   4.416  12.035  0.00  0.00    +0.000 F 
ATOM      9  C   UNL     1       5.373   4.023  13.397  0.00  0.00    +0.000 A 
ATOM     10 CL   UNL     1       4.508   3.485  12.003  0.00  0.00    +0.000 Cl
ATOM     11  C   UNL     1       4.748   4.095  14.680  0.00  0.00    +0.000 A 
ATOM     12  C   UNL     1       5.485   4.408  15.884  0.00  0.00    +0.000 A 
ENDROOT
BRANCH   1  16
ATOM     13  C   UNL     1       1.988   6.069  20.068  0.00  0.00    +0.000 A 
ATOM     14  C   UNL     1       2.622   6.862  19.144  0.00  0.00    +0.000 A 
ATOM     15  C   UNL     1       3.517   6.286  18.253  0.00  0.00    +0.000 A 
ATOM     16  C   UNL     1       3.939   4.892  18.221  0.00  0.00    +0.000 A 
ATOM     17  C   UNL     1       3.167   4.099  19.074  0.00  0.00    +0.000 A 
ATOM     18  C   UNL     1       2.205   4.688  19.999  0.00  0.00    +0.000 A 
BRANCH  13  20
ATOM     19  C   UNL     1       1.371   8.224  21.018  0.00  0.00    +0.000 C 
ATOM     20  O   UNL     1       1.250   6.819  20.926  0.00  0.00    +0.000 OA
ENDBRANCH  13  20
ENDBRANCH   1  16
BRANCH   3  21
ATOM     21  C   UNL     1       7.299   6.754  17.433  0.00  0.00    +0.000 C 
ATOM     22  C   UNL     1       7.940   7.618  18.237  0.00  0.00    +0.000 C 
BRANCH  22  23
ATOM     23  C   UNL     1       8.191   9.038  17.879  0.00  0.00    +0.000 C 
BRANCH  23  24
ATOM     24  O   UNL     1       8.965   9.631  18.899  0.00  0.00    +0.000 OA
ATOM     25  H   UNL     1       8.970   9.004  19.641  0.00  0.00    +0.000 HD
ENDBRANCH  23  24
ENDBRANCH  22  23
ENDBRANCH   3  21
TORSDOF 5
ENDMDL
MODEL 4
REMARK VINA RESULT:      -8.1      4.061      6.023
REMARK  Name = 
REMARK  6 active torsions:
REMARK  status: ('A' for Active; 'I' for Inactive)
REMARK    1  A    between atoms: C_1  and  O_2
REMARK    2  A    between atoms: O_2  and  C_3
REMARK    3  A    between atoms: C_6  and  C_7
REMARK    4  A    between atoms: C_9  and  C_10
REMARK    5  A    between atoms: C_11  and  C_12
REMARK    6  A    between atoms: C_12  and  O_13
REMARK                            x       y       z     vdW  Elec       q    Type
REMARK                         _______ _______ _______ _____ _____    ______ ____
ROOT
ATOM      1  C   UNL     1       2.585   6.425  18.460  0.00  0.00    +0.000 A 
ATOM      2  C   UNL     1       1.655   5.458  18.039  0.00  0.00    +0.000 A 
ATOM      3  C   UNL     1       2.051   4.159  18.030  0.00  0.00    +0.000 A 
ATOM      4  N   UNL     1       3.061   3.941  17.216  0.00  0.00    +0.000 NA
ATOM      5  C   UNL     1       4.058   4.793  17.356  0.00  0.00    +0.000 A 
ATOM      6  C   UNL     1       5.225   4.187  16.965  0.00  0.00    +0.000 A 
ATOM      7  C   UNL     1       6.417   4.857  17.044  0.00  0.00    +0.000 A 
ATOM      8  F   UNL     1       7.541   4.196  16.732  0.00  0.00    +0.000 F 
ATOM      9  C   UNL     1       6.409   6.191  17.426  0.00  0.00    +0.000 A 
ATOM     10 CL   UNL     1       7.866   7.089  17.203  0.00  0.00    +0.000 Cl
ATOM     11  C   UNL     1       5.218   6.813  17.917  0.00  0.00    +0.000 A 
ATOM     12  C   UNL     1       3.952   6.118  17.982  0.00  0.00    +0.000 A 
ENDROOT
BRANCH   1  16
ATOM     13  C   UNL     1       0.872   9.858  20.711  0.00  0.00    +0.000 A 
ATOM     14  C   UNL     1       1.079   9.862  19.354  0.00  0.00    +0.000 A 
ATOM     15  C   UNL     1       1.509   8.701  18.728  0.00  0.00    +0.000 A 
ATOM     16  C   UNL     1       1.855   7.440  19.373  0.00  0.00    +0.000 A 
ATOM     17  C   UNL     1       1.494   7.435  20.723  0.00  0.00    +0.000 A 
ATOM     18  C   UNL     1       1.016   8.642  21.389  0.00  0.00    +0.000 A 
BRANCH  13  20
ATOM     19  C   UNL     1      -0.501  11.365  22.042  0.00  0.00    +0.000 C 
ATOM     20  O   UNL     1       0.572  11.104  21.160  0.00  0.00    +0.000 OA
ENDBRANCH  13  20
ENDBRANCH   1  16
BRANCH   3  21
ATOM     21  C   UNL     1       2.325   3.547  19.374  0.00  0.00    +0.000 C 
ATOM     22  C   UNL     1       1.427   3.593  20.372  0.00  0.00    +0.000 C 
BRANCH  22  23
ATOM     23  C   UNL     1       1.461   2.685  21.547  0.00  0.00    +0.000 C 
BRANCH  23  24
ATOM     24  O   UNL     1       2.796   2.567  21.989  0.00  0.00    +0.000 OA
ATOM     25  H   UNL     1       3.358   2.822  21.238  0.00  0.00    +0.000 HD
ENDBRANCH  23  24
ENDBRANCH  22  23
ENDBRANCH   3  21
TORSDOF 5
ENDMDL
MODEL 5
REMARK VINA RESULT:      -7.6      4.100      7.230
REMARK  Name = 
REMARK  6 active torsions:
REMARK  status: ('A' for Active; 'I' for Inactive)
REMARK    1  A    between atoms: C_1  and  O_2
REMARK    2  A    between atoms: O_2  and  C_3
REMARK    3  A    between atoms: C_6  and  C_7
REMARK    4  A    between atoms: C_9  and  C_10
REMARK    5  A    between atoms: C_11  and  C_12
REMARK    6  A    between atoms: C_12  and  O_13
REMARK                            x       y       z     vdW  Elec       q    Type
REMARK                         _______ _______ _______ _____ _____    ______ ____
ROOT
ATOM      1  C   UNL     1       5.079   5.415  17.195  0.00  0.00    +0.000 A 
ATOM      2  C   UNL     1       5.527   4.439  18.103  0.00  0.00    +0.000 A 
ATOM      3  C   UNL     1       4.625   3.923  18.976  0.00  0.00    +0.000 A 
ATOM      4  N   UNL     1       4.117   4.832  19.780  0.00  0.00    +0.000 NA
ATOM      5  C   UNL     1       3.690   5.917  19.163  0.00  0.00    +0.000 A 
ATOM      6  C   UNL     1       2.693   6.494  19.908  0.00  0.00    +0.000 A 
ATOM      7  C   UNL     1       2.059   7.625  19.464  0.00  0.00    +0.000 A 
ATOM      8  F   UNL     1       1.034   8.103  20.184  0.00  0.00    +0.000 F 
ATOM      9  C   UNL     1       2.515   8.233  18.303  0.00  0.00    +0.000 A 
ATOM     10 CL   UNL     1       1.920   9.815  17.952  0.00  0.00    +0.000 Cl
ATOM     11  C   UNL     1       3.492   7.603  17.472  0.00  0.00    +0.000 A 
ATOM     12  C   UNL     1       4.106   6.341  17.820  0.00  0.00    +0.000 A 
ENDROOT
BRANCH   1  16
ATOM     13  C   UNL     1       6.458   3.925  13.237  0.00  0.00    +0.000 A 
ATOM     14  C   UNL     1       5.161   3.835  13.677  0.00  0.00    +0.000 A 
ATOM     15  C   UNL     1       4.806   4.433  14.878  0.00  0.00    +0.000 A 
ATOM     16  C   UNL     1       5.698   5.114  15.808  0.00  0.00    +0.000 A 
ATOM     17  C   UNL     1       6.967   5.309  15.258  0.00  0.00    +0.000 A 
ATOM     18  C   UNL     1       7.346   4.707  13.983  0.00  0.00    +0.000 A 
BRANCH  13  20
ATOM     19  C   UNL     1       5.671   2.282  11.622  0.00  0.00    +0.000 C 
ATOM     20  O   UNL     1       6.642   3.182  12.115  0.00  0.00    +0.000 OA
ENDBRANCH  13  20
ENDBRANCH   1  16
BRANCH   3  21
ATOM     21  C   UNL     1       3.529   3.092  18.374  0.00  0.00    +0.000 C 
ATOM     22  C   UNL     1       2.488   2.654  19.101  0.00  0.00    +0.000 C 
BRANCH  22  23
ATOM     23  C   UNL     1       1.206   2.197  18.505  0.00  0.00    +0.000 C 
BRANCH  23  24
ATOM     24  O   UNL     1       0.156   2.518  19.390  0.00  0.00    +0.000 OA
ATOM     25  H   UNL     1      -0.187   1.674  19.728  0.00  0.00    +0.000 HD
ENDBRANCH  23  24
ENDBRANCH  22  23
ENDBRANCH   3  21
TORSDOF 5
ENDMDL
MODEL 6
REMARK VINA RESULT:      -7.5      3.864      6.396
REMARK  Name = 
REMARK  6 active torsions:
REMARK  status: ('A' for Active; 'I' for Inactive)
REMARK    1  A    between atoms: C_1  and  O_2
REMARK    2  A    between atoms: O_2  and  C_3
REMARK    3  A    between atoms: C_6  and  C_7
REMARK    4  A    between atoms: C_9  and  C_10
REMARK    5  A    between atoms: C_11  and  C_12
REMARK    6  A    between atoms: C_12  and  O_13
REMARK                            x       y       z     vdW  Elec       q    Type
REMARK                         _______ _______ _______ _____ _____    ______ ____
ROOT
ATOM      1  C   UNL     1       5.185   5.207  15.710  0.00  0.00    +0.000 A 
ATOM      2  C   UNL     1       5.632   6.517  15.957  0.00  0.00    +0.000 A 
ATOM      3  C   UNL     1       5.995   6.836  17.225  0.00  0.00    +0.000 A 
ATOM      4  N   UNL     1       5.004   6.718  18.083  0.00  0.00    +0.000 NA
ATOM      5  C   UNL     1       4.349   5.577  17.994  0.00  0.00    +0.000 A 
ATOM      6  C   UNL     1       3.794   5.281  19.214  0.00  0.00    +0.000 A 
ATOM      7  C   UNL     1       3.083   4.124  19.393  0.00  0.00    +0.000 A 
ATOM      8  F   UNL     1       2.634   3.837  20.623  0.00  0.00    +0.000 F 
ATOM      9  C   UNL     1       2.847   3.310  18.294  0.00  0.00    +0.000 A 
ATOM     10 CL   UNL     1       1.687   2.046  18.481  0.00  0.00    +0.000 Cl
ATOM     11  C   UNL     1       3.485   3.556  17.039  0.00  0.00    +0.000 A 
ATOM     12  C   UNL     1       4.353   4.692  16.822  0.00  0.00    +0.000 A 
ENDROOT
BRANCH   1  16
ATOM     13  C   UNL     1       6.612   3.171  12.021  0.00  0.00    +0.000 A 
ATOM     14  C   UNL     1       5.322   3.096  12.484  0.00  0.00    +0.000 A 
ATOM     15  C   UNL     1       4.947   3.861  13.580  0.00  0.00    +0.000 A 
ATOM     16  C   UNL     1       5.812   4.718  14.381  0.00  0.00    +0.000 A 
ATOM     17  C   UNL     1       7.068   4.878  13.793  0.00  0.00    +0.000 A 
ATOM     18  C   UNL     1       7.468   4.099  12.625  0.00  0.00    +0.000 A 
BRANCH  13  20
ATOM     19  C   UNL     1       6.326   0.948  11.071  0.00  0.00    +0.000 C 
ATOM     20  O   UNL     1       6.824   2.270  11.028  0.00  0.00    +0.000 OA
ENDBRANCH  13  20
ENDBRANCH   1  16
BRANCH   3  21
ATOM     21  C   UNL     1       7.220   6.145  17.751  0.00  0.00    +0.000 C 
ATOM     22  C   UNL     1       7.603   6.255  19.034  0.00  0.00    +0.000 C 
BRANCH  22  23
ATOM     23  C   UNL     1       8.533   5.305  19.696  0.00  0.00    +0.000 C 
BRANCH  23  24
ATOM     24  O   UNL     1       8.252   5.287  21.079  0.00  0.00    +0.000 OA
ATOM     25  H   UNL     1       8.720   4.518  21.445  0.00  0.00    +0.000 HD
ENDBRANCH  23  24
ENDBRANCH  22  23
ENDBRANCH   3  21
TORSDOF 5
ENDMDL
MODEL 7
REMARK VINA RESULT:      -7.4      1.818      2.173
REMARK  Name = 
REMARK  6 active torsions:
REMARK  status: ('A' for Active; 'I' for Inactive)
REMARK    1  A    between atoms: C_1  and  O_2
REMARK    2  A    between atoms: O_2  and  C_3
REMARK    3  A    between atoms: C_6  and  C_7
REMARK    4  A    between atoms: C_9  and  C_10
REMARK    5  A    between atoms: C_11  and  C_12
REMARK    6  A    between atoms: C_12  and  O_13
REMARK                            x       y       z     vdW  Elec       q    Type
REMARK                         _______ _______ _______ _____ _____    ______ ____
ROOT
ATOM      1  C   UNL     1       5.259   3.920  16.727  0.00  0.00    +0.000 A 
ATOM      2  C   UNL     1       5.983   4.740  17.611  0.00  0.00    +0.000 A 
ATOM      3  C   UNL     1       6.429   5.935  17.146  0.00  0.00    +0.000 A 
ATOM      4  N   UNL     1       7.268   5.808  16.140  0.00  0.00    +0.000 NA
ATOM      5  C   UNL     1       6.847   4.997  15.188  0.00  0.00    +0.000 A 
ATOM      6  C   UNL     1       7.418   5.369  13.997  0.00  0.00    +0.000 A 
ATOM      7  C   UNL     1       7.116   4.698  12.842  0.00  0.00    +0.000 A 
ATOM      8  F   UNL     1       7.632   5.150  11.690  0.00  0.00    +0.000 F 
ATOM      9  C   UNL     1       6.306   3.574  12.916  0.00  0.00    +0.000 A 
ATOM     10 CL   UNL     1       6.211   2.573  11.513  0.00  0.00    +0.000 Cl
ATOM     11  C   UNL     1       5.635   3.223  14.129  0.00  0.00    +0.000 A 
ATOM     12  C   UNL     1       5.811   3.970  15.354  0.00  0.00    +0.000 A 
ENDROOT
BRANCH   1  16
ATOM     13  C   UNL     1       1.882   2.769  19.384  0.00  0.00    +0.000 A 
ATOM     14  C   UNL     1       2.130   4.056  18.978  0.00  0.00    +0.000 A 
ATOM     15  C   UNL     1       3.138   4.297  18.056  0.00  0.00    +0.000 A 
ATOM     16  C   UNL     1       4.057   3.316  17.494  0.00  0.00    +0.000 A 
ATOM     17  C   UNL     1       3.680   2.010  17.818  0.00  0.00    +0.000 A 
ATOM     18  C   UNL     1       2.604   1.740  18.767  0.00  0.00    +0.000 A 
BRANCH  13  20
ATOM     19  C   UNL     1       1.286   2.759  21.744  0.00  0.00    +0.000 C 
ATOM     20  O   UNL     1       0.950   2.741  20.372  0.00  0.00    +0.000 OA
ENDBRANCH  13  20
ENDBRANCH   1  16
BRANCH   3  21
ATOM     21  C   UNL     1       5.371   6.947  16.815  0.00  0.00    +0.000 C 
ATOM     22  C   UNL     1       4.218   7.020  17.500  0.00  0.00    +0.000 C 
BRANCH  22  23
ATOM     23  C   UNL     1       3.337   8.216  17.498  0.00  0.00    +0.000 C 
BRANCH  23  24
ATOM     24  O   UNL     1       2.197   7.939  18.281  0.00  0.00    +0.000 OA
ATOM     25  H   UNL     1       2.283   8.470  19.091  0.00  0.00    +0.000 HD
ENDBRANCH  23  24
ENDBRANCH  22  23
ENDBRANCH   3  21
TORSDOF 5
ENDMDL
MODEL 8
REMARK VINA RESULT:      -7.4      4.110      5.774
REMARK  Name = 
REMARK  6 active torsions:
REMARK  status: ('A' for Active; 'I' for Inactive)
REMARK    1  A    between atoms: C_1  and  O_2
REMARK    2  A    between atoms: O_2  and  C_3
REMARK    3  A    between atoms: C_6  and  C_7
REMARK    4  A    between atoms: C_9  and  C_10
REMARK    5  A    between atoms: C_11  and  C_12
REMARK    6  A    between atoms: C_12  and  O_13
REMARK                            x       y       z     vdW  Elec       q    Type
REMARK                         _______ _______ _______ _____ _____    ______ ____
ROOT
ATOM      1  C   UNL     1       2.745   6.457  18.277  0.00  0.00    +0.000 A 
ATOM      2  C   UNL     1       1.868   5.428  17.892  0.00  0.00    +0.000 A 
ATOM      3  C   UNL     1       2.338   4.155  17.905  0.00  0.00    +0.000 A 
ATOM      4  N   UNL     1       3.348   3.977  17.081  0.00  0.00    +0.000 NA
ATOM      5  C   UNL     1       4.295   4.888  17.187  0.00  0.00    +0.000 A 
ATOM      6  C   UNL     1       5.490   4.342  16.791  0.00  0.00    +0.000 A 
ATOM      7  C   UNL     1       6.642   5.081  16.838  0.00  0.00    +0.000 A 
ATOM      8  F   UNL     1       7.798   4.479  16.523  0.00  0.00    +0.000 F 
ATOM      9  C   UNL     1       6.562   6.420  17.192  0.00  0.00    +0.000 A 
ATOM     10 CL   UNL     1       7.961   7.395  16.927  0.00  0.00    +0.000 Cl
ATOM     11  C   UNL     1       5.344   6.983  17.687  0.00  0.00    +0.000 A 
ATOM     12  C   UNL     1       4.122   6.218  17.785  0.00  0.00    +0.000 A 
ENDROOT
BRANCH   1  16
ATOM     13  C   UNL     1       0.873   9.835  20.484  0.00  0.00    +0.000 A 
ATOM     14  C   UNL     1       1.068   9.825  19.126  0.00  0.00    +0.000 A 
ATOM     15  C   UNL     1       1.555   8.677  18.516  0.00  0.00    +0.000 A 
ATOM     16  C   UNL     1       1.971   7.449  19.180  0.00  0.00    +0.000 A 
ATOM     17  C   UNL     1       1.622   7.448  20.532  0.00  0.00    +0.000 A 
ATOM     18  C   UNL     1       1.086   8.640  21.182  0.00  0.00    +0.000 A 
BRANCH  13  20
ATOM     19  C   UNL     1       1.264  12.233  20.628  0.00  0.00    +0.000 C 
ATOM     20  O   UNL     1       0.512  11.071  20.915  0.00  0.00    +0.000 OA
ENDBRANCH  13  20
ENDBRANCH   1  16
BRANCH   3  21
ATOM     21  C   UNL     1       2.665   3.590  19.257  0.00  0.00    +0.000 C 
ATOM     22  C   UNL     1       3.436   2.499  19.404  0.00  0.00    +0.000 C 
BRANCH  22  23
ATOM     23  C   UNL     1       4.116   2.141  20.675  0.00  0.00    +0.000 C 
BRANCH  23  24
ATOM     24  O   UNL     1       5.328   1.486  20.371  0.00  0.00    +0.000 OA
ATOM     25  H   UNL     1       5.716   1.961  19.618  0.00  0.00    +0.000 HD
ENDBRANCH  23  24
ENDBRANCH  22  23
ENDBRANCH   3  21
TORSDOF 5
ENDMDL
MODEL 9
REMARK VINA RESULT:      -7.4      5.030      7.867
REMARK  Name = 
REMARK  6 active torsions:
REMARK  status: ('A' for Active; 'I' for Inactive)
REMARK    1  A    between atoms: C_1  and  O_2
REMARK    2  A    between atoms: O_2  and  C_3
REMARK    3  A    between atoms: C_6  and  C_7
REMARK    4  A    between atoms: C_9  and  C_10
REMARK    5  A    between atoms: C_11  and  C_12
REMARK    6  A    between atoms: C_12  and  O_13
REMARK                            x       y       z     vdW  Elec       q    Type
REMARK                         _______ _______ _______ _____ _____    ______ ____
ROOT
ATOM      1  C   UNL     1       3.273   6.704  18.595  0.00  0.00    +0.000 A 
ATOM      2  C   UNL     1       3.524   5.806  19.647  0.00  0.00    +0.000 A 
ATOM      3  C   UNL     1       2.491   5.488  20.469  0.00  0.00    +0.000 A 
ATOM      4  N   UNL     1       2.009   6.531  21.108  0.00  0.00    +0.000 NA
ATOM      5  C   UNL     1       1.763   7.570  20.333  0.00  0.00    +0.000 A 
ATOM      6  C   UNL     1       0.766   8.326  20.898  0.00  0.00    +0.000 A 
ATOM      7  C   UNL     1       0.304   9.450  20.267  0.00  0.00    +0.000 A 
ATOM      8  F   UNL     1      -0.728  10.108  20.814  0.00  0.00    +0.000 F 
ATOM      9  C   UNL     1       0.933   9.868  19.103  0.00  0.00    +0.000 A 
ATOM     10 CL   UNL     1       0.550  11.446  18.518  0.00  0.00    +0.000 Cl
ATOM     11  C   UNL     1       1.913   9.052  18.456  0.00  0.00    +0.000 A 
ATOM     12  C   UNL     1       2.351   7.788  19.005  0.00  0.00    +0.000 A 
ENDROOT
BRANCH   1  16
ATOM     13  C   UNL     1       5.542   4.635  15.376  0.00  0.00    +0.000 A 
ATOM     14  C   UNL     1       4.744   3.987  16.286  0.00  0.00    +0.000 A 
ATOM     15  C   UNL     1       3.987   4.731  17.179  0.00  0.00    +0.000 A 
ATOM     16  C   UNL     1       3.988   6.181  17.324  0.00  0.00    +0.000 A 
ATOM     17  C   UNL     1       4.695   6.804  16.293  0.00  0.00    +0.000 A 
ATOM     18  C   UNL     1       5.476   6.033  15.331  0.00  0.00    +0.000 A 
BRANCH  13  20
ATOM     19  C   UNL     1       6.261   3.664  13.263  0.00  0.00    +0.000 C 
ATOM     20  O   UNL     1       6.295   3.750  14.673  0.00  0.00    +0.000 OA
ENDBRANCH  13  20
ENDBRANCH   1  16
BRANCH   3  21
ATOM     21  C   UNL     1       1.375   4.700  19.845  0.00  0.00    +0.000 C 
ATOM     22  C   UNL     1       1.597   3.545  19.196  0.00  0.00    +0.000 C 
BRANCH  22  23
ATOM     23  C   UNL     1       0.536   2.541  18.924  0.00  0.00    +0.000 C 
BRANCH  23  24
ATOM     24  O   UNL     1       1.149   1.314  18.592  0.00  0.00    +0.000 OA
ATOM     25  H   UNL     1       2.069   1.373  18.901  0.00  0.00    +0.000 HD
ENDBRANCH  23  24
ENDBRANCH  22  23
ENDBRANCH   3  21
TORSDOF 5
ENDMDL
