MODEL 1
REMARK VINA RESULT:      -6.8      0.000      0.000
REMARK  Name = 
REMARK  7 active torsions:
REMARK  status: ('A' for Active; 'I' for Inactive)
REMARK    1  A    between atoms: C_1  and  C_2
REMARK    2  A    between atoms: C_2  and  C_3
REMARK    3  A    between atoms: C_3  and  C_4
REMARK    4  A    between atoms: C_3  and  C_5
REMARK    5  A    between atoms: C_10  and  N_11
REMARK    6  A    between atoms: C_12  and  S_13
REMARK    7  A    between atoms: N_14  and  C_15
REMARK                            x       y       z     vdW  Elec       q    Type
REMARK                         _______ _______ _______ _____ _____    ______ ____
ROOT
ATOM      1  N   UNL     1       4.200   4.996  17.752  0.00  0.00    +0.000 NA
ATOM      2  C   UNL     1       3.450   5.981  18.141  0.00  0.00    +0.000 C 
ATOM      3  N   UNL     1       2.519   5.926  19.151  0.00  0.00    +0.000 N 
ATOM      4  H   UNL     1       1.980   6.772  19.286  0.00  0.00    +0.000 HD
ENDROOT
BRANCH   1  10
ATOM      5  C   UNL     1       6.385   5.514  16.711  0.00  0.00    +0.000 A 
ATOM      6  C   UNL     1       7.235   5.377  15.591  0.00  0.00    +0.000 A 
ATOM      7  C   UNL     1       6.799   4.765  14.419  0.00  0.00    +0.000 A 
ATOM      8  C   UNL     1       5.517   4.245  14.353  0.00  0.00    +0.000 A 
ATOM      9  C   UNL     1       4.677   4.339  15.461  0.00  0.00    +0.000 A 
ATOM     10  C   UNL     1       5.062   5.009  16.637  0.00  0.00    +0.000 A 
BRANCH   5  11
ATOM     11  C   UNL     1       7.005   6.162  17.951  0.00  0.00    +0.000 C 
ATOM     12  C   UNL     1       7.613   7.524  17.598  0.00  0.00    +0.000 C 
BRANCH  11  14
ATOM     13  C   UNL     1       8.262   5.644  20.138  0.00  0.00    +0.000 C 
ATOM     14  C   UNL     1       7.911   5.189  18.726  0.00  0.00    +0.000 C 
ENDBRANCH  11  14
ENDBRANCH   5  11
ENDBRANCH   1  10
BRANCH   3  15
ATOM     15  C   UNL     1       2.114   4.824  19.909  0.00  0.00    +0.000 A 
ATOM     16  C   UNL     1       1.287   3.854  19.327  0.00  0.00    +0.000 A 
ATOM     17  C   UNL     1       0.918   2.714  20.040  0.00  0.00    +0.000 A 
ATOM     18  C   UNL     1       1.383   2.569  21.334  0.00  0.00    +0.000 A 
ATOM     19  N   UNL     1       2.174   3.473  21.943  0.00  0.00    +0.000 NA
ATOM     20  C   UNL     1       2.524   4.565  21.219  0.00  0.00    +0.000 A 
ENDBRANCH   3  15
BRANCH   2  21
ATOM     21  S   UNL     1       3.427   7.592  17.418  0.00  0.00    +0.000 S 
ATOM     22  H   UNL     1       3.546   8.248  18.582  0.00  0.00    +0.000 HD
ENDBRANCH   2  21
TORSDOF 5
ENDMDL
MODEL 2
REMARK VINA RESULT:      -6.6      2.750      6.491
REMARK  Name = 
REMARK  7 active torsions:
REMARK  status: ('A' for Active; 'I' for Inactive)
REMARK    1  A    between atoms: C_1  and  C_2
REMARK    2  A    between atoms: C_2  and  C_3
REMARK    3  A    between atoms: C_3  and  C_4
REMARK    4  A    between atoms: C_3  and  C_5
REMARK    5  A    between atoms: C_10  and  N_11
REMARK    6  A    between atoms: C_12  and  S_13
REMARK    7  A    between atoms: N_14  and  C_15
REMARK                            x       y       z     vdW  Elec       q    Type
REMARK                         _______ _______ _______ _____ _____    ______ ____
ROOT
ATOM      1  N   UNL     1       5.013   5.879  16.272  0.00  0.00    +0.000 NA
ATOM      2  C   UNL     1       6.294   5.897  16.478  0.00  0.00    +0.000 C 
ATOM      3  N   UNL     1       7.254   5.483  15.584  0.00  0.00    +0.000 N 
ATOM      4  H   UNL     1       8.205   5.513  15.929  0.00  0.00    +0.000 HD
ENDROOT
BRANCH   1  10
ATOM      5  C   UNL     1       3.510   5.205  18.119  0.00  0.00    +0.000 A 
ATOM      6  C   UNL     1       2.614   5.608  19.135  0.00  0.00    +0.000 A 
ATOM      7  C   UNL     1       2.221   6.936  19.273  0.00  0.00    +0.000 A 
ATOM      8  C   UNL     1       2.740   7.896  18.420  0.00  0.00    +0.000 A 
ATOM      9  C   UNL     1       3.653   7.523  17.436  0.00  0.00    +0.000 A 
ATOM     10  C   UNL     1       4.022   6.182  17.227  0.00  0.00    +0.000 A 
BRANCH   5  11
ATOM     11  C   UNL     1       3.899   3.725  18.111  0.00  0.00    +0.000 C 
ATOM     12  C   UNL     1       2.677   2.852  17.803  0.00  0.00    +0.000 C 
BRANCH  11  14
ATOM     13  C   UNL     1       4.104   2.224  20.193  0.00  0.00    +0.000 C 
ATOM     14  C   UNL     1       4.724   3.332  19.349  0.00  0.00    +0.000 C 
ENDBRANCH  11  14
ENDBRANCH   5  11
ENDBRANCH   1  10
BRANCH   3  15
ATOM     15  C   UNL     1       7.083   4.887  14.332  0.00  0.00    +0.000 A 
ATOM     16  C   UNL     1       6.090   3.914  14.160  0.00  0.00    +0.000 A 
ATOM     17  C   UNL     1       5.857   3.348  12.908  0.00  0.00    +0.000 A 
ATOM     18  C   UNL     1       6.634   3.766  11.843  0.00  0.00    +0.000 A 
ATOM     19  N   UNL     1       7.605   4.692  11.953  0.00  0.00    +0.000 NA
ATOM     20  C   UNL     1       7.799   5.231  13.182  0.00  0.00    +0.000 A 
ENDBRANCH   3  15
BRANCH   2  21
ATOM     21  S   UNL     1       7.079   6.412  17.974  0.00  0.00    +0.000 S 
ATOM     22  H   UNL     1       6.179   5.837  18.786  0.00  0.00    +0.000 HD
ENDBRANCH   2  21
TORSDOF 5
ENDMDL
MODEL 3
REMARK VINA RESULT:      -6.6      2.744      6.552
REMARK  Name = 
REMARK  7 active torsions:
REMARK  status: ('A' for Active; 'I' for Inactive)
REMARK    1  A    between atoms: C_1  and  C_2
REMARK    2  A    between atoms: C_2  and  C_3
REMARK    3  A    between atoms: C_3  and  C_4
REMARK    4  A    between atoms: C_3  and  C_5
REMARK    5  A    between atoms: C_10  and  N_11
REMARK    6  A    between atoms: C_12  and  S_13
REMARK    7  A    between atoms: N_14  and  C_15
REMARK                            x       y       z     vdW  Elec       q    Type
REMARK                         _______ _______ _______ _____ _____    ______ ____
ROOT
ATOM      1  N   UNL     1       4.965   5.855  16.271  0.00  0.00    +0.000 NA
ATOM      2  C   UNL     1       6.248   5.846  16.465  0.00  0.00    +0.000 C 
ATOM      3  N   UNL     1       7.191   5.439  15.551  0.00  0.00    +0.000 N 
ATOM      4  H   UNL     1       8.146   5.443  15.887  0.00  0.00    +0.000 HD
ENDROOT
BRANCH   1  10
ATOM      5  C   UNL     1       3.489   5.164  18.133  0.00  0.00    +0.000 A 
ATOM      6  C   UNL     1       2.608   5.558  19.167  0.00  0.00    +0.000 A 
ATOM      7  C   UNL     1       2.218   6.884  19.323  0.00  0.00    +0.000 A 
ATOM      8  C   UNL     1       2.726   7.853  18.473  0.00  0.00    +0.000 A 
ATOM      9  C   UNL     1       3.624   7.489  17.471  0.00  0.00    +0.000 A 
ATOM     10  C   UNL     1       3.988   6.149  17.244  0.00  0.00    +0.000 A 
BRANCH   5  11
ATOM     11  C   UNL     1       3.875   3.684  18.105  0.00  0.00    +0.000 C 
ATOM     12  C   UNL     1       2.662   2.820  17.743  0.00  0.00    +0.000 C 
BRANCH  11  14
ATOM     13  C   UNL     1       3.905   2.333  20.297  0.00  0.00    +0.000 C 
ATOM     14  C   UNL     1       4.665   3.264  19.357  0.00  0.00    +0.000 C 
ENDBRANCH  11  14
ENDBRANCH   5  11
ENDBRANCH   1  10
BRANCH   3  15
ATOM     15  C   UNL     1       6.998   4.881  14.284  0.00  0.00    +0.000 A 
ATOM     16  C   UNL     1       7.748   5.355  13.200  0.00  0.00    +0.000 A 
ATOM     17  C   UNL     1       7.620   4.776  11.939  0.00  0.00    +0.000 A 
ATOM     18  C   UNL     1       6.732   3.727  11.785  0.00  0.00    +0.000 A 
ATOM     19  N   UNL     1       5.983   3.236  12.791  0.00  0.00    +0.000 NA
ATOM     20  C   UNL     1       6.138   3.815  14.007  0.00  0.00    +0.000 A 
ENDBRANCH   3  15
BRANCH   2  21
ATOM     21  S   UNL     1       7.055   6.306  17.966  0.00  0.00    +0.000 S 
ATOM     22  H   UNL     1       6.303   5.522  18.753  0.00  0.00    +0.000 HD
ENDBRANCH   2  21
TORSDOF 5
ENDMDL
MODEL 4
REMARK VINA RESULT:      -6.5      0.663      1.082
REMARK  Name = 
REMARK  7 active torsions:
REMARK  status: ('A' for Active; 'I' for Inactive)
REMARK    1  A    between atoms: C_1  and  C_2
REMARK    2  A    between atoms: C_2  and  C_3
REMARK    3  A    between atoms: C_3  and  C_4
REMARK    4  A    between atoms: C_3  and  C_5
REMARK    5  A    between atoms: C_10  and  N_11
REMARK    6  A    between atoms: C_12  and  S_13
REMARK    7  A    between atoms: N_14  and  C_15
REMARK                            x       y       z     vdW  Elec       q    Type
REMARK                         _______ _______ _______ _____ _____    ______ ____
ROOT
ATOM      1  N   UNL     1       4.262   4.951  17.568  0.00  0.00    +0.000 NA
ATOM      2  C   UNL     1       3.510   5.928  17.973  0.00  0.00    +0.000 C 
ATOM      3  N   UNL     1       2.562   5.849  18.965  0.00  0.00    +0.000 N 
ATOM      4  H   UNL     1       2.024   6.693  19.116  0.00  0.00    +0.000 HD
ENDROOT
BRANCH   1  10
ATOM      5  C   UNL     1       6.451   5.532  16.570  0.00  0.00    +0.000 A 
ATOM      6  C   UNL     1       7.324   5.423  15.464  0.00  0.00    +0.000 A 
ATOM      7  C   UNL     1       6.926   4.805  14.282  0.00  0.00    +0.000 A 
ATOM      8  C   UNL     1       5.660   4.252  14.190  0.00  0.00    +0.000 A 
ATOM      9  C   UNL     1       4.798   4.318  15.284  0.00  0.00    +0.000 A 
ATOM     10  C   UNL     1       5.144   4.992  16.469  0.00  0.00    +0.000 A 
BRANCH   5  11
ATOM     11  C   UNL     1       7.031   6.189  17.823  0.00  0.00    +0.000 C 
ATOM     12  C   UNL     1       7.609   7.569  17.487  0.00  0.00    +0.000 C 
BRANCH  11  14
ATOM     13  C   UNL     1       8.106   5.589  20.085  0.00  0.00    +0.000 C 
ATOM     14  C   UNL     1       7.949   5.237  18.609  0.00  0.00    +0.000 C 
ENDBRANCH  11  14
ENDBRANCH   5  11
ENDBRANCH   1  10
BRANCH   3  15
ATOM     15  C   UNL     1       2.138   4.727  19.683  0.00  0.00    +0.000 A 
ATOM     16  C   UNL     1       2.571   4.550  21.004  0.00  0.00    +0.000 A 
ATOM     17  C   UNL     1       2.116   3.472  21.762  0.00  0.00    +0.000 A 
ATOM     18  C   UNL     1       1.234   2.582  21.177  0.00  0.00    +0.000 A 
ATOM     19  N   UNL     1       0.791   2.702  19.912  0.00  0.00    +0.000 NA
ATOM     20  C   UNL     1       1.244   3.766  19.203  0.00  0.00    +0.000 A 
ENDBRANCH   3  15
BRANCH   2  21
ATOM     21  S   UNL     1       3.508   7.560  17.297  0.00  0.00    +0.000 S 
ATOM     22  H   UNL     1       2.268   7.860  17.713  0.00  0.00    +0.000 HD
ENDBRANCH   2  21
TORSDOF 5
ENDMDL
MODEL 5
REMARK VINA RESULT:      -6.2      2.184      6.371
REMARK  Name = 
REMARK  7 active torsions:
REMARK  status: ('A' for Active; 'I' for Inactive)
REMARK    1  A    between atoms: C_1  and  C_2
REMARK    2  A    between atoms: C_2  and  C_3
REMARK    3  A    between atoms: C_3  and  C_4
REMARK    4  A    between atoms: C_3  and  C_5
REMARK    5  A    between atoms: C_10  and  N_11
REMARK    6  A    between atoms: C_12  and  S_13
REMARK    7  A    between atoms: N_14  and  C_15
REMARK                            x       y       z     vdW  Elec       q    Type
REMARK                         _______ _______ _______ _____ _____    ______ ____
ROOT
ATOM      1  N   UNL     1       4.632   4.903  19.138  0.00  0.00    +0.000 NA
ATOM      2  C   UNL     1       4.994   4.633  17.922  0.00  0.00    +0.000 C 
ATOM      3  N   UNL     1       6.068   5.187  17.266  0.00  0.00    +0.000 N 
ATOM      4  H   UNL     1       6.173   4.905  16.299  0.00  0.00    +0.000 HD
ENDROOT
BRANCH   1  10
ATOM      5  C   UNL     1       2.359   5.287  20.040  0.00  0.00    +0.000 A 
ATOM      6  C   UNL     1       1.171   4.725  20.559  0.00  0.00    +0.000 A 
ATOM      7  C   UNL     1       1.064   3.361  20.816  0.00  0.00    +0.000 A 
ATOM      8  C   UNL     1       2.130   2.524  20.529  0.00  0.00    +0.000 A 
ATOM      9  C   UNL     1       3.297   3.056  19.983  0.00  0.00    +0.000 A 
ATOM     10  C   UNL     1       3.462   4.437  19.772  0.00  0.00    +0.000 A 
BRANCH   5  11
ATOM     11  C   UNL     1       2.325   6.790  19.757  0.00  0.00    +0.000 C 
ATOM     12  C   UNL     1       1.391   7.501  20.743  0.00  0.00    +0.000 C 
BRANCH  11  14
ATOM     13  C   UNL     1       2.158   8.581  17.914  0.00  0.00    +0.000 C 
ATOM     14  C   UNL     1       2.105   7.098  18.265  0.00  0.00    +0.000 C 
ENDBRANCH  11  14
ENDBRANCH   5  11
ENDBRANCH   1  10
BRANCH   3  15
ATOM     15  C   UNL     1       6.935   6.192  17.701  0.00  0.00    +0.000 A 
ATOM     16  C   UNL     1       6.904   7.446  17.077  0.00  0.00    +0.000 A 
ATOM     17  C   UNL     1       7.715   8.486  17.530  0.00  0.00    +0.000 A 
ATOM     18  C   UNL     1       8.551   8.246  18.606  0.00  0.00    +0.000 A 
ATOM     19  N   UNL     1       8.624   7.060  19.237  0.00  0.00    +0.000 NA
ATOM     20  C   UNL     1       7.816   6.072  18.779  0.00  0.00    +0.000 A 
ENDBRANCH   3  15
BRANCH   2  21
ATOM     21  S   UNL     1       4.151   3.531  16.829  0.00  0.00    +0.000 S 
ATOM     22  H   UNL     1       4.031   4.421  15.831  0.00  0.00    +0.000 HD
ENDBRANCH   2  21
TORSDOF 5
ENDMDL
MODEL 6
REMARK VINA RESULT:      -6.1      2.285      3.174
REMARK  Name = 
REMARK  7 active torsions:
REMARK  status: ('A' for Active; 'I' for Inactive)
REMARK    1  A    between atoms: C_1  and  C_2
REMARK    2  A    between atoms: C_2  and  C_3
REMARK    3  A    between atoms: C_3  and  C_4
REMARK    4  A    between atoms: C_3  and  C_5
REMARK    5  A    between atoms: C_10  and  N_11
REMARK    6  A    between atoms: C_12  and  S_13
REMARK    7  A    between atoms: N_14  and  C_15
REMARK                            x       y       z     vdW  Elec       q    Type
REMARK                         _______ _______ _______ _____ _____    ______ ____
ROOT
ATOM      1  N   UNL     1       4.140   6.145  17.246  0.00  0.00    +0.000 NA
ATOM      2  C   UNL     1       3.753   5.565  18.340  0.00  0.00    +0.000 C 
ATOM      3  N   UNL     1       2.871   6.091  19.255  0.00  0.00    +0.000 N 
ATOM      4  H   UNL     1       2.723   5.528  20.083  0.00  0.00    +0.000 HD
ENDROOT
BRANCH   1  10
ATOM      5  C   UNL     1       6.519   5.851  16.631  0.00  0.00    +0.000 A 
ATOM      6  C   UNL     1       7.464   5.235  15.779  0.00  0.00    +0.000 A 
ATOM      7  C   UNL     1       7.067   4.463  14.691  0.00  0.00    +0.000 A 
ATOM      8  C   UNL     1       5.718   4.260  14.451  0.00  0.00    +0.000 A 
ATOM      9  C   UNL     1       4.772   4.829  15.302  0.00  0.00    +0.000 A 
ATOM     10  C   UNL     1       5.137   5.668  16.371  0.00  0.00    +0.000 A 
BRANCH   5  11
ATOM     11  C   UNL     1       7.090   6.631  17.817  0.00  0.00    +0.000 C 
ATOM     12  C   UNL     1       7.594   8.006  17.363  0.00  0.00    +0.000 C 
BRANCH  11  14
ATOM     13  C   UNL     1       7.593   5.498  20.074  0.00  0.00    +0.000 C 
ATOM     14  C   UNL     1       8.067   5.787  18.654  0.00  0.00    +0.000 C 
ENDBRANCH  11  14
ENDBRANCH   5  11
ENDBRANCH   1  10
BRANCH   3  15
ATOM     15  C   UNL     1       2.275   7.355  19.268  0.00  0.00    +0.000 A 
ATOM     16  C   UNL     1       2.177   8.083  18.075  0.00  0.00    +0.000 A 
ATOM     17  C   UNL     1       1.534   9.320  18.048  0.00  0.00    +0.000 A 
ATOM     18  C   UNL     1       1.001   9.810  19.227  0.00  0.00    +0.000 A 
ATOM     19  N   UNL     1       1.073   9.154  20.401  0.00  0.00    +0.000 NA
ATOM     20  C   UNL     1       1.696   7.950  20.392  0.00  0.00    +0.000 A 
ENDBRANCH   3  15
BRANCH   2  21
ATOM     21  S   UNL     1       4.318   3.994  18.917  0.00  0.00    +0.000 S 
ATOM     22  H   UNL     1       3.158   3.656  19.500  0.00  0.00    +0.000 HD
ENDBRANCH   2  21
TORSDOF 5
ENDMDL
MODEL 7
REMARK VINA RESULT:      -6.1      0.585      1.191
REMARK  Name = 
REMARK  7 active torsions:
REMARK  status: ('A' for Active; 'I' for Inactive)
REMARK    1  A    between atoms: C_1  and  C_2
REMARK    2  A    between atoms: C_2  and  C_3
REMARK    3  A    between atoms: C_3  and  C_4
REMARK    4  A    between atoms: C_3  and  C_5
REMARK    5  A    between atoms: C_10  and  N_11
REMARK    6  A    between atoms: C_12  and  S_13
REMARK    7  A    between atoms: N_14  and  C_15
REMARK                            x       y       z     vdW  Elec       q    Type
REMARK                         _______ _______ _______ _____ _____    ______ ____
ROOT
ATOM      1  N   UNL     1       4.303   4.939  17.873  0.00  0.00    +0.000 NA
ATOM      2  C   UNL     1       3.523   5.924  18.196  0.00  0.00    +0.000 C 
ATOM      3  N   UNL     1       2.549   5.888  19.166  0.00  0.00    +0.000 N 
ATOM      4  H   UNL     1       1.993   6.730  19.249  0.00  0.00    +0.000 HD
ENDROOT
BRANCH   1  10
ATOM      5  C   UNL     1       6.605   5.124  16.984  0.00  0.00    +0.000 A 
ATOM      6  C   UNL     1       7.473   4.972  15.879  0.00  0.00    +0.000 A 
ATOM      7  C   UNL     1       6.991   4.644  14.615  0.00  0.00    +0.000 A 
ATOM      8  C   UNL     1       5.635   4.425  14.435  0.00  0.00    +0.000 A 
ATOM      9  C   UNL     1       4.768   4.535  15.521  0.00  0.00    +0.000 A 
ATOM     10  C   UNL     1       5.214   4.929  16.796  0.00  0.00    +0.000 A 
BRANCH   5  11
ATOM     11  C   UNL     1       7.272   5.436  18.325  0.00  0.00    +0.000 C 
ATOM     12  C   UNL     1       6.307   5.152  19.483  0.00  0.00    +0.000 C 
BRANCH  11  14
ATOM     13  C   UNL     1       7.257   7.867  17.475  0.00  0.00    +0.000 C 
ATOM     14  C   UNL     1       7.956   6.815  18.329  0.00  0.00    +0.000 C 
ENDBRANCH  11  14
ENDBRANCH   5  11
ENDBRANCH   1  10
BRANCH   3  15
ATOM     15  C   UNL     1       2.126   4.805  19.940  0.00  0.00    +0.000 A 
ATOM     16  C   UNL     1       1.264   3.852  19.381  0.00  0.00    +0.000 A 
ATOM     17  C   UNL     1       0.875   2.730  20.110  0.00  0.00    +0.000 A 
ATOM     18  C   UNL     1       1.356   2.585  21.399  0.00  0.00    +0.000 A 
ATOM     19  N   UNL     1       2.180   3.472  21.986  0.00  0.00    +0.000 NA
ATOM     20  C   UNL     1       2.549   4.547  21.247  0.00  0.00    +0.000 A 
ENDBRANCH   3  15
BRANCH   2  21
ATOM     21  S   UNL     1       3.511   7.511  17.420  0.00  0.00    +0.000 S 
ATOM     22  H   UNL     1       2.699   8.080  18.324  0.00  0.00    +0.000 HD
ENDBRANCH   2  21
TORSDOF 5
ENDMDL
MODEL 8
REMARK VINA RESULT:      -6.0      2.217      6.450
REMARK  Name = 
REMARK  7 active torsions:
REMARK  status: ('A' for Active; 'I' for Inactive)
REMARK    1  A    between atoms: C_1  and  C_2
REMARK    2  A    between atoms: C_2  and  C_3
REMARK    3  A    between atoms: C_3  and  C_4
REMARK    4  A    between atoms: C_3  and  C_5
REMARK    5  A    between atoms: C_10  and  N_11
REMARK    6  A    between atoms: C_12  and  S_13
REMARK    7  A    between atoms: N_14  and  C_15
REMARK                            x       y       z     vdW  Elec       q    Type
REMARK                         _______ _______ _______ _____ _____    ______ ____
ROOT
ATOM      1  N   UNL     1       4.404   4.260  19.428  0.00  0.00    +0.000 NA
ATOM      2  C   UNL     1       4.829   3.723  18.326  0.00  0.00    +0.000 C 
ATOM      3  N   UNL     1       5.830   4.224  17.527  0.00  0.00    +0.000 N 
ATOM      4  H   UNL     1       5.998   3.708  16.672  0.00  0.00    +0.000 HD
ENDROOT
BRANCH   1  10
ATOM      5  C   UNL     1       1.993   4.343  19.981  0.00  0.00    +0.000 A 
ATOM      6  C   UNL     1       0.909   3.766  20.682  0.00  0.00    +0.000 A 
ATOM      7  C   UNL     1       1.096   2.707  21.565  0.00  0.00    +0.000 A 
ATOM      8  C   UNL     1       2.364   2.178  21.742  0.00  0.00    +0.000 A 
ATOM      9  C   UNL     1       3.439   2.710  21.032  0.00  0.00    +0.000 A 
ATOM     10  C   UNL     1       3.296   3.822  20.182  0.00  0.00    +0.000 A 
BRANCH   5  11
ATOM     11  C   UNL     1       1.642   5.467  19.005  0.00  0.00    +0.000 C 
ATOM     12  C   UNL     1       1.561   4.927  17.572  0.00  0.00    +0.000 C 
BRANCH  11  14
ATOM     13  C   UNL     1       3.066   7.322  17.929  0.00  0.00    +0.000 C 
ATOM     14  C   UNL     1       2.515   6.717  19.215  0.00  0.00    +0.000 C 
ENDBRANCH  11  14
ENDBRANCH   5  11
ENDBRANCH   1  10
BRANCH   3  15
ATOM     15  C   UNL     1       6.536   5.423  17.657  0.00  0.00    +0.000 A 
ATOM     16  C   UNL     1       7.440   5.579  18.716  0.00  0.00    +0.000 A 
ATOM     17  C   UNL     1       8.202   6.741  18.836  0.00  0.00    +0.000 A 
ATOM     18  C   UNL     1       8.038   7.734  17.888  0.00  0.00    +0.000 A 
ATOM     19  N   UNL     1       7.179   7.639  16.855  0.00  0.00    +0.000 NA
ATOM     20  C   UNL     1       6.461   6.493  16.761  0.00  0.00    +0.000 A 
ENDBRANCH   3  15
BRANCH   2  21
ATOM     21  S   UNL     1       4.177   2.257  17.588  0.00  0.00    +0.000 S 
ATOM     22  H   UNL     1       4.155   2.750  16.340  0.00  0.00    +0.000 HD
ENDBRANCH   2  21
TORSDOF 5
ENDMDL
MODEL 9
REMARK VINA RESULT:      -5.9      2.191      3.070
REMARK  Name = 
REMARK  7 active torsions:
REMARK  status: ('A' for Active; 'I' for Inactive)
REMARK    1  A    between atoms: C_1  and  C_2
REMARK    2  A    between atoms: C_2  and  C_3
REMARK    3  A    between atoms: C_3  and  C_4
REMARK    4  A    between atoms: C_3  and  C_5
REMARK    5  A    between atoms: C_10  and  N_11
REMARK    6  A    between atoms: C_12  and  S_13
REMARK    7  A    between atoms: N_14  and  C_15
REMARK                            x       y       z     vdW  Elec       q    Type
REMARK                         _______ _______ _______ _____ _____    ______ ____
ROOT
ATOM      1  N   UNL     1       4.124   5.915  17.379  0.00  0.00    +0.000 NA
ATOM      2  C   UNL     1       3.850   5.303  18.490  0.00  0.00    +0.000 C 
ATOM      3  N   UNL     1       2.999   5.762  19.467  0.00  0.00    +0.000 N 
ATOM      4  H   UNL     1       2.944   5.184  20.297  0.00  0.00    +0.000 HD
ENDROOT
BRANCH   1  10
ATOM      5  C   UNL     1       6.478   5.706  16.647  0.00  0.00    +0.000 A 
ATOM      6  C   UNL     1       7.395   5.162  15.719  0.00  0.00    +0.000 A 
ATOM      7  C   UNL     1       6.964   4.453  14.602  0.00  0.00    +0.000 A 
ATOM      8  C   UNL     1       5.609   4.240  14.407  0.00  0.00    +0.000 A 
ATOM      9  C   UNL     1       4.692   4.737  15.331  0.00  0.00    +0.000 A 
ATOM     10  C   UNL     1       5.090   5.514  16.435  0.00  0.00    +0.000 A 
BRANCH   5  11
ATOM     11  C   UNL     1       7.087   6.419  17.855  0.00  0.00    +0.000 C 
ATOM     12  C   UNL     1       7.645   7.788  17.446  0.00  0.00    +0.000 C 
BRANCH  11  14
ATOM     13  C   UNL     1       7.891   5.624  20.169  0.00  0.00    +0.000 C 
ATOM     14  C   UNL     1       8.035   5.508  18.655  0.00  0.00    +0.000 C 
ENDBRANCH  11  14
ENDBRANCH   5  11
ENDBRANCH   1  10
BRANCH   3  15
ATOM     15  C   UNL     1       2.322   6.983  19.535  0.00  0.00    +0.000 A 
ATOM     16  C   UNL     1       1.703   7.362  20.733  0.00  0.00    +0.000 A 
ATOM     17  C   UNL     1       1.074   8.601  20.847  0.00  0.00    +0.000 A 
ATOM     18  C   UNL     1       1.073   9.441  19.749  0.00  0.00    +0.000 A 
ATOM     19  N   UNL     1       1.647   9.124  18.573  0.00  0.00    +0.000 NA
ATOM     20  C   UNL     1       2.259   7.916  18.498  0.00  0.00    +0.000 A 
ENDBRANCH   3  15
BRANCH   2  21
ATOM     21  S   UNL     1       4.556   3.769  19.009  0.00  0.00    +0.000 S 
ATOM     22  H   UNL     1       3.467   3.355  19.675  0.00  0.00    +0.000 HD
ENDBRANCH   2  21
TORSDOF 5
ENDMDL
