MODEL 1
REMARK VINA RESULT:      -6.7      0.000      0.000
REMARK  Name = 
REMARK  8 active torsions:
REMARK  status: ('A' for Active; 'I' for Inactive)
REMARK    1  A    between atoms: C_1  and  C_2
REMARK    2  A    between atoms: C_2  and  N_3
REMARK    3  A    between atoms: N_3  and  C_4
REMARK    4  A    between atoms: N_3  and  C_25
REMARK    5  A    between atoms: C_4  and  C_5
REMARK    6  A    between atoms: C_9  and  C_10
REMARK    7  A    between atoms: C_18  and  C_19
REMARK    8  A    between atoms: C_28  and  C_29
REMARK                            x       y       z     vdW  Elec       q    Type
REMARK                         _______ _______ _______ _____ _____    ______ ____
ROOT
ATOM      1  C   UNL     1      -1.053  11.843  20.447  0.00  0.00    +0.000 A 
ATOM      2  N   UNL     1      -0.337  11.024  19.617  0.00  0.00    +0.000 NA
ATOM      3  C   UNL     1       0.402  10.062  20.171  0.00  0.00    +0.000 A 
ATOM      4  C   UNL     1       1.070   9.179  19.332  0.00  0.00    +0.000 A 
ATOM      5  C   UNL     1       1.792   8.093  19.837  0.00  0.00    +0.000 A 
ATOM      6  C   UNL     1       1.869   7.941  21.225  0.00  0.00    +0.000 A 
ATOM      7  C   UNL     1       1.220   8.849  22.072  0.00  0.00    +0.000 A 
ATOM      8  C   UNL     1       0.469   9.905  21.567  0.00  0.00    +0.000 A 
ATOM      9  N   UNL     1      -0.204  10.736  22.394  0.00  0.00    +0.000 NA
ATOM     10  C   UNL     1      -0.991  11.714  21.844  0.00  0.00    +0.000 A 
ENDROOT
BRANCH  10  11
ATOM     11  C   UNL     1      -1.787  12.491  22.839  0.00  0.00    +0.000 A 
ATOM     12  C   UNL     1      -1.456  13.792  23.249  0.00  0.00    +0.000 A 
ATOM     13  C   UNL     1      -2.258  14.544  24.112  0.00  0.00    +0.000 A 
ATOM     14  C   UNL     1      -3.406  13.983  24.646  0.00  0.00    +0.000 A 
ATOM     15  C   UNL     1      -3.743  12.676  24.320  0.00  0.00    +0.000 A 
ATOM     16  C   UNL     1      -2.942  11.940  23.426  0.00  0.00    +0.000 A 
ENDBRANCH  10  11
BRANCH   5  17
ATOM     17  C   UNL     1       2.431   7.090  18.907  0.00  0.00    +0.000 C 
ATOM     18  F   UNL     1       3.632   6.624  19.350  0.00  0.00    +0.000 F 
ATOM     19  F   UNL     1       1.653   5.993  18.707  0.00  0.00    +0.000 F 
ATOM     20  F   UNL     1       2.667   7.614  17.673  0.00  0.00    +0.000 F 
ENDBRANCH   5  17
BRANCH   1  21
ATOM     21  C   UNL     1      -2.018  12.746  19.719  0.00  0.00    +0.000 C 
BRANCH  21  22
ATOM     22  N   UNL     1      -3.423  12.335  19.483  0.00  0.00    +0.000 N 
BRANCH  22  23
ATOM     23  C   UNL     1      -4.384  12.970  20.315  0.00  0.00    +0.000 A 
ATOM     24  C   UNL     1      -4.251  14.306  20.735  0.00  0.00    +0.000 A 
ATOM     25  C   UNL     1      -5.160  14.915  21.612  0.00  0.00    +0.000 A 
ATOM     26  C   UNL     1      -6.252  14.209  22.105  0.00  0.00    +0.000 A 
ATOM     27  C   UNL     1      -7.221  14.840  23.056  0.00  0.00    +0.000 C 
ATOM     28  C   UNL     1      -6.434  12.895  21.683  0.00  0.00    +0.000 A 
ATOM     29  C   UNL     1      -5.528  12.300  20.794  0.00  0.00    +0.000 A 
ENDBRANCH  22  23
BRANCH  22  31
ATOM     30  C   UNL     1      -3.310  10.331  17.851  0.00  0.00    +0.000 C 
ATOM     31  C   UNL     1      -3.937  11.640  18.286  0.00  0.00    +0.000 C 
ENDBRANCH  22  31
ENDBRANCH  21  22
ENDBRANCH   1  21
TORSDOF 6
ENDMDL
MODEL 2
REMARK VINA RESULT:      -6.7      6.827     11.174
REMARK  Name = 
REMARK  8 active torsions:
REMARK  status: ('A' for Active; 'I' for Inactive)
REMARK    1  A    between atoms: C_1  and  C_2
REMARK    2  A    between atoms: C_2  and  N_3
REMARK    3  A    between atoms: N_3  and  C_4
REMARK    4  A    between atoms: N_3  and  C_25
REMARK    5  A    between atoms: C_4  and  C_5
REMARK    6  A    between atoms: C_9  and  C_10
REMARK    7  A    between atoms: C_18  and  C_19
REMARK    8  A    between atoms: C_28  and  C_29
REMARK                            x       y       z     vdW  Elec       q    Type
REMARK                         _______ _______ _______ _____ _____    ______ ____
ROOT
ATOM      1  C   UNL     1       5.708   4.795  16.534  0.00  0.00    +0.000 A 
ATOM      2  N   UNL     1       5.269   3.931  15.567  0.00  0.00    +0.000 NA
ATOM      3  C   UNL     1       5.883   3.953  14.383  0.00  0.00    +0.000 A 
ATOM      4  C   UNL     1       5.494   3.028  13.423  0.00  0.00    +0.000 A 
ATOM      5  C   UNL     1       6.149   2.931  12.191  0.00  0.00    +0.000 A 
ATOM      6  C   UNL     1       7.186   3.831  11.924  0.00  0.00    +0.000 A 
ATOM      7  C   UNL     1       7.558   4.784  12.881  0.00  0.00    +0.000 A 
ATOM      8  C   UNL     1       6.932   4.852  14.121  0.00  0.00    +0.000 A 
ATOM      9  N   UNL     1       7.344   5.734  15.059  0.00  0.00    +0.000 NA
ATOM     10  C   UNL     1       6.745   5.710  16.291  0.00  0.00    +0.000 A 
ENDROOT
BRANCH  10  11
ATOM     11  C   UNL     1       7.359   6.635  17.288  0.00  0.00    +0.000 A 
ATOM     12  C   UNL     1       7.854   6.214  18.532  0.00  0.00    +0.000 A 
ATOM     13  C   UNL     1       8.508   7.073  19.420  0.00  0.00    +0.000 A 
ATOM     14  C   UNL     1       8.637   8.416  19.107  0.00  0.00    +0.000 A 
ATOM     15  C   UNL     1       8.108   8.893  17.915  0.00  0.00    +0.000 A 
ATOM     16  C   UNL     1       7.478   8.012  17.017  0.00  0.00    +0.000 A 
ENDBRANCH  10  11
BRANCH   5  17
ATOM     17  C   UNL     1       5.775   1.856  11.200  0.00  0.00    +0.000 C 
ATOM     18  F   UNL     1       5.687   0.614  11.750  0.00  0.00    +0.000 F 
ATOM     19  F   UNL     1       4.574   2.089  10.605  0.00  0.00    +0.000 F 
ATOM     20  F   UNL     1       6.681   1.752  10.189  0.00  0.00    +0.000 F 
ENDBRANCH   5  17
BRANCH   1  21
ATOM     21  C   UNL     1       5.101   4.539  17.892  0.00  0.00    +0.000 C 
BRANCH  21  22
ATOM     22  N   UNL     1       3.637   4.371  18.057  0.00  0.00    +0.000 N 
BRANCH  22  23
ATOM     23  C   UNL     1       2.978   5.442  18.720  0.00  0.00    +0.000 A 
ATOM     24  C   UNL     1       2.912   6.738  18.174  0.00  0.00    +0.000 A 
ATOM     25  C   UNL     1       2.325   7.813  18.855  0.00  0.00    +0.000 A 
ATOM     26  C   UNL     1       1.769   7.635  20.118  0.00  0.00    +0.000 A 
ATOM     27  C   UNL     1       1.156   8.778  20.865  0.00  0.00    +0.000 C 
ATOM     28  C   UNL     1       1.787   6.359  20.674  0.00  0.00    +0.000 A 
ATOM     29  C   UNL     1       2.363   5.286  19.978  0.00  0.00    +0.000 A 
ENDBRANCH  22  23
BRANCH  22  31
ATOM     30  C   UNL     1       2.298   2.159  18.000  0.00  0.00    +0.000 C 
ATOM     31  C   UNL     1       2.782   3.421  17.318  0.00  0.00    +0.000 C 
ENDBRANCH  22  31
ENDBRANCH  21  22
ENDBRANCH   1  21
TORSDOF 6
ENDMDL
MODEL 3
REMARK VINA RESULT:      -6.6      7.022     11.202
REMARK  Name = 
REMARK  8 active torsions:
REMARK  status: ('A' for Active; 'I' for Inactive)
REMARK    1  A    between atoms: C_1  and  C_2
REMARK    2  A    between atoms: C_2  and  N_3
REMARK    3  A    between atoms: N_3  and  C_4
REMARK    4  A    between atoms: N_3  and  C_25
REMARK    5  A    between atoms: C_4  and  C_5
REMARK    6  A    between atoms: C_9  and  C_10
REMARK    7  A    between atoms: C_18  and  C_19
REMARK    8  A    between atoms: C_28  and  C_29
REMARK                            x       y       z     vdW  Elec       q    Type
REMARK                         _______ _______ _______ _____ _____    ______ ____
ROOT
ATOM      1  C   UNL     1       5.945   4.755  16.716  0.00  0.00    +0.000 A 
ATOM      2  N   UNL     1       5.516   3.859  15.774  0.00  0.00    +0.000 NA
ATOM      3  C   UNL     1       6.018   3.956  14.543  0.00  0.00    +0.000 A 
ATOM      4  C   UNL     1       5.645   3.004  13.602  0.00  0.00    +0.000 A 
ATOM      5  C   UNL     1       6.197   2.988  12.317  0.00  0.00    +0.000 A 
ATOM      6  C   UNL     1       7.106   3.995  11.978  0.00  0.00    +0.000 A 
ATOM      7  C   UNL     1       7.458   4.973  12.917  0.00  0.00    +0.000 A 
ATOM      8  C   UNL     1       6.940   4.964  14.207  0.00  0.00    +0.000 A 
ATOM      9  N   UNL     1       7.338   5.876  15.122  0.00  0.00    +0.000 NA
ATOM     10  C   UNL     1       6.855   5.777  16.400  0.00  0.00    +0.000 A 
ENDROOT
BRANCH  10  11
ATOM     11  C   UNL     1       7.454   6.753  17.358  0.00  0.00    +0.000 A 
ATOM     12  C   UNL     1       7.999   6.385  18.598  0.00  0.00    +0.000 A 
ATOM     13  C   UNL     1       8.639   7.293  19.446  0.00  0.00    +0.000 A 
ATOM     14  C   UNL     1       8.701   8.633  19.098  0.00  0.00    +0.000 A 
ATOM     15  C   UNL     1       8.120   9.056  17.909  0.00  0.00    +0.000 A 
ATOM     16  C   UNL     1       7.506   8.126  17.050  0.00  0.00    +0.000 A 
ENDBRANCH  10  11
BRANCH   5  17
ATOM     17  C   UNL     1       5.851   1.889  11.342  0.00  0.00    +0.000 C 
ATOM     18  F   UNL     1       6.761   1.744  10.340  0.00  0.00    +0.000 F 
ATOM     19  F   UNL     1       5.754   0.671  11.940  0.00  0.00    +0.000 F 
ATOM     20  F   UNL     1       4.654   2.104  10.730  0.00  0.00    +0.000 F 
ENDBRANCH   5  17
BRANCH   1  21
ATOM     21  C   UNL     1       5.490   4.424  18.115  0.00  0.00    +0.000 C 
BRANCH  21  22
ATOM     22  N   UNL     1       4.049   4.411  18.470  0.00  0.00    +0.000 N 
BRANCH  22  23
ATOM     23  C   UNL     1       3.449   5.692  18.601  0.00  0.00    +0.000 A 
ATOM     24  C   UNL     1       2.699   6.060  19.733  0.00  0.00    +0.000 A 
ATOM     25  C   UNL     1       2.047   7.297  19.836  0.00  0.00    +0.000 A 
ATOM     26  C   UNL     1       2.124   8.228  18.806  0.00  0.00    +0.000 A 
ATOM     27  C   UNL     1       1.418   9.545  18.893  0.00  0.00    +0.000 C 
ATOM     28  C   UNL     1       2.887   7.911  17.684  0.00  0.00    +0.000 A 
ATOM     29  C   UNL     1       3.547   6.677  17.597  0.00  0.00    +0.000 A 
ENDBRANCH  22  23
BRANCH  22  31
ATOM     30  C   UNL     1       1.846   3.403  17.565  0.00  0.00    +0.000 C 
ATOM     31  C   UNL     1       3.135   3.258  18.347  0.00  0.00    +0.000 C 
ENDBRANCH  22  31
ENDBRANCH  21  22
ENDBRANCH   1  21
TORSDOF 6
ENDMDL
MODEL 4
REMARK VINA RESULT:      -6.6      9.672     12.160
REMARK  Name = 
REMARK  8 active torsions:
REMARK  status: ('A' for Active; 'I' for Inactive)
REMARK    1  A    between atoms: C_1  and  C_2
REMARK    2  A    between atoms: C_2  and  N_3
REMARK    3  A    between atoms: N_3  and  C_4
REMARK    4  A    between atoms: N_3  and  C_25
REMARK    5  A    between atoms: C_4  and  C_5
REMARK    6  A    between atoms: C_9  and  C_10
REMARK    7  A    between atoms: C_18  and  C_19
REMARK    8  A    between atoms: C_28  and  C_29
REMARK                            x       y       z     vdW  Elec       q    Type
REMARK                         _______ _______ _______ _____ _____    ______ ____
ROOT
ATOM      1  C   UNL     1       5.245   5.699  16.971  0.00  0.00    +0.000 A 
ATOM      2  N   UNL     1       4.580   5.611  18.164  0.00  0.00    +0.000 NA
ATOM      3  C   UNL     1       3.869   4.508  18.405  0.00  0.00    +0.000 A 
ATOM      4  C   UNL     1       3.255   4.379  19.644  0.00  0.00    +0.000 A 
ATOM      5  C   UNL     1       2.567   3.215  20.003  0.00  0.00    +0.000 A 
ATOM      6  C   UNL     1       2.468   2.190  19.056  0.00  0.00    +0.000 A 
ATOM      7  C   UNL     1       3.062   2.334  17.796  0.00  0.00    +0.000 A 
ATOM      8  C   UNL     1       3.780   3.475  17.455  0.00  0.00    +0.000 A 
ATOM      9  N   UNL     1       4.402   3.573  16.259  0.00  0.00    +0.000 NA
ATOM     10  C   UNL     1       5.159   4.685  16.002  0.00  0.00    +0.000 A 
ENDROOT
BRANCH  10  11
ATOM     11  C   UNL     1       5.902   4.634  14.709  0.00  0.00    +0.000 A 
ATOM     12  C   UNL     1       7.111   5.312  14.484  0.00  0.00    +0.000 A 
ATOM     13  C   UNL     1       7.845   5.184  13.301  0.00  0.00    +0.000 A 
ATOM     14  C   UNL     1       7.351   4.406  12.266  0.00  0.00    +0.000 A 
ATOM     15  C   UNL     1       6.127   3.767  12.418  0.00  0.00    +0.000 A 
ATOM     16  C   UNL     1       5.414   3.879  13.626  0.00  0.00    +0.000 A 
ENDBRANCH  10  11
BRANCH   5  17
ATOM     17  C   UNL     1       1.989   3.055  21.387  0.00  0.00    +0.000 C 
ATOM     18  F   UNL     1       0.638   2.888  21.398  0.00  0.00    +0.000 F 
ATOM     19  F   UNL     1       2.504   1.985  22.050  0.00  0.00    +0.000 F 
ATOM     20  F   UNL     1       2.236   4.139  22.174  0.00  0.00    +0.000 F 
ENDBRANCH   5  17
BRANCH   1  21
ATOM     21  C   UNL     1       6.187   6.874  16.890  0.00  0.00    +0.000 C 
BRANCH  21  22
ATOM     22  N   UNL     1       7.382   6.960  17.765  0.00  0.00    +0.000 N 
BRANCH  22  23
ATOM     23  C   UNL     1       7.861   8.277  18.004  0.00  0.00    +0.000 A 
ATOM     24  C   UNL     1       7.407   9.388  17.269  0.00  0.00    +0.000 A 
ATOM     25  C   UNL     1       7.927  10.677  17.453  0.00  0.00    +0.000 A 
ATOM     26  C   UNL     1       8.926  10.911  18.392  0.00  0.00    +0.000 A 
ATOM     27  C   UNL     1       9.505  12.279  18.586  0.00  0.00    +0.000 C 
ATOM     28  C   UNL     1       9.375   9.841  19.161  0.00  0.00    +0.000 A 
ATOM     29  C   UNL     1       8.838   8.558  18.980  0.00  0.00    +0.000 A 
ENDBRANCH  22  23
BRANCH  22  31
ATOM     30  C   UNL     1       8.084   4.497  18.129  0.00  0.00    +0.000 C 
ATOM     31  C   UNL     1       7.879   5.899  18.664  0.00  0.00    +0.000 C 
ENDBRANCH  22  31
ENDBRANCH  21  22
ENDBRANCH   1  21
TORSDOF 6
ENDMDL
MODEL 5
REMARK VINA RESULT:      -6.5      3.172      7.144
REMARK  Name = 
REMARK  8 active torsions:
REMARK  status: ('A' for Active; 'I' for Inactive)
REMARK    1  A    between atoms: C_1  and  C_2
REMARK    2  A    between atoms: C_2  and  N_3
REMARK    3  A    between atoms: N_3  and  C_4
REMARK    4  A    between atoms: N_3  and  C_25
REMARK    5  A    between atoms: C_4  and  C_5
REMARK    6  A    between atoms: C_9  and  C_10
REMARK    7  A    between atoms: C_18  and  C_19
REMARK    8  A    between atoms: C_28  and  C_29
REMARK                            x       y       z     vdW  Elec       q    Type
REMARK                         _______ _______ _______ _____ _____    ______ ____
ROOT
ATOM      1  C   UNL     1      -0.806  10.903  19.427  0.00  0.00    +0.000 A 
ATOM      2  N   UNL     1      -1.027  10.315  18.210  0.00  0.00    +0.000 NA
ATOM      3  C   UNL     1      -2.156  10.613  17.567  0.00  0.00    +0.000 A 
ATOM      4  C   UNL     1      -2.352  10.080  16.299  0.00  0.00    +0.000 A 
ATOM      5  C   UNL     1      -3.468  10.417  15.527  0.00  0.00    +0.000 A 
ATOM      6  C   UNL     1      -4.421  11.273  16.086  0.00  0.00    +0.000 A 
ATOM      7  C   UNL     1      -4.239  11.787  17.376  0.00  0.00    +0.000 A 
ATOM      8  C   UNL     1      -3.108  11.483  18.127  0.00  0.00    +0.000 A 
ATOM      9  N   UNL     1      -2.914  12.037  19.345  0.00  0.00    +0.000 NA
ATOM     10  C   UNL     1      -1.748  11.765  20.011  0.00  0.00    +0.000 A 
ENDROOT
BRANCH  10  11
ATOM     11  C   UNL     1      -1.580  12.524  21.285  0.00  0.00    +0.000 A 
ATOM     12  C   UNL     1      -0.538  13.437  21.510  0.00  0.00    +0.000 A 
ATOM     13  C   UNL     1      -0.442  14.210  22.671  0.00  0.00    +0.000 A 
ATOM     14  C   UNL     1      -1.371  14.045  23.685  0.00  0.00    +0.000 A 
ATOM     15  C   UNL     1      -2.385  13.108  23.535  0.00  0.00    +0.000 A 
ATOM     16  C   UNL     1      -2.488  12.358  22.348  0.00  0.00    +0.000 A 
ENDBRANCH  10  11
BRANCH   5  17
ATOM     17  C   UNL     1      -3.614   9.903  14.115  0.00  0.00    +0.000 C 
ATOM     18  F   UNL     1      -4.082  10.836  13.241  0.00  0.00    +0.000 F 
ATOM     19  F   UNL     1      -2.438   9.459  13.596  0.00  0.00    +0.000 F 
ATOM     20  F   UNL     1      -4.479   8.854  14.038  0.00  0.00    +0.000 F 
ENDBRANCH   5  17
BRANCH   1  21
ATOM     21  C   UNL     1       0.585  10.674  19.964  0.00  0.00    +0.000 C 
BRANCH  21  22
ATOM     22  N   UNL     1       0.918   9.452  20.735  0.00  0.00    +0.000 N 
BRANCH  22  23
ATOM     23  C   UNL     1       1.576   8.433  19.995  0.00  0.00    +0.000 A 
ATOM     24  C   UNL     1       2.013   8.626  18.672  0.00  0.00    +0.000 A 
ATOM     25  C   UNL     1       2.600   7.602  17.915  0.00  0.00    +0.000 A 
ATOM     26  C   UNL     1       2.781   6.334  18.456  0.00  0.00    +0.000 A 
ATOM     27  C   UNL     1       3.389   5.225  17.654  0.00  0.00    +0.000 C 
ATOM     28  C   UNL     1       2.391   6.116  19.775  0.00  0.00    +0.000 A 
ATOM     29  C   UNL     1       1.819   7.151  20.529  0.00  0.00    +0.000 A 
ENDBRANCH  22  23
BRANCH  22  31
ATOM     30  C   UNL     1      -0.299   9.574  23.015  0.00  0.00    +0.000 C 
ATOM     31  C   UNL     1       0.960   9.338  22.207  0.00  0.00    +0.000 C 
ENDBRANCH  22  31
ENDBRANCH  21  22
ENDBRANCH   1  21
TORSDOF 6
ENDMDL
MODEL 6
REMARK VINA RESULT:      -6.5      3.006      5.349
REMARK  Name = 
REMARK  8 active torsions:
REMARK  status: ('A' for Active; 'I' for Inactive)
REMARK    1  A    between atoms: C_1  and  C_2
REMARK    2  A    between atoms: C_2  and  N_3
REMARK    3  A    between atoms: N_3  and  C_4
REMARK    4  A    between atoms: N_3  and  C_25
REMARK    5  A    between atoms: C_4  and  C_5
REMARK    6  A    between atoms: C_9  and  C_10
REMARK    7  A    between atoms: C_18  and  C_19
REMARK    8  A    between atoms: C_28  and  C_29
REMARK                            x       y       z     vdW  Elec       q    Type
REMARK                         _______ _______ _______ _____ _____    ______ ____
ROOT
ATOM      1  C   UNL     1       2.018   8.538  18.556  0.00  0.00    +0.000 A 
ATOM      2  N   UNL     1       2.795   8.021  17.555  0.00  0.00    +0.000 NA
ATOM      3  C   UNL     1       3.526   6.940  17.825  0.00  0.00    +0.000 A 
ATOM      4  C   UNL     1       4.258   6.365  16.793  0.00  0.00    +0.000 A 
ATOM      5  C   UNL     1       4.978   5.180  16.977  0.00  0.00    +0.000 A 
ATOM      6  C   UNL     1       4.987   4.606  18.251  0.00  0.00    +0.000 A 
ATOM      7  C   UNL     1       4.274   5.202  19.299  0.00  0.00    +0.000 A 
ATOM      8  C   UNL     1       3.525   6.358  19.105  0.00  0.00    +0.000 A 
ATOM      9  N   UNL     1       2.790   6.886  20.109  0.00  0.00    +0.000 NA
ATOM     10  C   UNL     1       2.011   7.981  19.846  0.00  0.00    +0.000 A 
ENDROOT
BRANCH  10  11
ATOM     11  C   UNL     1       1.146   8.406  20.986  0.00  0.00    +0.000 A 
ATOM     12  C   UNL     1       1.645   8.996  22.158  0.00  0.00    +0.000 A 
ATOM     13  C   UNL     1       0.820   9.472  23.180  0.00  0.00    +0.000 A 
ATOM     14  C   UNL     1      -0.554   9.316  23.083  0.00  0.00    +0.000 A 
ATOM     15  C   UNL     1      -1.091   8.681  21.971  0.00  0.00    +0.000 A 
ATOM     16  C   UNL     1      -0.250   8.233  20.935  0.00  0.00    +0.000 A 
ENDBRANCH  10  11
BRANCH   5  17
ATOM     17  C   UNL     1       5.687   4.520  15.819  0.00  0.00    +0.000 C 
ATOM     18  F   UNL     1       5.619   3.160  15.842  0.00  0.00    +0.000 F 
ATOM     19  F   UNL     1       5.187   4.901  14.614  0.00  0.00    +0.000 F 
ATOM     20  F   UNL     1       7.014   4.826  15.789  0.00  0.00    +0.000 F 
ENDBRANCH   5  17
BRANCH   1  21
ATOM     21  C   UNL     1       1.071   9.616  18.090  0.00  0.00    +0.000 C 
BRANCH  21  22
ATOM     22  N   UNL     1       1.286  11.037  18.458  0.00  0.00    +0.000 N 
BRANCH  22  23
ATOM     23  C   UNL     1       0.378  11.554  19.421  0.00  0.00    +0.000 A 
ATOM     24  C   UNL     1       0.811  12.164  20.613  0.00  0.00    +0.000 A 
ATOM     25  C   UNL     1      -0.080  12.613  21.598  0.00  0.00    +0.000 A 
ATOM     26  C   UNL     1      -1.454  12.474  21.428  0.00  0.00    +0.000 A 
ATOM     27  C   UNL     1      -2.418  12.931  22.478  0.00  0.00    +0.000 C 
ATOM     28  C   UNL     1      -1.919  11.905  20.245  0.00  0.00    +0.000 A 
ATOM     29  C   UNL     1      -1.019  11.473  19.259  0.00  0.00    +0.000 A 
ENDBRANCH  22  23
BRANCH  22  31
ATOM     30  C   UNL     1       2.407  13.307  17.931  0.00  0.00    +0.000 C 
ATOM     31  C   UNL     1       2.512  11.823  18.211  0.00  0.00    +0.000 C 
ENDBRANCH  22  31
ENDBRANCH  21  22
ENDBRANCH   1  21
TORSDOF 6
ENDMDL
MODEL 7
REMARK VINA RESULT:      -6.5      3.051      5.441
REMARK  Name = 
REMARK  8 active torsions:
REMARK  status: ('A' for Active; 'I' for Inactive)
REMARK    1  A    between atoms: C_1  and  C_2
REMARK    2  A    between atoms: C_2  and  N_3
REMARK    3  A    between atoms: N_3  and  C_4
REMARK    4  A    between atoms: N_3  and  C_25
REMARK    5  A    between atoms: C_4  and  C_5
REMARK    6  A    between atoms: C_9  and  C_10
REMARK    7  A    between atoms: C_18  and  C_19
REMARK    8  A    between atoms: C_28  and  C_29
REMARK                            x       y       z     vdW  Elec       q    Type
REMARK                         _______ _______ _______ _____ _____    ______ ____
ROOT
ATOM      1  C   UNL     1       2.081   8.505  18.526  0.00  0.00    +0.000 A 
ATOM      2  N   UNL     1       2.863   7.986  17.530  0.00  0.00    +0.000 NA
ATOM      3  C   UNL     1       3.582   6.897  17.802  0.00  0.00    +0.000 A 
ATOM      4  C   UNL     1       4.318   6.321  16.775  0.00  0.00    +0.000 A 
ATOM      5  C   UNL     1       5.025   5.128  16.960  0.00  0.00    +0.000 A 
ATOM      6  C   UNL     1       5.016   4.547  18.231  0.00  0.00    +0.000 A 
ATOM      7  C   UNL     1       4.298   5.145  19.275  0.00  0.00    +0.000 A 
ATOM      8  C   UNL     1       3.562   6.309  19.079  0.00  0.00    +0.000 A 
ATOM      9  N   UNL     1       2.822   6.839  20.078  0.00  0.00    +0.000 NA
ATOM     10  C   UNL     1       2.055   7.943  19.812  0.00  0.00    +0.000 A 
ENDROOT
BRANCH  10  11
ATOM     11  C   UNL     1       1.183   8.369  20.946  0.00  0.00    +0.000 A 
ATOM     12  C   UNL     1       1.668   9.006  22.099  0.00  0.00    +0.000 A 
ATOM     13  C   UNL     1       0.833   9.482  23.113  0.00  0.00    +0.000 A 
ATOM     14  C   UNL     1      -0.535   9.280  23.028  0.00  0.00    +0.000 A 
ATOM     15  C   UNL     1      -1.057   8.599  21.936  0.00  0.00    +0.000 A 
ATOM     16  C   UNL     1      -0.208   8.151  20.908  0.00  0.00    +0.000 A 
ENDBRANCH  10  11
BRANCH   5  17
ATOM     17  C   UNL     1       5.740   4.468  15.806  0.00  0.00    +0.000 C 
ATOM     18  F   UNL     1       7.070   4.758  15.751  0.00  0.00    +0.000 F 
ATOM     19  F   UNL     1       5.654   3.111  15.845  0.00  0.00    +0.000 F 
ATOM     20  F   UNL     1       5.228   4.843  14.602  0.00  0.00    +0.000 F 
ENDBRANCH   5  17
BRANCH   1  21
ATOM     21  C   UNL     1       1.148   9.594  18.056  0.00  0.00    +0.000 C 
BRANCH  21  22
ATOM     22  N   UNL     1       1.356  11.007  18.457  0.00  0.00    +0.000 N 
BRANCH  22  23
ATOM     23  C   UNL     1       0.466  11.487  19.455  0.00  0.00    +0.000 A 
ATOM     24  C   UNL     1      -0.931  11.353  19.346  0.00  0.00    +0.000 A 
ATOM     25  C   UNL     1      -1.816  11.886  20.294  0.00  0.00    +0.000 A 
ATOM     26  C   UNL     1      -1.337  12.577  21.403  0.00  0.00    +0.000 A 
ATOM     27  C   UNL     1      -2.270  13.168  22.413  0.00  0.00    +0.000 C 
ATOM     28  C   UNL     1       0.041  12.699  21.560  0.00  0.00    +0.000 A 
ATOM     29  C   UNL     1       0.919  12.149  20.614  0.00  0.00    +0.000 A 
ENDBRANCH  22  23
BRANCH  22  31
ATOM     30  C   UNL     1       2.432  13.291  17.893  0.00  0.00    +0.000 C 
ATOM     31  C   UNL     1       2.566  11.814  18.202  0.00  0.00    +0.000 C 
ENDBRANCH  22  31
ENDBRANCH  21  22
ENDBRANCH   1  21
TORSDOF 6
ENDMDL
MODEL 8
REMARK VINA RESULT:      -6.5      1.421      1.804
REMARK  Name = 
REMARK  8 active torsions:
REMARK  status: ('A' for Active; 'I' for Inactive)
REMARK    1  A    between atoms: C_1  and  C_2
REMARK    2  A    between atoms: C_2  and  N_3
REMARK    3  A    between atoms: N_3  and  C_4
REMARK    4  A    between atoms: N_3  and  C_25
REMARK    5  A    between atoms: C_4  and  C_5
REMARK    6  A    between atoms: C_9  and  C_10
REMARK    7  A    between atoms: C_18  and  C_19
REMARK    8  A    between atoms: C_28  and  C_29
REMARK                            x       y       z     vdW  Elec       q    Type
REMARK                         _______ _______ _______ _____ _____    ______ ____
ROOT
ATOM      1  C   UNL     1      -0.794  11.444  19.482  0.00  0.00    +0.000 A 
ATOM      2  N   UNL     1      -0.053  10.568  18.735  0.00  0.00    +0.000 NA
ATOM      3  C   UNL     1       0.678   9.659  19.379  0.00  0.00    +0.000 A 
ATOM      4  C   UNL     1       1.371   8.719  18.628  0.00  0.00    +0.000 A 
ATOM      5  C   UNL     1       2.088   7.681  19.232  0.00  0.00    +0.000 A 
ATOM      6  C   UNL     1       2.134   7.639  20.629  0.00  0.00    +0.000 A 
ATOM      7  C   UNL     1       1.459   8.605  21.387  0.00  0.00    +0.000 A 
ATOM      8  C   UNL     1       0.714   9.613  20.784  0.00  0.00    +0.000 A 
ATOM      9  N   UNL     1       0.016  10.500  21.528  0.00  0.00    +0.000 NA
ATOM     10  C   UNL     1      -0.763  11.425  20.885  0.00  0.00    +0.000 A 
ENDROOT
BRANCH  10  11
ATOM     11  C   UNL     1      -1.587  12.271  21.798  0.00  0.00    +0.000 A 
ATOM     12  C   UNL     1      -1.624  13.673  21.732  0.00  0.00    +0.000 A 
ATOM     13  C   UNL     1      -2.468  14.449  22.531  0.00  0.00    +0.000 A 
ATOM     14  C   UNL     1      -3.272  13.838  23.479  0.00  0.00    +0.000 A 
ATOM     15  C   UNL     1      -3.224  12.458  23.626  0.00  0.00    +0.000 A 
ATOM     16  C   UNL     1      -2.392  11.685  22.794  0.00  0.00    +0.000 A 
ENDBRANCH  10  11
BRANCH   5  17
ATOM     17  C   UNL     1       2.754   6.614  18.398  0.00  0.00    +0.000 C 
ATOM     18  F   UNL     1       3.730   5.934  19.062  0.00  0.00    +0.000 F 
ATOM     19  F   UNL     1       1.878   5.675  17.953  0.00  0.00    +0.000 F 
ATOM     20  F   UNL     1       3.350   7.129  17.288  0.00  0.00    +0.000 F 
ENDBRANCH   5  17
BRANCH   1  21
ATOM     21  C   UNL     1      -1.747  12.280  18.663  0.00  0.00    +0.000 C 
BRANCH  21  22
ATOM     22  N   UNL     1      -2.863  11.655  17.913  0.00  0.00    +0.000 N 
BRANCH  22  23
ATOM     23  C   UNL     1      -4.114  11.648  18.588  0.00  0.00    +0.000 A 
ATOM     24  C   UNL     1      -4.360  12.438  19.725  0.00  0.00    +0.000 A 
ATOM     25  C   UNL     1      -5.568  12.383  20.435  0.00  0.00    +0.000 A 
ATOM     26  C   UNL     1      -6.591  11.531  20.030  0.00  0.00    +0.000 A 
ATOM     27  C   UNL     1      -7.878  11.446  20.789  0.00  0.00    +0.000 C 
ATOM     28  C   UNL     1      -6.394  10.758  18.888  0.00  0.00    +0.000 A 
ATOM     29  C   UNL     1      -5.188  10.833  18.176  0.00  0.00    +0.000 A 
ENDBRANCH  22  23
BRANCH  22  31
ATOM     30  C   UNL     1      -2.591   9.986  15.955  0.00  0.00    +0.000 C 
ATOM     31  C   UNL     1      -2.890  11.381  16.462  0.00  0.00    +0.000 C 
ENDBRANCH  22  31
ENDBRANCH  21  22
ENDBRANCH   1  21
TORSDOF 6
ENDMDL
MODEL 9
REMARK VINA RESULT:      -6.5      3.028      5.431
REMARK  Name = 
REMARK  8 active torsions:
REMARK  status: ('A' for Active; 'I' for Inactive)
REMARK    1  A    between atoms: C_1  and  C_2
REMARK    2  A    between atoms: C_2  and  N_3
REMARK    3  A    between atoms: N_3  and  C_4
REMARK    4  A    between atoms: N_3  and  C_25
REMARK    5  A    between atoms: C_4  and  C_5
REMARK    6  A    between atoms: C_9  and  C_10
REMARK    7  A    between atoms: C_18  and  C_19
REMARK    8  A    between atoms: C_28  and  C_29
REMARK                            x       y       z     vdW  Elec       q    Type
REMARK                         _______ _______ _______ _____ _____    ______ ____
ROOT
ATOM      1  C   UNL     1       2.044   8.580  18.527  0.00  0.00    +0.000 A 
ATOM      2  N   UNL     1       2.826   8.042  17.541  0.00  0.00    +0.000 NA
ATOM      3  C   UNL     1       3.533   6.949  17.830  0.00  0.00    +0.000 A 
ATOM      4  C   UNL     1       4.270   6.354  16.814  0.00  0.00    +0.000 A 
ATOM      5  C   UNL     1       4.965   5.157  17.017  0.00  0.00    +0.000 A 
ATOM      6  C   UNL     1       4.944   4.592  18.296  0.00  0.00    +0.000 A 
ATOM      7  C   UNL     1       4.227   5.209  19.328  0.00  0.00    +0.000 A 
ATOM      8  C   UNL     1       3.502   6.377  19.114  0.00  0.00    +0.000 A 
ATOM      9  N   UNL     1       2.762   6.927  20.104  0.00  0.00    +0.000 NA
ATOM     10  C   UNL     1       2.007   8.034  19.820  0.00  0.00    +0.000 A 
ENDROOT
BRANCH  10  11
ATOM     11  C   UNL     1       1.134   8.482  20.944  0.00  0.00    +0.000 A 
ATOM     12  C   UNL     1      -0.264   8.349  20.939  0.00  0.00    +0.000 A 
ATOM     13  C   UNL     1      -1.064   8.689  22.034  0.00  0.00    +0.000 A 
ATOM     14  C   UNL     1      -0.482   9.238  23.166  0.00  0.00    +0.000 A 
ATOM     15  C   UNL     1       0.890   9.448  23.194  0.00  0.00    +0.000 A 
ATOM     16  C   UNL     1       1.687   9.073  22.096  0.00  0.00    +0.000 A 
ENDBRANCH  10  11
BRANCH   5  17
ATOM     17  C   UNL     1       5.679   4.476  15.876  0.00  0.00    +0.000 C 
ATOM     18  F   UNL     1       5.214   4.837  14.648  0.00  0.00    +0.000 F 
ATOM     19  F   UNL     1       7.014   4.738  15.863  0.00  0.00    +0.000 F 
ATOM     20  F   UNL     1       5.563   3.121  15.933  0.00  0.00    +0.000 F 
ENDBRANCH   5  17
BRANCH   1  21
ATOM     21  C   UNL     1       1.124   9.672  18.039  0.00  0.00    +0.000 C 
BRANCH  21  22
ATOM     22  N   UNL     1       1.335  11.086  18.434  0.00  0.00    +0.000 N 
BRANCH  22  23
ATOM     23  C   UNL     1       0.426  11.582  19.406  0.00  0.00    +0.000 A 
ATOM     24  C   UNL     1       0.857  12.164  20.613  0.00  0.00    +0.000 A 
ATOM     25  C   UNL     1      -0.037  12.591  21.605  0.00  0.00    +0.000 A 
ATOM     26  C   UNL     1      -1.410  12.459  21.429  0.00  0.00    +0.000 A 
ATOM     27  C   UNL     1      -2.375  12.893  22.488  0.00  0.00    +0.000 C 
ATOM     28  C   UNL     1      -1.873  11.918  20.232  0.00  0.00    +0.000 A 
ATOM     29  C   UNL     1      -0.972  11.507  19.239  0.00  0.00    +0.000 A 
ENDBRANCH  22  23
BRANCH  22  31
ATOM     30  C   UNL     1       2.448  13.366  17.930  0.00  0.00    +0.000 C 
ATOM     31  C   UNL     1       2.558  11.880  18.201  0.00  0.00    +0.000 C 
ENDBRANCH  22  31
ENDBRANCH  21  22
ENDBRANCH   1  21
TORSDOF 6
ENDMDL
