MODEL 1
REMARK VINA RESULT:      -7.8      0.000      0.000
REMARK  Name = 
REMARK  8 active torsions:
REMARK  status: ('A' for Active; 'I' for Inactive)
REMARK    1  A    between atoms: C_1  and  C_2
REMARK    2  A    between atoms: C_2  and  N_3
REMARK    3  A    between atoms: C_2  and  C_12
REMARK    4  A    between atoms: N_3  and  C_4
REMARK    5  A    between atoms: C_14  and  C_15
REMARK    6  A    between atoms: N_17  and  C_18
REMARK    7  A    between atoms: N_17  and  C_19
REMARK    8  A    between atoms: C_25  and  N_26
REMARK                            x       y       z     vdW  Elec       q    Type
REMARK                         _______ _______ _______ _____ _____    ______ ____
ROOT
ATOM      1  C   UNL     1      -1.299  11.612  20.062  0.00  0.00    +0.000 A 
ATOM      2  C   UNL     1      -2.136  12.402  20.883  0.00  0.00    +0.000 A 
ATOM      3  C   UNL     1      -2.098  12.346  22.292  0.00  0.00    +0.000 A 
ATOM      4  C   UNL     1      -1.201  11.469  22.886  0.00  0.00    +0.000 A 
ATOM      5  C   UNL     1      -0.456  10.590  22.085  0.00  0.00    +0.000 A 
ATOM      6  C   UNL     1       0.402   9.595  22.735  0.00  0.00    +0.000 A 
ATOM      7  O   UNL     1       0.472   9.485  23.948  0.00  0.00    +0.000 OA
ATOM      8  C   UNL     1       1.174   8.727  21.845  0.00  0.00    +0.000 A 
ATOM      9  C   UNL     1       1.081   8.852  20.512  0.00  0.00    +0.000 A 
ATOM     10  O   UNL     1       0.235   9.778  19.905  0.00  0.00    +0.000 OA
ATOM     11  C   UNL     1      -0.498  10.643  20.690  0.00  0.00    +0.000 A 
ENDROOT
BRANCH   9  12
ATOM     12  N   UNL     1       1.833   8.037  19.669  0.00  0.00    +0.000 N 
ATOM     13  C   UNL     1       2.067   6.605  19.938  0.00  0.00    +0.000 C 
ATOM     14  C   UNL     1       3.412   6.179  19.314  0.00  0.00    +0.000 C 
ATOM     15  O   UNL     1       3.473   6.469  17.907  0.00  0.00    +0.000 OA
ATOM     16  C   UNL     1       3.281   7.874  17.680  0.00  0.00    +0.000 C 
ATOM     17  C   UNL     1       1.923   8.334  18.219  0.00  0.00    +0.000 C 
ENDBRANCH   9  12
BRANCH   3  18
ATOM     18  C   UNL     1      -2.920  13.352  23.027  0.00  0.00    +0.000 C 
ATOM     19  O   UNL     1      -4.099  13.029  23.207  0.00  0.00    +0.000 OA
ATOM     20  N   UNL     1      -2.429  14.572  23.507  0.00  0.00    +0.000 N 
ATOM     21  C   UNL     1      -1.068  15.091  23.475  0.00  0.00    +0.000 C 
ATOM     22  C   UNL     1      -3.373  15.435  24.206  0.00  0.00    +0.000 C 
ENDBRANCH   3  18
BRANCH   1  24
ATOM     23  C   UNL     1      -2.596  11.484  17.921  0.00  0.00    +0.000 C 
ATOM     24  C   UNL     1      -1.247  11.834  18.557  0.00  0.00    +0.000 C 
BRANCH  24  25
ATOM     25  N   UNL     1      -0.917  13.225  18.196  0.00  0.00    +0.000 N 
ATOM     26  H   UNL     1      -1.697  13.871  18.329  0.00  0.00    +0.000 HD
BRANCH  25  27
ATOM     27  C   UNL     1       0.291  13.843  18.564  0.00  0.00    +0.000 A 
ATOM     28  C   UNL     1       1.539  13.362  18.154  0.00  0.00    +0.000 A 
ATOM     29  C   UNL     1       2.711  14.038  18.500  0.00  0.00    +0.000 A 
ATOM     30  F   UNL     1       3.893  13.543  18.106  0.00  0.00    +0.000 F 
ATOM     31  C   UNL     1       2.683  15.215  19.237  0.00  0.00    +0.000 A 
ATOM     32  C   UNL     1       1.453  15.735  19.632  0.00  0.00    +0.000 A 
ATOM     33  C   UNL     1       0.275  15.060  19.293  0.00  0.00    +0.000 A 
ATOM     34 CL   UNL     1      -1.227  15.742  19.827  0.00  0.00    +0.000 Cl
ENDBRANCH  25  27
ENDBRANCH  24  25
ENDBRANCH   1  24
TORSDOF 5
ENDMDL
MODEL 2
REMARK VINA RESULT:      -7.7      0.778      1.063
REMARK  Name = 
REMARK  8 active torsions:
REMARK  status: ('A' for Active; 'I' for Inactive)
REMARK    1  A    between atoms: C_1  and  C_2
REMARK    2  A    between atoms: C_2  and  N_3
REMARK    3  A    between atoms: C_2  and  C_12
REMARK    4  A    between atoms: N_3  and  C_4
REMARK    5  A    between atoms: C_14  and  C_15
REMARK    6  A    between atoms: N_17  and  C_18
REMARK    7  A    between atoms: N_17  and  C_19
REMARK    8  A    between atoms: C_25  and  N_26
REMARK                            x       y       z     vdW  Elec       q    Type
REMARK                         _______ _______ _______ _____ _____    ______ ____
ROOT
ATOM      1  C   UNL     1      -1.133  11.768  19.998  0.00  0.00    +0.000 A 
ATOM      2  C   UNL     1      -1.949  12.603  20.795  0.00  0.00    +0.000 A 
ATOM      3  C   UNL     1      -1.952  12.549  22.205  0.00  0.00    +0.000 A 
ATOM      4  C   UNL     1      -1.117  11.629  22.824  0.00  0.00    +0.000 A 
ATOM      5  C   UNL     1      -0.398  10.710  22.045  0.00  0.00    +0.000 A 
ATOM      6  C   UNL     1       0.390   9.674  22.719  0.00  0.00    +0.000 A 
ATOM      7  O   UNL     1       0.421   9.564  23.934  0.00  0.00    +0.000 OA
ATOM      8  C   UNL     1       1.139   8.764  21.852  0.00  0.00    +0.000 A 
ATOM      9  C   UNL     1       1.088   8.890  20.517  0.00  0.00    +0.000 A 
ATOM     10  O   UNL     1       0.308   9.857  19.886  0.00  0.00    +0.000 OA
ATOM     11  C   UNL     1      -0.400  10.761  20.649  0.00  0.00    +0.000 A 
ENDROOT
BRANCH   9  12
ATOM     12  N   UNL     1       1.819   8.034  19.696  0.00  0.00    +0.000 N 
ATOM     13  C   UNL     1       1.994   6.598  19.988  0.00  0.00    +0.000 C 
ATOM     14  C   UNL     1       3.330   6.112  19.388  0.00  0.00    +0.000 C 
ATOM     15  O   UNL     1       3.420   6.378  17.978  0.00  0.00    +0.000 OA
ATOM     16  C   UNL     1       3.284   7.787  17.728  0.00  0.00    +0.000 C 
ATOM     17  C   UNL     1       1.938   8.305  18.243  0.00  0.00    +0.000 C 
ENDBRANCH   9  12
BRANCH   3  18
ATOM     18  C   UNL     1      -2.739  13.599  22.916  0.00  0.00    +0.000 C 
ATOM     19  O   UNL     1      -2.062  14.451  23.501  0.00  0.00    +0.000 OA
ATOM     20  N   UNL     1      -4.137  13.661  22.929  0.00  0.00    +0.000 N 
ATOM     21  C   UNL     1      -5.101  12.816  22.237  0.00  0.00    +0.000 C 
ATOM     22  C   UNL     1      -4.743  14.759  23.674  0.00  0.00    +0.000 C 
ENDBRANCH   3  18
BRANCH   1  24
ATOM     23  C   UNL     1      -2.336  11.577  17.808  0.00  0.00    +0.000 C 
ATOM     24  C   UNL     1      -1.028  11.982  18.495  0.00  0.00    +0.000 C 
BRANCH  24  25
ATOM     25  N   UNL     1      -0.738  13.382  18.137  0.00  0.00    +0.000 N 
ATOM     26  H   UNL     1      -1.532  14.008  18.282  0.00  0.00    +0.000 HD
BRANCH  25  27
ATOM     27  C   UNL     1       0.459  14.029  18.492  0.00  0.00    +0.000 A 
ATOM     28  C   UNL     1       1.718  13.537  18.130  0.00  0.00    +0.000 A 
ATOM     29  C   UNL     1       2.878  14.240  18.461  0.00  0.00    +0.000 A 
ATOM     30  F   UNL     1       4.071  13.736  18.114  0.00  0.00    +0.000 F 
ATOM     31  C   UNL     1       2.829  15.454  19.134  0.00  0.00    +0.000 A 
ATOM     32  C   UNL     1       1.588  15.984  19.480  0.00  0.00    +0.000 A 
ATOM     33  C   UNL     1       0.421  15.282  19.156  0.00  0.00    +0.000 A 
ATOM     34 CL   UNL     1      -1.095  15.979  19.627  0.00  0.00    +0.000 Cl
ENDBRANCH  25  27
ENDBRANCH  24  25
ENDBRANCH   1  24
TORSDOF 5
ENDMDL
MODEL 3
REMARK VINA RESULT:      -7.6      1.408      1.625
REMARK  Name = 
REMARK  8 active torsions:
REMARK  status: ('A' for Active; 'I' for Inactive)
REMARK    1  A    between atoms: C_1  and  C_2
REMARK    2  A    between atoms: C_2  and  N_3
REMARK    3  A    between atoms: C_2  and  C_12
REMARK    4  A    between atoms: N_3  and  C_4
REMARK    5  A    between atoms: C_14  and  C_15
REMARK    6  A    between atoms: N_17  and  C_18
REMARK    7  A    between atoms: N_17  and  C_19
REMARK    8  A    between atoms: C_25  and  N_26
REMARK                            x       y       z     vdW  Elec       q    Type
REMARK                         _______ _______ _______ _____ _____    ______ ____
ROOT
ATOM      1  C   UNL     1      -1.273  11.482  19.790  0.00  0.00    +0.000 A 
ATOM      2  C   UNL     1      -2.127  12.310  20.554  0.00  0.00    +0.000 A 
ATOM      3  C   UNL     1      -2.105  12.338  21.964  0.00  0.00    +0.000 A 
ATOM      4  C   UNL     1      -1.205  11.507  22.618  0.00  0.00    +0.000 A 
ATOM      5  C   UNL     1      -0.443  10.590  21.879  0.00  0.00    +0.000 A 
ATOM      6  C   UNL     1       0.417   9.644  22.596  0.00  0.00    +0.000 A 
ATOM      7  O   UNL     1       0.474   9.607  23.814  0.00  0.00    +0.000 OA
ATOM      8  C   UNL     1       1.207   8.733  21.768  0.00  0.00    +0.000 A 
ATOM      9  C   UNL     1       1.128   8.778  20.429  0.00  0.00    +0.000 A 
ATOM     10  O   UNL     1       0.280   9.658  19.759  0.00  0.00    +0.000 OA
ATOM     11  C   UNL     1      -0.470  10.560  20.483  0.00  0.00    +0.000 A 
ENDROOT
BRANCH   9  12
ATOM     12  N   UNL     1       1.898   7.922  19.644  0.00  0.00    +0.000 N 
ATOM     13  C   UNL     1       2.089   6.494  19.965  0.00  0.00    +0.000 C 
ATOM     14  C   UNL     1       3.449   6.022  19.413  0.00  0.00    +0.000 C 
ATOM     15  O   UNL     1       3.576   6.267  18.002  0.00  0.00    +0.000 OA
ATOM     16  C   UNL     1       3.424   7.669  17.724  0.00  0.00    +0.000 C 
ATOM     17  C   UNL     1       2.055   8.172  18.191  0.00  0.00    +0.000 C 
ENDBRANCH   9  12
BRANCH   3  18
ATOM     18  C   UNL     1      -2.944  13.378  22.629  0.00  0.00    +0.000 C 
ATOM     19  O   UNL     1      -4.148  13.108  22.699  0.00  0.00    +0.000 OA
ATOM     20  N   UNL     1      -2.445  14.572  23.161  0.00  0.00    +0.000 N 
ATOM     21  C   UNL     1      -1.065  15.029  23.258  0.00  0.00    +0.000 C 
ATOM     22  C   UNL     1      -3.409  15.475  23.779  0.00  0.00    +0.000 C 
ENDBRANCH   3  18
BRANCH   1  24
ATOM     23  C   UNL     1      -2.577  11.328  17.655  0.00  0.00    +0.000 C 
ATOM     24  C   UNL     1      -1.206  11.614  18.275  0.00  0.00    +0.000 C 
BRANCH  24  25
ATOM     25  N   UNL     1      -0.777  12.955  17.838  0.00  0.00    +0.000 N 
ATOM     26  H   UNL     1      -1.543  13.525  17.476  0.00  0.00    +0.000 HD
BRANCH  25  27
ATOM     27  C   UNL     1       0.109  13.753  18.583  0.00  0.00    +0.000 A 
ATOM     28  C   UNL     1      -0.293  14.930  19.225  0.00  0.00    +0.000 A 
ATOM     29  C   UNL     1       0.610  15.664  19.997  0.00  0.00    +0.000 A 
ATOM     30  F   UNL     1       0.199  16.795  20.586  0.00  0.00    +0.000 F 
ATOM     31  C   UNL     1       1.923  15.248  20.176  0.00  0.00    +0.000 A 
ATOM     32  C   UNL     1       2.344  14.064  19.575  0.00  0.00    +0.000 A 
ATOM     33  C   UNL     1       1.445  13.326  18.796  0.00  0.00    +0.000 A 
ATOM     34 CL   UNL     1       2.028  11.870  18.056  0.00  0.00    +0.000 Cl
ENDBRANCH  25  27
ENDBRANCH  24  25
ENDBRANCH   1  24
TORSDOF 5
ENDMDL
MODEL 4
REMARK VINA RESULT:      -7.5      1.614      1.960
REMARK  Name = 
REMARK  8 active torsions:
REMARK  status: ('A' for Active; 'I' for Inactive)
REMARK    1  A    between atoms: C_1  and  C_2
REMARK    2  A    between atoms: C_2  and  N_3
REMARK    3  A    between atoms: C_2  and  C_12
REMARK    4  A    between atoms: N_3  and  C_4
REMARK    5  A    between atoms: C_14  and  C_15
REMARK    6  A    between atoms: N_17  and  C_18
REMARK    7  A    between atoms: N_17  and  C_19
REMARK    8  A    between atoms: C_25  and  N_26
REMARK                            x       y       z     vdW  Elec       q    Type
REMARK                         _______ _______ _______ _____ _____    ______ ____
ROOT
ATOM      1  C   UNL     1      -1.244  11.539  19.775  0.00  0.00    +0.000 A 
ATOM      2  C   UNL     1      -2.093  12.380  20.530  0.00  0.00    +0.000 A 
ATOM      3  C   UNL     1      -2.086  12.405  21.941  0.00  0.00    +0.000 A 
ATOM      4  C   UNL     1      -1.208  11.559  22.604  0.00  0.00    +0.000 A 
ATOM      5  C   UNL     1      -0.452  10.631  21.872  0.00  0.00    +0.000 A 
ATOM      6  C   UNL     1       0.385   9.671  22.597  0.00  0.00    +0.000 A 
ATOM      7  O   UNL     1       0.427   9.631  23.816  0.00  0.00    +0.000 OA
ATOM      8  C   UNL     1       1.170   8.748  21.777  0.00  0.00    +0.000 A 
ATOM      9  C   UNL     1       1.107   8.796  20.437  0.00  0.00    +0.000 A 
ATOM     10  O   UNL     1       0.281   9.690  19.759  0.00  0.00    +0.000 OA
ATOM     11  C   UNL     1      -0.463  10.604  20.476  0.00  0.00    +0.000 A 
ENDROOT
BRANCH   9  12
ATOM     12  N   UNL     1       1.872   7.929  19.660  0.00  0.00    +0.000 N 
ATOM     13  C   UNL     1       2.039   6.499  19.983  0.00  0.00    +0.000 C 
ATOM     14  C   UNL     1       3.398   6.007  19.444  0.00  0.00    +0.000 C 
ATOM     15  O   UNL     1       3.542   6.250  18.034  0.00  0.00    +0.000 OA
ATOM     16  C   UNL     1       3.413   7.654  17.755  0.00  0.00    +0.000 C 
ATOM     17  C   UNL     1       2.047   8.177  18.208  0.00  0.00    +0.000 C 
ENDBRANCH   9  12
BRANCH   3  18
ATOM     18  C   UNL     1      -2.917  13.457  22.598  0.00  0.00    +0.000 C 
ATOM     19  O   UNL     1      -2.276  14.323  23.204  0.00  0.00    +0.000 OA
ATOM     20  N   UNL     1      -4.314  13.507  22.542  0.00  0.00    +0.000 N 
ATOM     21  C   UNL     1      -5.236  12.644  21.815  0.00  0.00    +0.000 C 
ATOM     22  C   UNL     1      -4.965  14.609  23.241  0.00  0.00    +0.000 C 
ENDBRANCH   3  18
BRANCH   1  24
ATOM     23  C   UNL     1      -2.511  11.349  17.621  0.00  0.00    +0.000 C 
ATOM     24  C   UNL     1      -1.157  11.672  18.261  0.00  0.00    +0.000 C 
BRANCH  24  25
ATOM     25  N   UNL     1      -0.757  13.024  17.830  0.00  0.00    +0.000 N 
ATOM     26  H   UNL     1      -1.539  13.586  17.489  0.00  0.00    +0.000 HD
BRANCH  25  27
ATOM     27  C   UNL     1       0.132  13.828  18.564  0.00  0.00    +0.000 A 
ATOM     28  C   UNL     1      -0.265  15.015  19.190  0.00  0.00    +0.000 A 
ATOM     29  C   UNL     1       0.641  15.755  19.953  0.00  0.00    +0.000 A 
ATOM     30  F   UNL     1       0.235  16.896  20.526  0.00  0.00    +0.000 F 
ATOM     31  C   UNL     1       1.952  15.335  20.139  0.00  0.00    +0.000 A 
ATOM     32  C   UNL     1       2.367  14.141  19.555  0.00  0.00    +0.000 A 
ATOM     33  C   UNL     1       1.466  13.396  18.785  0.00  0.00    +0.000 A 
ATOM     34 CL   UNL     1       2.042  11.928  18.066  0.00  0.00    +0.000 Cl
ENDBRANCH  25  27
ENDBRANCH  24  25
ENDBRANCH   1  24
TORSDOF 5
ENDMDL
MODEL 5
REMARK VINA RESULT:      -7.2      2.607      7.298
REMARK  Name = 
REMARK  8 active torsions:
REMARK  status: ('A' for Active; 'I' for Inactive)
REMARK    1  A    between atoms: C_1  and  C_2
REMARK    2  A    between atoms: C_2  and  N_3
REMARK    3  A    between atoms: C_2  and  C_12
REMARK    4  A    between atoms: N_3  and  C_4
REMARK    5  A    between atoms: C_14  and  C_15
REMARK    6  A    between atoms: N_17  and  C_18
REMARK    7  A    between atoms: N_17  and  C_19
REMARK    8  A    between atoms: C_25  and  N_26
REMARK                            x       y       z     vdW  Elec       q    Type
REMARK                         _______ _______ _______ _____ _____    ______ ____
ROOT
ATOM      1  C   UNL     1      -0.034  11.500  19.324  0.00  0.00    +0.000 A 
ATOM      2  C   UNL     1       0.839  10.578  18.703  0.00  0.00    +0.000 A 
ATOM      3  C   UNL     1       1.246   9.376  19.319  0.00  0.00    +0.000 A 
ATOM      4  C   UNL     1       0.766   9.101  20.592  0.00  0.00    +0.000 A 
ATOM      5  C   UNL     1       0.002  10.063  21.269  0.00  0.00    +0.000 A 
ATOM      6  C   UNL     1      -0.401   9.802  22.654  0.00  0.00    +0.000 A 
ATOM      7  O   UNL     1      -0.073   8.788  23.249  0.00  0.00    +0.000 OA
ATOM      8  C   UNL     1      -1.219  10.831  23.295  0.00  0.00    +0.000 A 
ATOM      9  C   UNL     1      -1.565  11.946  22.632  0.00  0.00    +0.000 A 
ATOM     10  O   UNL     1      -1.147  12.200  21.327  0.00  0.00    +0.000 OA
ATOM     11  C   UNL     1      -0.396  11.256  20.660  0.00  0.00    +0.000 A 
ENDROOT
BRANCH   9  12
ATOM     12  N   UNL     1      -2.361  12.914  23.240  0.00  0.00    +0.000 N 
ATOM     13  C   UNL     1      -1.824  14.193  23.743  0.00  0.00    +0.000 C 
ATOM     14  C   UNL     1      -2.694  14.688  24.917  0.00  0.00    +0.000 C 
ATOM     15  O   UNL     1      -4.080  14.804  24.554  0.00  0.00    +0.000 OA
ATOM     16  C   UNL     1      -4.585  13.536  24.105  0.00  0.00    +0.000 C 
ATOM     17  C   UNL     1      -3.798  13.034  22.891  0.00  0.00    +0.000 C 
ENDBRANCH   9  12
BRANCH   3  18
ATOM     18  C   UNL     1       2.036   8.425  18.482  0.00  0.00    +0.000 C 
ATOM     19  O   UNL     1       2.368   8.861  17.374  0.00  0.00    +0.000 OA
ATOM     20  N   UNL     1       2.408   7.139  18.888  0.00  0.00    +0.000 N 
ATOM     21  C   UNL     1       2.194   6.483  20.171  0.00  0.00    +0.000 C 
ATOM     22  C   UNL     1       3.183   6.345  17.942  0.00  0.00    +0.000 C 
ENDBRANCH   3  18
BRANCH   1  24
ATOM     23  C   UNL     1       0.556  13.501  17.936  0.00  0.00    +0.000 C 
ATOM     24  C   UNL     1      -0.587  12.692  18.555  0.00  0.00    +0.000 C 
BRANCH  24  25
ATOM     25  N   UNL     1      -1.507  12.296  17.474  0.00  0.00    +0.000 N 
ATOM     26  H   UNL     1      -1.063  11.716  16.760  0.00  0.00    +0.000 HD
BRANCH  25  27
ATOM     27  C   UNL     1      -2.819  11.850  17.712  0.00  0.00    +0.000 A 
ATOM     28  C   UNL     1      -3.528  12.179  18.873  0.00  0.00    +0.000 A 
ATOM     29  C   UNL     1      -4.848  11.756  19.044  0.00  0.00    +0.000 A 
ATOM     30  F   UNL     1      -5.496  12.073  20.174  0.00  0.00    +0.000 F 
ATOM     31  C   UNL     1      -5.511  11.021  18.070  0.00  0.00    +0.000 A 
ATOM     32  C   UNL     1      -4.841  10.706  16.890  0.00  0.00    +0.000 A 
ATOM     33  C   UNL     1      -3.516  11.121  16.714  0.00  0.00    +0.000 A 
ATOM     34 CL   UNL     1      -2.725  10.685  15.235  0.00  0.00    +0.000 Cl
ENDBRANCH  25  27
ENDBRANCH  24  25
ENDBRANCH   1  24
TORSDOF 5
ENDMDL
MODEL 6
REMARK VINA RESULT:      -7.0      1.633      2.087
REMARK  Name = 
REMARK  8 active torsions:
REMARK  status: ('A' for Active; 'I' for Inactive)
REMARK    1  A    between atoms: C_1  and  C_2
REMARK    2  A    between atoms: C_2  and  N_3
REMARK    3  A    between atoms: C_2  and  C_12
REMARK    4  A    between atoms: N_3  and  C_4
REMARK    5  A    between atoms: C_14  and  C_15
REMARK    6  A    between atoms: N_17  and  C_18
REMARK    7  A    between atoms: N_17  and  C_19
REMARK    8  A    between atoms: C_25  and  N_26
REMARK                            x       y       z     vdW  Elec       q    Type
REMARK                         _______ _______ _______ _____ _____    ______ ____
ROOT
ATOM      1  C   UNL     1      -1.198  11.446  19.873  0.00  0.00    +0.000 A 
ATOM      2  C   UNL     1      -1.963  12.403  20.578  0.00  0.00    +0.000 A 
ATOM      3  C   UNL     1      -1.920  12.532  21.982  0.00  0.00    +0.000 A 
ATOM      4  C   UNL     1      -1.092  11.672  22.691  0.00  0.00    +0.000 A 
ATOM      5  C   UNL     1      -0.426  10.637  22.017  0.00  0.00    +0.000 A 
ATOM      6  C   UNL     1       0.354   9.671  22.796  0.00  0.00    +0.000 A 
ATOM      7  O   UNL     1       0.423   9.718  24.014  0.00  0.00    +0.000 OA
ATOM      8  C   UNL     1       1.047   8.633  22.033  0.00  0.00    +0.000 A 
ATOM      9  C   UNL     1       0.955   8.587  20.695  0.00  0.00    +0.000 A 
ATOM     10  O   UNL     1       0.182   9.490  19.967  0.00  0.00    +0.000 OA
ATOM     11  C   UNL     1      -0.473  10.508  20.627  0.00  0.00    +0.000 A 
ENDROOT
BRANCH   9  12
ATOM     12  N   UNL     1       1.633   7.609  19.971  0.00  0.00    +0.000 N 
ATOM     13  C   UNL     1       2.475   7.918  18.799  0.00  0.00    +0.000 C 
ATOM     14  C   UNL     1       2.487   6.708  17.843  0.00  0.00    +0.000 C 
ATOM     15  O   UNL     1       2.918   5.503  18.499  0.00  0.00    +0.000 OA
ATOM     16  C   UNL     1       2.058   5.207  19.611  0.00  0.00    +0.000 C 
ATOM     17  C   UNL     1       2.067   6.352  20.628  0.00  0.00    +0.000 C 
ENDBRANCH   9  12
BRANCH   3  18
ATOM     18  C   UNL     1      -2.653  13.690  22.574  0.00  0.00    +0.000 C 
ATOM     19  O   UNL     1      -2.403  14.783  22.055  0.00  0.00    +0.000 OA
ATOM     20  N   UNL     1      -3.573  13.588  23.623  0.00  0.00    +0.000 N 
ATOM     21  C   UNL     1      -4.065  12.395  24.300  0.00  0.00    +0.000 C 
ATOM     22  C   UNL     1      -4.200  14.824  24.075  0.00  0.00    +0.000 C 
ENDBRANCH   3  18
BRANCH   1  24
ATOM     23  C   UNL     1      -2.549  11.357  17.763  0.00  0.00    +0.000 C 
ATOM     24  C   UNL     1      -1.139  11.460  18.351  0.00  0.00    +0.000 C 
BRANCH  24  25
ATOM     25  N   UNL     1      -0.508  12.681  17.817  0.00  0.00    +0.000 N 
ATOM     26  H   UNL     1      -1.166  13.297  17.337  0.00  0.00    +0.000 HD
BRANCH  25  27
ATOM     27  C   UNL     1       0.423  13.442  18.547  0.00  0.00    +0.000 A 
ATOM     28  C   UNL     1       0.088  14.650  19.168  0.00  0.00    +0.000 A 
ATOM     29  C   UNL     1       1.031  15.346  19.926  0.00  0.00    +0.000 A 
ATOM     30  F   UNL     1       0.685  16.509  20.496  0.00  0.00    +0.000 F 
ATOM     31  C   UNL     1       2.320  14.861  20.111  0.00  0.00    +0.000 A 
ATOM     32  C   UNL     1       2.673  13.645  19.531  0.00  0.00    +0.000 A 
ATOM     33  C   UNL     1       1.733  12.944  18.766  0.00  0.00    +0.000 A 
ATOM     34 CL   UNL     1       2.233  11.446  18.052  0.00  0.00    +0.000 Cl
ENDBRANCH  25  27
ENDBRANCH  24  25
ENDBRANCH   1  24
TORSDOF 5
ENDMDL
MODEL 7
REMARK VINA RESULT:      -7.0      3.523      7.797
REMARK  Name = 
REMARK  8 active torsions:
REMARK  status: ('A' for Active; 'I' for Inactive)
REMARK    1  A    between atoms: C_1  and  C_2
REMARK    2  A    between atoms: C_2  and  N_3
REMARK    3  A    between atoms: C_2  and  C_12
REMARK    4  A    between atoms: N_3  and  C_4
REMARK    5  A    between atoms: C_14  and  C_15
REMARK    6  A    between atoms: N_17  and  C_18
REMARK    7  A    between atoms: N_17  and  C_19
REMARK    8  A    between atoms: C_25  and  N_26
REMARK                            x       y       z     vdW  Elec       q    Type
REMARK                         _______ _______ _______ _____ _____    ______ ____
ROOT
ATOM      1  C   UNL     1      -1.975  11.344  18.743  0.00  0.00    +0.000 A 
ATOM      2  C   UNL     1      -0.826  10.660  18.286  0.00  0.00    +0.000 A 
ATOM      3  C   UNL     1       0.180  10.189  19.156  0.00  0.00    +0.000 A 
ATOM      4  C   UNL     1       0.026  10.419  20.516  0.00  0.00    +0.000 A 
ATOM      5  C   UNL     1      -1.043  11.205  20.970  0.00  0.00    +0.000 A 
ATOM      6  C   UNL     1      -1.127  11.531  22.397  0.00  0.00    +0.000 A 
ATOM      7  O   UNL     1      -0.284  11.166  23.201  0.00  0.00    +0.000 OA
ATOM      8  C   UNL     1      -2.279  12.331  22.812  0.00  0.00    +0.000 A 
ATOM      9  C   UNL     1      -3.194  12.734  21.917  0.00  0.00    +0.000 A 
ATOM     10  O   UNL     1      -3.086  12.448  20.556  0.00  0.00    +0.000 OA
ATOM     11  C   UNL     1      -2.036  11.675  20.108  0.00  0.00    +0.000 A 
ENDROOT
BRANCH   9  12
ATOM     12  N   UNL     1      -4.301  13.478  22.319  0.00  0.00    +0.000 N 
ATOM     13  C   UNL     1      -4.911  13.348  23.657  0.00  0.00    +0.000 C 
ATOM     14  C   UNL     1      -6.412  13.694  23.572  0.00  0.00    +0.000 C 
ATOM     15  O   UNL     1      -6.635  15.001  23.015  0.00  0.00    +0.000 OA
ATOM     16  C   UNL     1      -6.064  15.085  21.699  0.00  0.00    +0.000 C 
ATOM     17  C   UNL     1      -4.557  14.819  21.740  0.00  0.00    +0.000 C 
ENDBRANCH   9  12
BRANCH   3  18
ATOM     18  C   UNL     1       1.250   9.342  18.550  0.00  0.00    +0.000 C 
ATOM     19  O   UNL     1       1.640   9.714  17.438  0.00  0.00    +0.000 OA
ATOM     20  N   UNL     1       1.808   8.217  19.166  0.00  0.00    +0.000 N 
ATOM     21  C   UNL     1       1.552   7.674  20.494  0.00  0.00    +0.000 C 
ATOM     22  C   UNL     1       2.848   7.508  18.430  0.00  0.00    +0.000 C 
ENDBRANCH   3  18
BRANCH   1  24
ATOM     23  C   UNL     1      -2.954  10.908  16.478  0.00  0.00    +0.000 C 
ATOM     24  C   UNL     1      -3.117  11.676  17.793  0.00  0.00    +0.000 C 
BRANCH  24  25
ATOM     25  N   UNL     1      -4.440  11.347  18.354  0.00  0.00    +0.000 N 
ATOM     26  H   UNL     1      -4.394  10.988  19.310  0.00  0.00    +0.000 HD
BRANCH  25  27
ATOM     27  C   UNL     1      -5.562  12.180  18.204  0.00  0.00    +0.000 A 
ATOM     28  C   UNL     1      -5.805  12.915  17.039  0.00  0.00    +0.000 A 
ATOM     29  C   UNL     1      -6.960  13.689  16.914  0.00  0.00    +0.000 A 
ATOM     30  F   UNL     1      -7.157  14.396  15.791  0.00  0.00    +0.000 F 
ATOM     31  C   UNL     1      -7.916  13.742  17.921  0.00  0.00    +0.000 A 
ATOM     32  C   UNL     1      -7.716  12.996  19.079  0.00  0.00    +0.000 A 
ATOM     33  C   UNL     1      -6.558  12.221  19.213  0.00  0.00    +0.000 A 
ATOM     34 CL   UNL     1      -6.353  11.328  20.685  0.00  0.00    +0.000 Cl
ENDBRANCH  25  27
ENDBRANCH  24  25
ENDBRANCH   1  24
TORSDOF 5
ENDMDL
MODEL 8
REMARK VINA RESULT:      -7.0      1.204      6.280
REMARK  Name = 
REMARK  8 active torsions:
REMARK  status: ('A' for Active; 'I' for Inactive)
REMARK    1  A    between atoms: C_1  and  C_2
REMARK    2  A    between atoms: C_2  and  N_3
REMARK    3  A    between atoms: C_2  and  C_12
REMARK    4  A    between atoms: N_3  and  C_4
REMARK    5  A    between atoms: C_14  and  C_15
REMARK    6  A    between atoms: N_17  and  C_18
REMARK    7  A    between atoms: N_17  and  C_19
REMARK    8  A    between atoms: C_25  and  N_26
REMARK                            x       y       z     vdW  Elec       q    Type
REMARK                         _______ _______ _______ _____ _____    ______ ____
ROOT
ATOM      1  C   UNL     1      -0.517  10.870  19.102  0.00  0.00    +0.000 A 
ATOM      2  C   UNL     1       0.506   9.994  18.672  0.00  0.00    +0.000 A 
ATOM      3  C   UNL     1       1.204   9.142  19.553  0.00  0.00    +0.000 A 
ATOM      4  C   UNL     1       0.867   9.179  20.899  0.00  0.00    +0.000 A 
ATOM      5  C   UNL     1      -0.055  10.132  21.358  0.00  0.00    +0.000 A 
ATOM      6  C   UNL     1      -0.314  10.230  22.797  0.00  0.00    +0.000 A 
ATOM      7  O   UNL     1       0.264   9.533  23.615  0.00  0.00    +0.000 OA
ATOM      8  C   UNL     1      -1.306  11.224  23.210  0.00  0.00    +0.000 A 
ATOM      9  C   UNL     1      -1.928  11.991  22.302  0.00  0.00    +0.000 A 
ATOM     10  O   UNL     1      -1.648  11.913  20.938  0.00  0.00    +0.000 OA
ATOM     11  C   UNL     1      -0.742  10.978  20.485  0.00  0.00    +0.000 A 
ENDROOT
BRANCH   9  12
ATOM     12  N   UNL     1      -2.887  12.921  22.697  0.00  0.00    +0.000 N 
ATOM     13  C   UNL     1      -2.563  14.114  23.505  0.00  0.00    +0.000 C 
ATOM     14  C   UNL     1      -3.794  14.514  24.344  0.00  0.00    +0.000 C 
ATOM     15  O   UNL     1      -4.958  14.730  23.529  0.00  0.00    +0.000 OA
ATOM     16  C   UNL     1      -5.272  13.542  22.784  0.00  0.00    +0.000 C 
ATOM     17  C   UNL     1      -4.104  13.141  21.878  0.00  0.00    +0.000 C 
ENDBRANCH   9  12
BRANCH   3  18
ATOM     18  C   UNL     1       2.141   8.158  18.935  0.00  0.00    +0.000 C 
ATOM     19  O   UNL     1       2.767   8.579  17.957  0.00  0.00    +0.000 OA
ATOM     20  N   UNL     1       2.337   6.855  19.406  0.00  0.00    +0.000 N 
ATOM     21  C   UNL     1       1.770   6.207  20.581  0.00  0.00    +0.000 C 
ATOM     22  C   UNL     1       3.294   6.027  18.681  0.00  0.00    +0.000 C 
ENDBRANCH   3  18
BRANCH   1  24
ATOM     23  C   UNL     1      -2.849  11.332  18.309  0.00  0.00    +0.000 C 
ATOM     24  C   UNL     1      -1.363  11.637  18.096  0.00  0.00    +0.000 C 
BRANCH  24  25
ATOM     25  N   UNL     1      -1.178  13.097  18.190  0.00  0.00    +0.000 N 
ATOM     26  H   UNL     1      -1.982  13.580  18.593  0.00  0.00    +0.000 HD
BRANCH  25  27
ATOM     27  C   UNL     1       0.016  13.687  18.642  0.00  0.00    +0.000 A 
ATOM     28  C   UNL     1       1.270  13.341  18.127  0.00  0.00    +0.000 A 
ATOM     29  C   UNL     1       2.425  13.990  18.569  0.00  0.00    +0.000 A 
ATOM     30  F   UNL     1       3.613  13.625  18.070  0.00  0.00    +0.000 F 
ATOM     31  C   UNL     1       2.372  15.011  19.510  0.00  0.00    +0.000 A 
ATOM     32  C   UNL     1       1.135  15.399  20.016  0.00  0.00    +0.000 A 
ATOM     33  C   UNL     1      -0.026  14.749  19.581  0.00  0.00    +0.000 A 
ATOM     34 CL   UNL     1      -1.538  15.260  20.260  0.00  0.00    +0.000 Cl
ENDBRANCH  25  27
ENDBRANCH  24  25
ENDBRANCH   1  24
TORSDOF 5
ENDMDL
MODEL 9
REMARK VINA RESULT:      -6.8      1.227      1.431
REMARK  Name = 
REMARK  8 active torsions:
REMARK  status: ('A' for Active; 'I' for Inactive)
REMARK    1  A    between atoms: C_1  and  C_2
REMARK    2  A    between atoms: C_2  and  N_3
REMARK    3  A    between atoms: C_2  and  C_12
REMARK    4  A    between atoms: N_3  and  C_4
REMARK    5  A    between atoms: C_14  and  C_15
REMARK    6  A    between atoms: N_17  and  C_18
REMARK    7  A    between atoms: N_17  and  C_19
REMARK    8  A    between atoms: C_25  and  N_26
REMARK                            x       y       z     vdW  Elec       q    Type
REMARK                         _______ _______ _______ _____ _____    ______ ____
ROOT
ATOM      1  C   UNL     1      -0.677  11.717  19.954  0.00  0.00    +0.000 A 
ATOM      2  C   UNL     1      -1.471  12.620  20.697  0.00  0.00    +0.000 A 
ATOM      3  C   UNL     1      -1.570  12.572  22.103  0.00  0.00    +0.000 A 
ATOM      4  C   UNL     1      -0.859  11.587  22.774  0.00  0.00    +0.000 A 
ATOM      5  C   UNL     1      -0.170  10.608  22.042  0.00  0.00    +0.000 A 
ATOM      6  C   UNL     1       0.482   9.512  22.764  0.00  0.00    +0.000 A 
ATOM      7  O   UNL     1       0.425   9.404  23.979  0.00  0.00    +0.000 OA
ATOM      8  C   UNL     1       1.207   8.539  21.947  0.00  0.00    +0.000 A 
ATOM      9  C   UNL     1       1.255   8.664  20.611  0.00  0.00    +0.000 A 
ATOM     10  O   UNL     1       0.601   9.691  19.932  0.00  0.00    +0.000 OA
ATOM     11  C   UNL     1      -0.076  10.654  20.649  0.00  0.00    +0.000 A 
ENDROOT
BRANCH   9  12
ATOM     12  N   UNL     1       1.964   7.747  19.838  0.00  0.00    +0.000 N 
ATOM     13  C   UNL     1       2.090   6.321  20.200  0.00  0.00    +0.000 C 
ATOM     14  C   UNL     1       3.413   5.764  19.636  0.00  0.00    +0.000 C 
ATOM     15  O   UNL     1       3.522   5.960  18.216  0.00  0.00    +0.000 OA
ATOM     16  C   UNL     1       3.434   7.359  17.898  0.00  0.00    +0.000 C 
ATOM     17  C   UNL     1       2.102   7.945  18.375  0.00  0.00    +0.000 C 
ENDBRANCH   9  12
BRANCH   3  18
ATOM     18  C   UNL     1      -2.312  13.687  22.763  0.00  0.00    +0.000 C 
ATOM     19  O   UNL     1      -1.599  14.586  23.223  0.00  0.00    +0.000 OA
ATOM     20  N   UNL     1      -3.706  13.758  22.859  0.00  0.00    +0.000 N 
ATOM     21  C   UNL     1      -4.712  12.858  22.311  0.00  0.00    +0.000 C 
ATOM     22  C   UNL     1      -4.264  14.923  23.536  0.00  0.00    +0.000 C 
ENDBRANCH   3  18
BRANCH   1  24
ATOM     23  C   UNL     1      -1.792  12.183  17.758  0.00  0.00    +0.000 C 
ATOM     24  C   UNL     1      -0.457  11.916  18.460  0.00  0.00    +0.000 C 
BRANCH  24  25
ATOM     25  N   UNL     1       0.451  13.038  18.162  0.00  0.00    +0.000 N 
ATOM     26  H   UNL     1       0.083  13.676  17.454  0.00  0.00    +0.000 HD
BRANCH  25  27
ATOM     27  C   UNL     1       1.124  13.761  19.162  0.00  0.00    +0.000 A 
ATOM     28  C   UNL     1       2.222  13.243  19.858  0.00  0.00    +0.000 A 
ATOM     29  C   UNL     1       2.893  14.017  20.807  0.00  0.00    +0.000 A 
ATOM     30  F   UNL     1       3.930  13.486  21.469  0.00  0.00    +0.000 F 
ATOM     31  C   UNL     1       2.517  15.326  21.079  0.00  0.00    +0.000 A 
ATOM     32  C   UNL     1       1.448  15.880  20.378  0.00  0.00    +0.000 A 
ATOM     33  C   UNL     1       0.768  15.108  19.429  0.00  0.00    +0.000 A 
ATOM     34 CL   UNL     1      -0.567  15.842  18.602  0.00  0.00    +0.000 Cl
ENDBRANCH  25  27
ENDBRANCH  24  25
ENDBRANCH   1  24
TORSDOF 5
ENDMDL
