MODEL 1
REMARK VINA RESULT:      -7.9      0.000      0.000
REMARK  Name = 
REMARK  8 active torsions:
REMARK  status: ('A' for Active; 'I' for Inactive)
REMARK    1  A    between atoms: C_1  and  C_2
REMARK    2  A    between atoms: C_2  and  O_3
REMARK    3  A    between atoms: O_3  and  C_4
REMARK    4  A    between atoms: C_8  and  C_9
REMARK    5  A    between atoms: N_11  and  N_12
REMARK    6  A    between atoms: C_13  and  C_15
REMARK    7  A    between atoms: C_21  and  C_22
REMARK    8  A    between atoms: C_22  and  O_24
REMARK                            x       y       z     vdW  Elec       q    Type
REMARK                         _______ _______ _______ _____ _____    ______ ____
ROOT
ATOM      1  N   UNL     1       1.905   7.332  20.762  0.00  0.00    +0.000 N 
ATOM      2  C   UNL     1       2.428   6.478  19.825  0.00  0.00    +0.000 C 
ATOM      3  O   UNL     1       2.566   6.821  18.643  0.00  0.00    +0.000 OA
ATOM      4  H   UNL     1       1.736   7.121  21.745  0.00  0.00    +0.000 HD
ENDROOT
BRANCH   2   5
ATOM      5  C   UNL     1       2.858   5.082  20.255  0.00  0.00    +0.000 C 
ATOM      6  C   UNL     1       1.868   4.261  21.109  0.00  0.00    +0.000 C 
ATOM      7  C   UNL     1       2.405   2.862  21.376  0.00  0.00    +0.000 C 
ATOM      8  C   UNL     1       2.345   2.180  20.213  0.00  0.00    +0.000 C 
ATOM      9  C   UNL     1       1.863   3.142  19.169  0.00  0.00    +0.000 C 
ATOM     10  C   UNL     1       0.834   3.880  20.046  0.00  0.00    +0.000 C 
ATOM     11  C   UNL     1       2.931   4.242  18.929  0.00  0.00    +0.000 C 
BRANCH  11  12
ATOM     12  C   UNL     1       4.360   3.810  18.664  0.00  0.00    +0.000 C 
ATOM     13  O   UNL     1       5.326   4.045  19.371  0.00  0.00    +0.000 OA
BRANCH  12  14
ATOM     14  O   UNL     1       4.468   3.068  17.531  0.00  0.00    +0.000 OA
ATOM     15  H   UNL     1       4.843   2.170  17.666  0.00  0.00    +0.000 HD
ENDBRANCH  12  14
ENDBRANCH  11  12
ENDBRANCH   2   5
BRANCH   1  18
ATOM     16  C   UNL     1       0.186   9.016  20.825  0.00  0.00    +0.000 C 
ATOM     17  O   UNL     1      -0.431   8.426  21.709  0.00  0.00    +0.000 OA
ATOM     18  N   UNL     1       1.360   8.532  20.287  0.00  0.00    +0.000 N 
ATOM     19  H   UNL     1       1.771   8.898  19.428  0.00  0.00    +0.000 HD
BRANCH  16  24
ATOM     20  C   UNL     1      -1.374  11.557  18.457  0.00  0.00    +0.000 A 
ATOM     21  C   UNL     1      -1.222  12.724  19.211  0.00  0.00    +0.000 A 
ATOM     22  C   UNL     1      -0.614  12.686  20.467  0.00  0.00    +0.000 A 
ATOM     23  C   UNL     1      -0.154  11.474  20.981  0.00  0.00    +0.000 A 
ATOM     24  C   UNL     1      -0.313  10.297  20.247  0.00  0.00    +0.000 A 
ATOM     25  C   UNL     1      -0.916  10.344  18.974  0.00  0.00    +0.000 A 
BRANCH  20  26
ATOM     26  O   UNL     1      -1.968  11.735  17.237  0.00  0.00    +0.000 OA
BRANCH  26  28
ATOM     27  C   UNL     1      -2.809  10.149  15.664  0.00  0.00    +0.000 C 
ATOM     28  C   UNL     1      -3.105  10.925  16.935  0.00  0.00    +0.000 C 
ENDBRANCH  26  28
ENDBRANCH  20  26
ENDBRANCH  16  24
ENDBRANCH   1  18
TORSDOF 7
ENDMDL
MODEL 2
REMARK VINA RESULT:      -7.8      2.371      3.001
REMARK  Name = 
REMARK  8 active torsions:
REMARK  status: ('A' for Active; 'I' for Inactive)
REMARK    1  A    between atoms: C_1  and  C_2
REMARK    2  A    between atoms: C_2  and  O_3
REMARK    3  A    between atoms: O_3  and  C_4
REMARK    4  A    between atoms: C_8  and  C_9
REMARK    5  A    between atoms: N_11  and  N_12
REMARK    6  A    between atoms: C_13  and  C_15
REMARK    7  A    between atoms: C_21  and  C_22
REMARK    8  A    between atoms: C_22  and  O_24
REMARK                            x       y       z     vdW  Elec       q    Type
REMARK                         _______ _______ _______ _____ _____    ______ ____
ROOT
ATOM      1  N   UNL     1       1.809   6.592  20.946  0.00  0.00    +0.000 N 
ATOM      2  C   UNL     1       2.477   6.091  19.858  0.00  0.00    +0.000 C 
ATOM      3  O   UNL     1       3.022   6.837  19.034  0.00  0.00    +0.000 OA
ATOM      4  H   UNL     1       1.314   6.051  21.653  0.00  0.00    +0.000 HD
ENDROOT
BRANCH   2   5
ATOM      5  C   UNL     1       2.555   4.581  19.669  0.00  0.00    +0.000 C 
ATOM      6  C   UNL     1       1.315   3.869  19.087  0.00  0.00    +0.000 C 
ATOM      7  C   UNL     1       1.586   2.386  18.874  0.00  0.00    +0.000 C 
ATOM      8  C   UNL     1       2.439   2.278  17.834  0.00  0.00    +0.000 C 
ATOM      9  C   UNL     1       2.802   3.673  17.423  0.00  0.00    +0.000 C 
ATOM     10  C   UNL     1       1.409   4.302  17.621  0.00  0.00    +0.000 C 
ATOM     11  C   UNL     1       3.628   4.358  18.544  0.00  0.00    +0.000 C 
BRANCH  11  12
ATOM     12  C   UNL     1       4.827   3.619  19.105  0.00  0.00    +0.000 C 
ATOM     13  O   UNL     1       4.819   2.848  20.052  0.00  0.00    +0.000 OA
BRANCH  12  14
ATOM     14  O   UNL     1       5.961   3.875  18.402  0.00  0.00    +0.000 OA
ATOM     15  H   UNL     1       6.744   3.355  18.688  0.00  0.00    +0.000 HD
ENDBRANCH  12  14
ENDBRANCH  11  12
ENDBRANCH   2   5
BRANCH   1  18
ATOM     16  C   UNL     1       0.373   8.489  21.317  0.00  0.00    +0.000 C 
ATOM     17  O   UNL     1      -0.591   7.773  21.578  0.00  0.00    +0.000 OA
ATOM     18  N   UNL     1       1.609   7.979  20.979  0.00  0.00    +0.000 N 
ATOM     19  H   UNL     1       2.352   8.545  20.570  0.00  0.00    +0.000 HD
BRANCH  16  24
ATOM     20  C   UNL     1      -0.453  12.060  22.349  0.00  0.00    +0.000 A 
ATOM     21  C   UNL     1       0.083  12.760  21.265  0.00  0.00    +0.000 A 
ATOM     22  C   UNL     1       0.695  12.081  20.210  0.00  0.00    +0.000 A 
ATOM     23  C   UNL     1       0.780  10.689  20.234  0.00  0.00    +0.000 A 
ATOM     24  C   UNL     1       0.264   9.976  21.318  0.00  0.00    +0.000 A 
ATOM     25  C   UNL     1      -0.365  10.667  22.374  0.00  0.00    +0.000 A 
BRANCH  20  26
ATOM     26  O   UNL     1      -1.042  12.842  23.304  0.00  0.00    +0.000 OA
BRANCH  26  28
ATOM     27  C   UNL     1      -3.391  12.422  23.331  0.00  0.00    +0.000 C 
ATOM     28  C   UNL     1      -2.306  13.426  22.988  0.00  0.00    +0.000 C 
ENDBRANCH  26  28
ENDBRANCH  20  26
ENDBRANCH  16  24
ENDBRANCH   1  18
TORSDOF 7
ENDMDL
MODEL 3
REMARK VINA RESULT:      -7.7      2.521      3.578
REMARK  Name = 
REMARK  8 active torsions:
REMARK  status: ('A' for Active; 'I' for Inactive)
REMARK    1  A    between atoms: C_1  and  C_2
REMARK    2  A    between atoms: C_2  and  O_3
REMARK    3  A    between atoms: O_3  and  C_4
REMARK    4  A    between atoms: C_8  and  C_9
REMARK    5  A    between atoms: N_11  and  N_12
REMARK    6  A    between atoms: C_13  and  C_15
REMARK    7  A    between atoms: C_21  and  C_22
REMARK    8  A    between atoms: C_22  and  O_24
REMARK                            x       y       z     vdW  Elec       q    Type
REMARK                         _______ _______ _______ _____ _____    ______ ____
ROOT
ATOM      1  N   UNL     1       3.297   7.096  18.082  0.00  0.00    +0.000 N 
ATOM      2  C   UNL     1       3.117   5.766  17.800  0.00  0.00    +0.000 C 
ATOM      3  O   UNL     1       1.989   5.254  17.789  0.00  0.00    +0.000 OA
ATOM      4  H   UNL     1       4.189   7.587  18.137  0.00  0.00    +0.000 HD
ENDROOT
BRANCH   2   5
ATOM      5  C   UNL     1       4.333   4.906  17.483  0.00  0.00    +0.000 C 
ATOM      6  C   UNL     1       4.698   4.706  15.996  0.00  0.00    +0.000 C 
ATOM      7  C   UNL     1       5.985   3.905  15.852  0.00  0.00    +0.000 C 
ATOM      8  C   UNL     1       7.001   4.701  16.245  0.00  0.00    +0.000 C 
ATOM      9  C   UNL     1       6.387   5.979  16.732  0.00  0.00    +0.000 C 
ATOM     10  C   UNL     1       5.280   6.082  15.665  0.00  0.00    +0.000 C 
ATOM     11  C   UNL     1       5.566   5.715  18.023  0.00  0.00    +0.000 C 
BRANCH  11  12
ATOM     12  C   UNL     1       6.233   4.957  19.155  0.00  0.00    +0.000 C 
ATOM     13  O   UNL     1       7.104   5.386  19.893  0.00  0.00    +0.000 OA
BRANCH  12  14
ATOM     14  O   UNL     1       5.720   3.708  19.305  0.00  0.00    +0.000 OA
ATOM     15  H   UNL     1       5.363   3.311  18.480  0.00  0.00    +0.000 HD
ENDBRANCH  12  14
ENDBRANCH  11  12
ENDBRANCH   2   5
BRANCH   1  18
ATOM     16  C   UNL     1       1.893   9.051  18.035  0.00  0.00    +0.000 C 
ATOM     17  O   UNL     1       2.600   9.601  17.194  0.00  0.00    +0.000 OA
ATOM     18  N   UNL     1       2.176   7.800  18.543  0.00  0.00    +0.000 N 
ATOM     19  H   UNL     1       1.723   7.420  19.373  0.00  0.00    +0.000 HD
BRANCH  16  24
ATOM     20  C   UNL     1      -1.549  10.651  18.333  0.00  0.00    +0.000 A 
ATOM     21  C   UNL     1      -1.556  10.972  19.693  0.00  0.00    +0.000 A 
ATOM     22  C   UNL     1      -0.453  10.682  20.498  0.00  0.00    +0.000 A 
ATOM     23  C   UNL     1       0.667  10.061  19.947  0.00  0.00    +0.000 A 
ATOM     24  C   UNL     1       0.682   9.718  18.594  0.00  0.00    +0.000 A 
ATOM     25  C   UNL     1      -0.428  10.026  17.783  0.00  0.00    +0.000 A 
BRANCH  20  26
ATOM     26  O   UNL     1      -2.682  11.007  17.653  0.00  0.00    +0.000 OA
BRANCH  26  28
ATOM     27  C   UNL     1      -3.047  10.731  15.310  0.00  0.00    +0.000 C 
ATOM     28  C   UNL     1      -3.181  10.089  16.679  0.00  0.00    +0.000 C 
ENDBRANCH  26  28
ENDBRANCH  20  26
ENDBRANCH  16  24
ENDBRANCH   1  18
TORSDOF 7
ENDMDL
MODEL 4
REMARK VINA RESULT:      -7.6      2.070      2.764
REMARK  Name = 
REMARK  8 active torsions:
REMARK  status: ('A' for Active; 'I' for Inactive)
REMARK    1  A    between atoms: C_1  and  C_2
REMARK    2  A    between atoms: C_2  and  O_3
REMARK    3  A    between atoms: O_3  and  C_4
REMARK    4  A    between atoms: C_8  and  C_9
REMARK    5  A    between atoms: N_11  and  N_12
REMARK    6  A    between atoms: C_13  and  C_15
REMARK    7  A    between atoms: C_21  and  C_22
REMARK    8  A    between atoms: C_22  and  O_24
REMARK                            x       y       z     vdW  Elec       q    Type
REMARK                         _______ _______ _______ _____ _____    ______ ____
ROOT
ATOM      1  N   UNL     1       2.599   6.387  20.275  0.00  0.00    +0.000 N 
ATOM      2  C   UNL     1       2.127   5.099  20.308  0.00  0.00    +0.000 C 
ATOM      3  O   UNL     1       1.006   4.833  20.762  0.00  0.00    +0.000 OA
ATOM      4  H   UNL     1       3.515   6.686  19.943  0.00  0.00    +0.000 HD
ENDROOT
BRANCH   2   5
ATOM      5  C   UNL     1       3.000   3.977  19.763  0.00  0.00    +0.000 C 
ATOM      6  C   UNL     1       2.302   2.664  19.351  0.00  0.00    +0.000 C 
ATOM      7  C   UNL     1       3.295   1.683  18.742  0.00  0.00    +0.000 C 
ATOM      8  C   UNL     1       3.642   2.163  17.530  0.00  0.00    +0.000 C 
ATOM      9  C   UNL     1       2.961   3.490  17.377  0.00  0.00    +0.000 C 
ATOM     10  C   UNL     1       1.629   3.103  18.048  0.00  0.00    +0.000 C 
ATOM     11  C   UNL     1       3.549   4.508  18.390  0.00  0.00    +0.000 C 
BRANCH  11  12
ATOM     12  C   UNL     1       5.056   4.666  18.456  0.00  0.00    +0.000 C 
ATOM     13  O   UNL     1       5.788   4.224  19.327  0.00  0.00    +0.000 OA
BRANCH  12  14
ATOM     14  O   UNL     1       5.547   5.343  17.386  0.00  0.00    +0.000 OA
ATOM     15  H   UNL     1       5.143   6.227  17.242  0.00  0.00    +0.000 HD
ENDBRANCH  12  14
ENDBRANCH  11  12
ENDBRANCH   2   5
BRANCH   1  18
ATOM     16  C   UNL     1       1.385   8.466  20.271  0.00  0.00    +0.000 C 
ATOM     17  O   UNL     1       1.632   8.667  19.084  0.00  0.00    +0.000 OA
ATOM     18  N   UNL     1       1.840   7.354  20.948  0.00  0.00    +0.000 N 
ATOM     19  H   UNL     1       1.817   7.272  21.964  0.00  0.00    +0.000 HD
BRANCH  16  24
ATOM     20  C   UNL     1      -0.511  11.588  21.344  0.00  0.00    +0.000 A 
ATOM     21  C   UNL     1      -0.888  11.216  22.637  0.00  0.00    +0.000 A 
ATOM     22  C   UNL     1      -0.523   9.973  23.155  0.00  0.00    +0.000 A 
ATOM     23  C   UNL     1       0.222   9.086  22.378  0.00  0.00    +0.000 A 
ATOM     24  C   UNL     1       0.592   9.437  21.079  0.00  0.00    +0.000 A 
ATOM     25  C   UNL     1       0.232  10.700  20.565  0.00  0.00    +0.000 A 
BRANCH  20  26
ATOM     26  O   UNL     1      -0.915  12.840  20.965  0.00  0.00    +0.000 OA
BRANCH  26  28
ATOM     27  C   UNL     1      -0.398  14.220  19.088  0.00  0.00    +0.000 C 
ATOM     28  C   UNL     1      -1.219  13.043  19.585  0.00  0.00    +0.000 C 
ENDBRANCH  26  28
ENDBRANCH  20  26
ENDBRANCH  16  24
ENDBRANCH   1  18
TORSDOF 7
ENDMDL
MODEL 5
REMARK VINA RESULT:      -7.6      2.355      3.002
REMARK  Name = 
REMARK  8 active torsions:
REMARK  status: ('A' for Active; 'I' for Inactive)
REMARK    1  A    between atoms: C_1  and  C_2
REMARK    2  A    between atoms: C_2  and  O_3
REMARK    3  A    between atoms: O_3  and  C_4
REMARK    4  A    between atoms: C_8  and  C_9
REMARK    5  A    between atoms: N_11  and  N_12
REMARK    6  A    between atoms: C_13  and  C_15
REMARK    7  A    between atoms: C_21  and  C_22
REMARK    8  A    between atoms: C_22  and  O_24
REMARK                            x       y       z     vdW  Elec       q    Type
REMARK                         _______ _______ _______ _____ _____    ______ ____
ROOT
ATOM      1  N   UNL     1       2.514   6.748  20.132  0.00  0.00    +0.000 N 
ATOM      2  C   UNL     1       2.238   5.407  20.225  0.00  0.00    +0.000 C 
ATOM      3  O   UNL     1       1.218   4.995  20.792  0.00  0.00    +0.000 OA
ATOM      4  H   UNL     1       3.340   7.167  19.707  0.00  0.00    +0.000 HD
ENDROOT
BRANCH   2   5
ATOM      5  C   UNL     1       3.206   4.408  19.604  0.00  0.00    +0.000 C 
ATOM      6  C   UNL     1       2.605   3.242  18.792  0.00  0.00    +0.000 C 
ATOM      7  C   UNL     1       3.700   2.392  18.163  0.00  0.00    +0.000 C 
ATOM      8  C   UNL     1       4.254   3.119  17.170  0.00  0.00    +0.000 C 
ATOM      9  C   UNL     1       3.599   4.467  17.201  0.00  0.00    +0.000 C 
ATOM     10  C   UNL     1       2.171   3.981  17.523  0.00  0.00    +0.000 C 
ATOM     11  C   UNL     1       3.986   5.214  18.505  0.00  0.00    +0.000 C 
BRANCH  11  12
ATOM     12  C   UNL     1       5.455   5.307  18.869  0.00  0.00    +0.000 C 
ATOM     13  O   UNL     1       6.001   4.745  19.805  0.00  0.00    +0.000 OA
BRANCH  12  14
ATOM     14  O   UNL     1       6.152   6.078  17.995  0.00  0.00    +0.000 OA
ATOM     15  H   UNL     1       6.290   5.671  17.112  0.00  0.00    +0.000 HD
ENDBRANCH  12  14
ENDBRANCH  11  12
ENDBRANCH   2   5
BRANCH   1  18
ATOM     16  C   UNL     1       1.213   8.767  20.289  0.00  0.00    +0.000 C 
ATOM     17  O   UNL     1       1.485   9.093  19.136  0.00  0.00    +0.000 OA
ATOM     18  N   UNL     1       1.695   7.613  20.870  0.00  0.00    +0.000 N 
ATOM     19  H   UNL     1       1.645   7.431  21.872  0.00  0.00    +0.000 HD
BRANCH  16  24
ATOM     20  C   UNL     1      -1.090  11.549  21.495  0.00  0.00    +0.000 A 
ATOM     21  C   UNL     1      -1.235  11.186  22.836  0.00  0.00    +0.000 A 
ATOM     22  C   UNL     1      -0.587  10.058  23.343  0.00  0.00    +0.000 A 
ATOM     23  C   UNL     1       0.212   9.280  22.506  0.00  0.00    +0.000 A 
ATOM     24  C   UNL     1       0.354   9.621  21.160  0.00  0.00    +0.000 A 
ATOM     25  C   UNL     1      -0.292  10.769  20.657  0.00  0.00    +0.000 A 
BRANCH  20  26
ATOM     26  O   UNL     1      -1.761  12.685  21.131  0.00  0.00    +0.000 OA
BRANCH  26  28
ATOM     27  C   UNL     1      -4.093  12.890  20.667  0.00  0.00    +0.000 C 
ATOM     28  C   UNL     1      -3.027  12.926  21.747  0.00  0.00    +0.000 C 
ENDBRANCH  26  28
ENDBRANCH  20  26
ENDBRANCH  16  24
ENDBRANCH   1  18
TORSDOF 7
ENDMDL
MODEL 6
REMARK VINA RESULT:      -7.5      7.156      8.862
REMARK  Name = 
REMARK  8 active torsions:
REMARK  status: ('A' for Active; 'I' for Inactive)
REMARK    1  A    between atoms: C_1  and  C_2
REMARK    2  A    between atoms: C_2  and  O_3
REMARK    3  A    between atoms: O_3  and  C_4
REMARK    4  A    between atoms: C_8  and  C_9
REMARK    5  A    between atoms: N_11  and  N_12
REMARK    6  A    between atoms: C_13  and  C_15
REMARK    7  A    between atoms: C_21  and  C_22
REMARK    8  A    between atoms: C_22  and  O_24
REMARK                            x       y       z     vdW  Elec       q    Type
REMARK                         _______ _______ _______ _____ _____    ______ ____
ROOT
ATOM      1  N   UNL     1       7.651   7.388  17.900  0.00  0.00    +0.000 N 
ATOM      2  C   UNL     1       7.574   6.173  18.532  0.00  0.00    +0.000 C 
ATOM      3  O   UNL     1       8.148   5.968  19.610  0.00  0.00    +0.000 OA
ATOM      4  H   UNL     1       7.232   7.630  17.003  0.00  0.00    +0.000 HD
ENDROOT
BRANCH   2   5
ATOM      5  C   UNL     1       6.755   5.058  17.895  0.00  0.00    +0.000 C 
ATOM      6  C   UNL     1       5.428   4.667  18.579  0.00  0.00    +0.000 C 
ATOM      7  C   UNL     1       4.687   3.610  17.772  0.00  0.00    +0.000 C 
ATOM      8  C   UNL     1       4.217   4.210  16.658  0.00  0.00    +0.000 C 
ATOM      9  C   UNL     1       4.720   5.622  16.681  0.00  0.00    +0.000 C 
ATOM     10  C   UNL     1       4.553   5.863  18.195  0.00  0.00    +0.000 C 
ATOM     11  C   UNL     1       6.263   5.639  16.520  0.00  0.00    +0.000 C 
BRANCH  11  12
ATOM     12  C   UNL     1       6.873   4.855  15.374  0.00  0.00    +0.000 C 
ATOM     13  O   UNL     1       6.606   3.705  15.067  0.00  0.00    +0.000 OA
BRANCH  12  14
ATOM     14  O   UNL     1       7.760   5.597  14.662  0.00  0.00    +0.000 OA
ATOM     15  H   UNL     1       8.309   5.083  14.031  0.00  0.00    +0.000 HD
ENDBRANCH  12  14
ENDBRANCH  11  12
ENDBRANCH   2   5
BRANCH   1  18
ATOM     16  C   UNL     1       8.422   9.657  18.130  0.00  0.00    +0.000 C 
ATOM     17  O   UNL     1       7.538  10.087  17.393  0.00  0.00    +0.000 OA
ATOM     18  N   UNL     1       8.558   8.317  18.428  0.00  0.00    +0.000 N 
ATOM     19  H   UNL     1       9.391   7.925  18.866  0.00  0.00    +0.000 HD
BRANCH  16  24
ATOM     20  C   UNL     1      11.342  12.066  18.542  0.00  0.00    +0.000 A 
ATOM     21  C   UNL     1      11.325  12.239  19.929  0.00  0.00    +0.000 A 
ATOM     22  C   UNL     1      10.385  11.576  20.718  0.00  0.00    +0.000 A 
ATOM     23  C   UNL     1       9.446  10.733  20.123  0.00  0.00    +0.000 A 
ATOM     24  C   UNL     1       9.440  10.562  18.738  0.00  0.00    +0.000 A 
ATOM     25  C   UNL     1      10.401  11.224  17.947  0.00  0.00    +0.000 A 
BRANCH  20  26
ATOM     26  O   UNL     1      12.327  12.756  17.888  0.00  0.00    +0.000 OA
BRANCH  26  28
ATOM     27  C   UNL     1      11.320  14.750  17.049  0.00  0.00    +0.000 C 
ATOM     28  C   UNL     1      12.333  14.177  18.023  0.00  0.00    +0.000 C 
ENDBRANCH  26  28
ENDBRANCH  20  26
ENDBRANCH  16  24
ENDBRANCH   1  18
TORSDOF 7
ENDMDL
MODEL 7
REMARK VINA RESULT:      -7.5      1.858      2.288
REMARK  Name = 
REMARK  8 active torsions:
REMARK  status: ('A' for Active; 'I' for Inactive)
REMARK    1  A    between atoms: C_1  and  C_2
REMARK    2  A    between atoms: C_2  and  O_3
REMARK    3  A    between atoms: O_3  and  C_4
REMARK    4  A    between atoms: C_8  and  C_9
REMARK    5  A    between atoms: N_11  and  N_12
REMARK    6  A    between atoms: C_13  and  C_15
REMARK    7  A    between atoms: C_21  and  C_22
REMARK    8  A    between atoms: C_22  and  O_24
REMARK                            x       y       z     vdW  Elec       q    Type
REMARK                         _______ _______ _______ _____ _____    ______ ____
ROOT
ATOM      1  N   UNL     1       1.984   6.742  20.762  0.00  0.00    +0.000 N 
ATOM      2  C   UNL     1       2.579   6.234  19.635  0.00  0.00    +0.000 C 
ATOM      3  O   UNL     1       2.945   6.970  18.709  0.00  0.00    +0.000 OA
ATOM      4  H   UNL     1       1.633   6.205  21.554  0.00  0.00    +0.000 HD
ENDROOT
BRANCH   2   5
ATOM      5  C   UNL     1       2.802   4.731  19.530  0.00  0.00    +0.000 C 
ATOM      6  C   UNL     1       1.564   3.840  19.293  0.00  0.00    +0.000 C 
ATOM      7  C   UNL     1       1.965   2.381  19.119  0.00  0.00    +0.000 C 
ATOM      8  C   UNL     1       2.576   2.272  17.921  0.00  0.00    +0.000 C 
ATOM      9  C   UNL     1       2.663   3.655  17.349  0.00  0.00    +0.000 C 
ATOM     10  C   UNL     1       1.280   4.146  17.820  0.00  0.00    +0.000 C 
ATOM     11  C   UNL     1       3.622   4.523  18.206  0.00  0.00    +0.000 C 
BRANCH  11  12
ATOM     12  C   UNL     1       4.998   3.971  18.526  0.00  0.00    +0.000 C 
ATOM     13  O   UNL     1       5.395   3.621  19.626  0.00  0.00    +0.000 OA
BRANCH  12  14
ATOM     14  O   UNL     1       5.774   3.859  17.417  0.00  0.00    +0.000 OA
ATOM     15  H   UNL     1       5.802   2.957  17.027  0.00  0.00    +0.000 HD
ENDBRANCH  12  14
ENDBRANCH  11  12
ENDBRANCH   2   5
BRANCH   1  18
ATOM     16  C   UNL     1       0.399   8.503  21.186  0.00  0.00    +0.000 C 
ATOM     17  O   UNL     1      -0.444   7.714  21.605  0.00  0.00    +0.000 OA
ATOM     18  N   UNL     1       1.638   8.099  20.734  0.00  0.00    +0.000 N 
ATOM     19  H   UNL     1       2.262   8.707  20.204  0.00  0.00    +0.000 HD
BRANCH  16  24
ATOM     20  C   UNL     1       0.038  12.057  19.867  0.00  0.00    +0.000 A 
ATOM     21  C   UNL     1      -0.391  12.708  21.026  0.00  0.00    +0.000 A 
ATOM     22  C   UNL     1      -0.552  12.004  22.221  0.00  0.00    +0.000 A 
ATOM     23  C   UNL     1      -0.287  10.636  22.264  0.00  0.00    +0.000 A 
ATOM     24  C   UNL     1       0.127   9.968  21.110  0.00  0.00    +0.000 A 
ATOM     25  C   UNL     1       0.301  10.686  19.910  0.00  0.00    +0.000 A 
BRANCH  20  26
ATOM     26  O   UNL     1       0.175  12.865  18.771  0.00  0.00    +0.000 OA
BRANCH  26  28
ATOM     27  C   UNL     1       2.478  13.168  18.226  0.00  0.00    +0.000 C 
ATOM     28  C   UNL     1       1.231  13.825  18.790  0.00  0.00    +0.000 C 
ENDBRANCH  26  28
ENDBRANCH  20  26
ENDBRANCH  16  24
ENDBRANCH   1  18
TORSDOF 7
ENDMDL
MODEL 8
REMARK VINA RESULT:      -7.5      1.657      2.528
REMARK  Name = 
REMARK  8 active torsions:
REMARK  status: ('A' for Active; 'I' for Inactive)
REMARK    1  A    between atoms: C_1  and  C_2
REMARK    2  A    between atoms: C_2  and  O_3
REMARK    3  A    between atoms: O_3  and  C_4
REMARK    4  A    between atoms: C_8  and  C_9
REMARK    5  A    between atoms: N_11  and  N_12
REMARK    6  A    between atoms: C_13  and  C_15
REMARK    7  A    between atoms: C_21  and  C_22
REMARK    8  A    between atoms: C_22  and  O_24
REMARK                            x       y       z     vdW  Elec       q    Type
REMARK                         _______ _______ _______ _____ _____    ______ ____
ROOT
ATOM      1  N   UNL     1       2.042   7.347  20.413  0.00  0.00    +0.000 N 
ATOM      2  C   UNL     1       2.595   6.403  19.586  0.00  0.00    +0.000 C 
ATOM      3  O   UNL     1       2.834   6.646  18.396  0.00  0.00    +0.000 OA
ATOM      4  H   UNL     1       1.791   7.220  21.393  0.00  0.00    +0.000 HD
ENDROOT
BRANCH   2   5
ATOM      5  C   UNL     1       2.932   5.030  20.153  0.00  0.00    +0.000 C 
ATOM      6  C   UNL     1       1.902   4.376  21.100  0.00  0.00    +0.000 C 
ATOM      7  C   UNL     1       2.342   2.975  21.502  0.00  0.00    +0.000 C 
ATOM      8  C   UNL     1       2.210   2.184  20.417  0.00  0.00    +0.000 C 
ATOM      9  C   UNL     1       1.777   3.068  19.285  0.00  0.00    +0.000 C 
ATOM     10  C   UNL     1       0.822   3.967  20.095  0.00  0.00    +0.000 C 
ATOM     11  C   UNL     1       2.917   4.056  18.920  0.00  0.00    +0.000 C 
BRANCH  11  12
ATOM     12  C   UNL     1       4.305   3.495  18.682  0.00  0.00    +0.000 C 
ATOM     13  O   UNL     1       5.291   3.696  19.372  0.00  0.00    +0.000 OA
BRANCH  12  14
ATOM     14  O   UNL     1       4.346   2.675  17.599  0.00  0.00    +0.000 OA
ATOM     15  H   UNL     1       4.693   1.774  17.782  0.00  0.00    +0.000 HD
ENDBRANCH  12  14
ENDBRANCH  11  12
ENDBRANCH   2   5
BRANCH   1  18
ATOM     16  C   UNL     1       0.585   9.264  20.405  0.00  0.00    +0.000 C 
ATOM     17  O   UNL     1       0.048   8.925  21.457  0.00  0.00    +0.000 OA
ATOM     18  N   UNL     1       1.585   8.526  19.807  0.00  0.00    +0.000 N 
ATOM     19  H   UNL     1       1.896   8.682  18.849  0.00  0.00    +0.000 HD
BRANCH  16  24
ATOM     20  C   UNL     1       0.605  12.756  18.888  0.00  0.00    +0.000 A 
ATOM     21  C   UNL     1      -0.668  12.782  18.311  0.00  0.00    +0.000 A 
ATOM     22  C   UNL     1      -1.522  11.685  18.422  0.00  0.00    +0.000 A 
ATOM     23  C   UNL     1      -1.107  10.545  19.111  0.00  0.00    +0.000 A 
ATOM     24  C   UNL     1       0.168  10.498  19.678  0.00  0.00    +0.000 A 
ATOM     25  C   UNL     1       1.021  11.615  19.575  0.00  0.00    +0.000 A 
BRANCH  20  26
ATOM     26  O   UNL     1       1.334  13.903  18.724  0.00  0.00    +0.000 OA
BRANCH  26  28
ATOM     27  C   UNL     1       3.592  14.556  19.134  0.00  0.00    +0.000 C 
ATOM     28  C   UNL     1       2.665  13.769  18.225  0.00  0.00    +0.000 C 
ENDBRANCH  26  28
ENDBRANCH  20  26
ENDBRANCH  16  24
ENDBRANCH   1  18
TORSDOF 7
ENDMDL
MODEL 9
REMARK VINA RESULT:      -7.5      2.434      3.326
REMARK  Name = 
REMARK  8 active torsions:
REMARK  status: ('A' for Active; 'I' for Inactive)
REMARK    1  A    between atoms: C_1  and  C_2
REMARK    2  A    between atoms: C_2  and  O_3
REMARK    3  A    between atoms: O_3  and  C_4
REMARK    4  A    between atoms: C_8  and  C_9
REMARK    5  A    between atoms: N_11  and  N_12
REMARK    6  A    between atoms: C_13  and  C_15
REMARK    7  A    between atoms: C_21  and  C_22
REMARK    8  A    between atoms: C_22  and  O_24
REMARK                            x       y       z     vdW  Elec       q    Type
REMARK                         _______ _______ _______ _____ _____    ______ ____
ROOT
ATOM      1  N   UNL     1       2.615   6.445  20.212  0.00  0.00    +0.000 N 
ATOM      2  C   UNL     1       2.182   5.146  20.296  0.00  0.00    +0.000 C 
ATOM      3  O   UNL     1       1.100   4.858  20.826  0.00  0.00    +0.000 OA
ATOM      4  H   UNL     1       3.498   6.763  19.817  0.00  0.00    +0.000 HD
ENDROOT
BRANCH   2   5
ATOM      5  C   UNL     1       3.049   4.039  19.712  0.00  0.00    +0.000 C 
ATOM      6  C   UNL     1       2.365   2.695  19.382  0.00  0.00    +0.000 C 
ATOM      7  C   UNL     1       3.342   1.731  18.723  0.00  0.00    +0.000 C 
ATOM      8  C   UNL     1       3.583   2.192  17.478  0.00  0.00    +0.000 C 
ATOM      9  C   UNL     1       2.850   3.493  17.346  0.00  0.00    +0.000 C 
ATOM     10  C   UNL     1       1.584   3.082  18.123  0.00  0.00    +0.000 C 
ATOM     11  C   UNL     1       3.478   4.553  18.291  0.00  0.00    +0.000 C 
BRANCH  11  12
ATOM     12  C   UNL     1       4.979   4.759  18.242  0.00  0.00    +0.000 C 
ATOM     13  O   UNL     1       5.609   5.246  17.316  0.00  0.00    +0.000 OA
BRANCH  12  14
ATOM     14  O   UNL     1       5.587   4.369  19.392  0.00  0.00    +0.000 OA
ATOM     15  H   UNL     1       6.322   3.728  19.269  0.00  0.00    +0.000 HD
ENDBRANCH  12  14
ENDBRANCH  11  12
ENDBRANCH   2   5
BRANCH   1  18
ATOM     16  C   UNL     1       1.415   8.532  20.273  0.00  0.00    +0.000 C 
ATOM     17  O   UNL     1       1.641   8.755  19.087  0.00  0.00    +0.000 OA
ATOM     18  N   UNL     1       1.875   7.403  20.919  0.00  0.00    +0.000 N 
ATOM     19  H   UNL     1       1.870   7.301  21.934  0.00  0.00    +0.000 HD
BRANCH  16  24
ATOM     20  C   UNL     1      -0.283  11.703  21.522  0.00  0.00    +0.000 A 
ATOM     21  C   UNL     1      -0.805  11.243  22.734  0.00  0.00    +0.000 A 
ATOM     22  C   UNL     1      -0.599   9.924  23.143  0.00  0.00    +0.000 A 
ATOM     23  C   UNL     1       0.130   9.051  22.337  0.00  0.00    +0.000 A 
ATOM     24  C   UNL     1       0.643   9.491  21.115  0.00  0.00    +0.000 A 
ATOM     25  C   UNL     1       0.444  10.827  20.714  0.00  0.00    +0.000 A 
BRANCH  20  26
ATOM     26  O   UNL     1      -0.539  13.019  21.248  0.00  0.00    +0.000 OA
BRANCH  26  28
ATOM     27  C   UNL     1      -0.705  14.846  22.775  0.00  0.00    +0.000 C 
ATOM     28  C   UNL     1       0.237  13.997  21.942  0.00  0.00    +0.000 C 
ENDBRANCH  26  28
ENDBRANCH  20  26
ENDBRANCH  16  24
ENDBRANCH   1  18
TORSDOF 7
ENDMDL
