MODEL 1
REMARK VINA RESULT:      -8.5      0.000      0.000
REMARK  Name = 
REMARK  9 active torsions:
REMARK  status: ('A' for Active; 'I' for Inactive)
REMARK    1  A    between atoms: C_1  and  C_2
REMARK    2  A    between atoms: C_2  and  N_3
REMARK    3  A    between atoms: C_2  and  C_15
REMARK    4  A    between atoms: C_4  and  C_6
REMARK    5  A    between atoms: C_7  and  C_8
REMARK    6  A    between atoms: C_11  and  O_12
REMARK    7  A    between atoms: N_17  and  C_18
REMARK    8  A    between atoms: C_18  and  C_19
REMARK    9  A    between atoms: C_19  and  C_20
REMARK                            x       y       z     vdW  Elec       q    Type
REMARK                         _______ _______ _______ _____ _____    ______ ____
ROOT
ATOM      1  C   UNL     1       8.428   5.108  20.063  0.00  0.00    +0.000 C 
ATOM      2  C   UNL     1       7.857   5.921  18.905  0.00  0.00    +0.000 C 
ENDROOT
BRANCH   2   3
ATOM      3  N   UNL     1       8.263   7.322  18.931  0.00  0.00    +0.000 N 
ATOM      4  C   UNL     1       8.066   8.169  17.873  0.00  0.00    +0.000 C 
ATOM      5  O   UNL     1       7.592   7.818  16.797  0.00  0.00    +0.000 OA
ATOM      6  H   UNL     1       8.614   7.683  19.806  0.00  0.00    +0.000 HD
BRANCH   4   7
ATOM      7  C   UNL     1       8.460   9.569  18.164  0.00  0.00    +0.000 C 
ATOM      8  C   UNL     1       9.328   9.824  19.159  0.00  0.00    +0.000 C 
BRANCH   8   9
ATOM      9  C   UNL     1       9.819  11.163  19.517  0.00  0.00    +0.000 A 
ATOM     10  C   UNL     1      10.392  11.970  18.521  0.00  0.00    +0.000 A 
ATOM     11  C   UNL     1      10.841  13.261  18.814  0.00  0.00    +0.000 A 
ATOM     12  C   UNL     1      10.706  13.755  20.106  0.00  0.00    +0.000 A 
ATOM     13  C   UNL     1      10.119  12.985  21.101  0.00  0.00    +0.000 A 
ATOM     14  C   UNL     1       9.671  11.694  20.806  0.00  0.00    +0.000 A 
BRANCH  12  15
ATOM     15  O   UNL     1      11.132  15.005  20.442  0.00  0.00    +0.000 OA
ATOM     16  H   UNL     1      11.868  14.923  21.072  0.00  0.00    +0.000 HD
ENDBRANCH  12  15
ENDBRANCH   8   9
ENDBRANCH   4   7
ENDBRANCH   2   3
BRANCH   2  17
ATOM     17  C   UNL     1       6.336   5.739  18.685  0.00  0.00    +0.000 C 
ATOM     18  O   UNL     1       5.566   5.614  19.636  0.00  0.00    +0.000 OA
ATOM     19  N   UNL     1       5.920   5.650  17.373  0.00  0.00    +0.000 N 
ATOM     20  H   UNL     1       6.625   5.373  16.691  0.00  0.00    +0.000 HD
BRANCH  19  21
ATOM     21  C   UNL     1       4.523   5.426  17.038  0.00  0.00    +0.000 C 
BRANCH  21  22
ATOM     22  C   UNL     1       4.277   3.993  16.557  0.00  0.00    +0.000 C 
BRANCH  22  23
ATOM     23  C   UNL     1       3.636   3.129  17.597  0.00  0.00    +0.000 A 
ATOM     24  C   UNL     1       3.703   1.752  17.691  0.00  0.00    +0.000 A 
ATOM     25  N   UNL     1       2.949   1.358  18.765  0.00  0.00    +0.000 N 
ATOM     26  C   UNL     1       2.370   2.449  19.368  0.00  0.00    +0.000 A 
ATOM     27  C   UNL     1       1.499   2.523  20.463  0.00  0.00    +0.000 A 
ATOM     28  C   UNL     1       1.056   3.790  20.855  0.00  0.00    +0.000 A 
ATOM     29  C   UNL     1       1.487   4.937  20.191  0.00  0.00    +0.000 A 
ATOM     30  C   UNL     1       2.365   4.846  19.106  0.00  0.00    +0.000 A 
ATOM     31  C   UNL     1       2.804   3.577  18.673  0.00  0.00    +0.000 A 
ATOM     32  H   UNL     1       2.816   0.403  19.065  0.00  0.00    +0.000 HD
ENDBRANCH  22  23
ENDBRANCH  21  22
ENDBRANCH  19  21
ENDBRANCH   2  17
TORSDOF 8
ENDMDL
MODEL 2
REMARK VINA RESULT:      -8.5      0.998      1.284
REMARK  Name = 
REMARK  9 active torsions:
REMARK  status: ('A' for Active; 'I' for Inactive)
REMARK    1  A    between atoms: C_1  and  C_2
REMARK    2  A    between atoms: C_2  and  N_3
REMARK    3  A    between atoms: C_2  and  C_15
REMARK    4  A    between atoms: C_4  and  C_6
REMARK    5  A    between atoms: C_7  and  C_8
REMARK    6  A    between atoms: C_11  and  O_12
REMARK    7  A    between atoms: N_17  and  C_18
REMARK    8  A    between atoms: C_18  and  C_19
REMARK    9  A    between atoms: C_19  and  C_20
REMARK                            x       y       z     vdW  Elec       q    Type
REMARK                         _______ _______ _______ _____ _____    ______ ____
ROOT
ATOM      1  C   UNL     1       8.188   5.187  20.330  0.00  0.00    +0.000 C 
ATOM      2  C   UNL     1       7.897   5.815  18.971  0.00  0.00    +0.000 C 
ENDROOT
BRANCH   2   3
ATOM      3  N   UNL     1       8.305   7.214  18.885  0.00  0.00    +0.000 N 
ATOM      4  C   UNL     1       7.999   8.008  17.813  0.00  0.00    +0.000 C 
ATOM      5  O   UNL     1       7.413   7.608  16.811  0.00  0.00    +0.000 OA
ATOM      6  H   UNL     1       8.747   7.614  19.699  0.00  0.00    +0.000 HD
BRANCH   4   7
ATOM      7  C   UNL     1       8.423   9.418  17.991  0.00  0.00    +0.000 C 
ATOM      8  C   UNL     1       9.131   9.769  19.080  0.00  0.00    +0.000 C 
BRANCH   8   9
ATOM      9  C   UNL     1       9.636  11.123  19.347  0.00  0.00    +0.000 A 
ATOM     10  C   UNL     1       9.807  12.014  18.276  0.00  0.00    +0.000 A 
ATOM     11  C   UNL     1      10.256  13.320  18.493  0.00  0.00    +0.000 A 
ATOM     12  C   UNL     1      10.522  13.745  19.789  0.00  0.00    +0.000 A 
ATOM     13  C   UNL     1      10.335  12.890  20.867  0.00  0.00    +0.000 A 
ATOM     14  C   UNL     1       9.888  11.584  20.648  0.00  0.00    +0.000 A 
BRANCH  12  15
ATOM     15  O   UNL     1      10.964  15.007  20.051  0.00  0.00    +0.000 OA
ATOM     16  H   UNL     1      10.596  15.294  20.904  0.00  0.00    +0.000 HD
ENDBRANCH  12  15
ENDBRANCH   8   9
ENDBRANCH   4   7
ENDBRANCH   2   3
BRANCH   2  17
ATOM     17  C   UNL     1       6.459   5.575  18.451  0.00  0.00    +0.000 C 
ATOM     18  O   UNL     1       5.478   5.862  19.136  0.00  0.00    +0.000 OA
ATOM     19  N   UNL     1       6.355   4.958  17.222  0.00  0.00    +0.000 N 
ATOM     20  H   UNL     1       7.162   4.417  16.916  0.00  0.00    +0.000 HD
BRANCH  19  21
ATOM     21  C   UNL     1       5.058   4.630  16.650  0.00  0.00    +0.000 C 
BRANCH  21  22
ATOM     22  C   UNL     1       4.528   3.292  17.173  0.00  0.00    +0.000 C 
BRANCH  22  23
ATOM     23  C   UNL     1       3.178   3.406  17.808  0.00  0.00    +0.000 A 
ATOM     24  C   UNL     1       2.016   3.863  17.214  0.00  0.00    +0.000 A 
ATOM     25  N   UNL     1       1.017   3.838  18.152  0.00  0.00    +0.000 N 
ATOM     26  C   UNL     1       1.506   3.394  19.358  0.00  0.00    +0.000 A 
ATOM     27  C   UNL     1       0.864   3.243  20.594  0.00  0.00    +0.000 A 
ATOM     28  C   UNL     1       1.627   2.771  21.667  0.00  0.00    +0.000 A 
ATOM     29  C   UNL     1       2.970   2.443  21.501  0.00  0.00    +0.000 A 
ATOM     30  C   UNL     1       3.593   2.590  20.257  0.00  0.00    +0.000 A 
ATOM     31  C   UNL     1       2.852   3.090  19.166  0.00  0.00    +0.000 A 
ATOM     32  H   UNL     1       0.062   4.124  17.993  0.00  0.00    +0.000 HD
ENDBRANCH  22  23
ENDBRANCH  21  22
ENDBRANCH  19  21
ENDBRANCH   2  17
TORSDOF 8
ENDMDL
MODEL 3
REMARK VINA RESULT:      -8.3      5.244      7.670
REMARK  Name = 
REMARK  9 active torsions:
REMARK  status: ('A' for Active; 'I' for Inactive)
REMARK    1  A    between atoms: C_1  and  C_2
REMARK    2  A    between atoms: C_2  and  N_3
REMARK    3  A    between atoms: C_2  and  C_15
REMARK    4  A    between atoms: C_4  and  C_6
REMARK    5  A    between atoms: C_7  and  C_8
REMARK    6  A    between atoms: C_11  and  O_12
REMARK    7  A    between atoms: N_17  and  C_18
REMARK    8  A    between atoms: C_18  and  C_19
REMARK    9  A    between atoms: C_19  and  C_20
REMARK                            x       y       z     vdW  Elec       q    Type
REMARK                         _______ _______ _______ _____ _____    ______ ____
ROOT
ATOM      1  C   UNL     1       1.485   4.232  20.560  0.00  0.00    +0.000 C 
ATOM      2  C   UNL     1       2.725   5.120  20.549  0.00  0.00    +0.000 C 
ENDROOT
BRANCH   2   3
ATOM      3  N   UNL     1       2.413   6.543  20.459  0.00  0.00    +0.000 N 
ATOM      4  C   UNL     1       2.210   7.180  19.264  0.00  0.00    +0.000 C 
ATOM      5  O   UNL     1       2.329   6.636  18.170  0.00  0.00    +0.000 OA
ATOM      6  H   UNL     1       2.252   7.034  21.325  0.00  0.00    +0.000 HD
BRANCH   4   7
ATOM      7  C   UNL     1       1.801   8.597  19.420  0.00  0.00    +0.000 C 
ATOM      8  C   UNL     1       1.062   9.187  18.463  0.00  0.00    +0.000 C 
BRANCH   8   9
ATOM      9  C   UNL     1       0.568  10.570  18.523  0.00  0.00    +0.000 A 
ATOM     10  C   UNL     1      -0.813  10.808  18.431  0.00  0.00    +0.000 A 
ATOM     11  C   UNL     1      -1.325  12.107  18.515  0.00  0.00    +0.000 A 
ATOM     12  C   UNL     1      -0.455  13.173  18.707  0.00  0.00    +0.000 A 
ATOM     13  C   UNL     1       0.912  12.960  18.827  0.00  0.00    +0.000 A 
ATOM     14  C   UNL     1       1.422  11.661  18.741  0.00  0.00    +0.000 A 
BRANCH  12  15
ATOM     15  O   UNL     1      -0.905  14.456  18.792  0.00  0.00    +0.000 OA
ATOM     16  H   UNL     1      -1.874  14.442  18.857  0.00  0.00    +0.000 HD
ENDBRANCH  12  15
ENDBRANCH   8   9
ENDBRANCH   4   7
ENDBRANCH   2   3
BRANCH   2  17
ATOM     17  C   UNL     1       3.819   4.679  19.546  0.00  0.00    +0.000 C 
ATOM     18  O   UNL     1       4.935   5.194  19.555  0.00  0.00    +0.000 OA
ATOM     19  N   UNL     1       3.438   3.741  18.609  0.00  0.00    +0.000 N 
ATOM     20  H   UNL     1       2.439   3.665  18.423  0.00  0.00    +0.000 HD
BRANCH  19  21
ATOM     21  C   UNL     1       4.360   3.286  17.580  0.00  0.00    +0.000 C 
BRANCH  21  22
ATOM     22  C   UNL     1       4.160   4.042  16.263  0.00  0.00    +0.000 C 
BRANCH  22  23
ATOM     23  C   UNL     1       5.440   4.557  15.685  0.00  0.00    +0.000 A 
ATOM     24  C   UNL     1       6.350   5.398  16.297  0.00  0.00    +0.000 A 
ATOM     25  N   UNL     1       7.363   5.653  15.410  0.00  0.00    +0.000 N 
ATOM     26  C   UNL     1       7.126   5.011  14.218  0.00  0.00    +0.000 A 
ATOM     27  C   UNL     1       7.862   5.015  13.026  0.00  0.00    +0.000 A 
ATOM     28  C   UNL     1       7.365   4.264  11.955  0.00  0.00    +0.000 A 
ATOM     29  C   UNL     1       6.192   3.524  12.082  0.00  0.00    +0.000 A 
ATOM     30  C   UNL     1       5.475   3.524  13.283  0.00  0.00    +0.000 A 
ATOM     31  C   UNL     1       5.939   4.295  14.369  0.00  0.00    +0.000 A 
ATOM     32  H   UNL     1       8.162   6.243  15.592  0.00  0.00    +0.000 HD
ENDBRANCH  22  23
ENDBRANCH  21  22
ENDBRANCH  19  21
ENDBRANCH   2  17
TORSDOF 8
ENDMDL
MODEL 4
REMARK VINA RESULT:      -8.3      1.719      2.456
REMARK  Name = 
REMARK  9 active torsions:
REMARK  status: ('A' for Active; 'I' for Inactive)
REMARK    1  A    between atoms: C_1  and  C_2
REMARK    2  A    between atoms: C_2  and  N_3
REMARK    3  A    between atoms: C_2  and  C_15
REMARK    4  A    between atoms: C_4  and  C_6
REMARK    5  A    between atoms: C_7  and  C_8
REMARK    6  A    between atoms: C_11  and  O_12
REMARK    7  A    between atoms: N_17  and  C_18
REMARK    8  A    between atoms: C_18  and  C_19
REMARK    9  A    between atoms: C_19  and  C_20
REMARK                            x       y       z     vdW  Elec       q    Type
REMARK                         _______ _______ _______ _____ _____    ______ ____
ROOT
ATOM      1  C   UNL     1       7.451   4.500  16.252  0.00  0.00    +0.000 C 
ATOM      2  C   UNL     1       6.826   5.884  16.104  0.00  0.00    +0.000 C 
ENDROOT
BRANCH   2   3
ATOM      3  N   UNL     1       7.546   6.921  16.835  0.00  0.00    +0.000 N 
ATOM      4  C   UNL     1       7.684   6.906  18.197  0.00  0.00    +0.000 C 
ATOM      5  O   UNL     1       7.170   6.062  18.926  0.00  0.00    +0.000 OA
ATOM      6  H   UNL     1       8.033   7.615  16.288  0.00  0.00    +0.000 HD
BRANCH   4   7
ATOM      7  C   UNL     1       8.544   8.000  18.710  0.00  0.00    +0.000 C 
ATOM      8  C   UNL     1       8.411   9.242  18.210  0.00  0.00    +0.000 C 
BRANCH   8   9
ATOM      9  C   UNL     1       9.179  10.411  18.663  0.00  0.00    +0.000 A 
ATOM     10  C   UNL     1       9.522  10.521  20.019  0.00  0.00    +0.000 A 
ATOM     11  C   UNL     1      10.278  11.602  20.483  0.00  0.00    +0.000 A 
ATOM     12  C   UNL     1      10.706  12.572  19.585  0.00  0.00    +0.000 A 
ATOM     13  C   UNL     1      10.401  12.470  18.234  0.00  0.00    +0.000 A 
ATOM     14  C   UNL     1       9.644  11.390  17.773  0.00  0.00    +0.000 A 
BRANCH  12  15
ATOM     15  O   UNL     1      11.442  13.644  19.989  0.00  0.00    +0.000 OA
ATOM     16  H   UNL     1      10.835  14.358  20.247  0.00  0.00    +0.000 HD
ENDBRANCH  12  15
ENDBRANCH   8   9
ENDBRANCH   4   7
ENDBRANCH   2   3
BRANCH   2  17
ATOM     17  C   UNL     1       5.298   5.925  16.349  0.00  0.00    +0.000 C 
ATOM     18  O   UNL     1       4.559   5.044  15.912  0.00  0.00    +0.000 OA
ATOM     19  N   UNL     1       4.821   7.036  17.013  0.00  0.00    +0.000 N 
ATOM     20  H   UNL     1       5.410   7.867  16.989  0.00  0.00    +0.000 HD
BRANCH  19  21
ATOM     21  C   UNL     1       3.398   7.216  17.257  0.00  0.00    +0.000 C 
BRANCH  21  22
ATOM     22  C   UNL     1       2.997   6.734  18.654  0.00  0.00    +0.000 C 
BRANCH  22  23
ATOM     23  C   UNL     1       2.312   5.404  18.639  0.00  0.00    +0.000 A 
ATOM     24  C   UNL     1       1.680   4.806  17.566  0.00  0.00    +0.000 A 
ATOM     25  N   UNL     1       1.156   3.612  17.987  0.00  0.00    +0.000 N 
ATOM     26  C   UNL     1       1.414   3.423  19.324  0.00  0.00    +0.000 A 
ATOM     27  C   UNL     1       1.043   2.377  20.179  0.00  0.00    +0.000 A 
ATOM     28  C   UNL     1       1.445   2.458  21.515  0.00  0.00    +0.000 A 
ATOM     29  C   UNL     1       2.207   3.532  21.971  0.00  0.00    +0.000 A 
ATOM     30  C   UNL     1       2.577   4.563  21.101  0.00  0.00    +0.000 A 
ATOM     31  C   UNL     1       2.161   4.519  19.754  0.00  0.00    +0.000 A 
ATOM     32  H   UNL     1       0.636   2.967  17.409  0.00  0.00    +0.000 HD
ENDBRANCH  22  23
ENDBRANCH  21  22
ENDBRANCH  19  21
ENDBRANCH   2  17
TORSDOF 8
ENDMDL
MODEL 5
REMARK VINA RESULT:      -8.3      1.567      2.789
REMARK  Name = 
REMARK  9 active torsions:
REMARK  status: ('A' for Active; 'I' for Inactive)
REMARK    1  A    between atoms: C_1  and  C_2
REMARK    2  A    between atoms: C_2  and  N_3
REMARK    3  A    between atoms: C_2  and  C_15
REMARK    4  A    between atoms: C_4  and  C_6
REMARK    5  A    between atoms: C_7  and  C_8
REMARK    6  A    between atoms: C_11  and  O_12
REMARK    7  A    between atoms: N_17  and  C_18
REMARK    8  A    between atoms: C_18  and  C_19
REMARK    9  A    between atoms: C_19  and  C_20
REMARK                            x       y       z     vdW  Elec       q    Type
REMARK                         _______ _______ _______ _____ _____    ______ ____
ROOT
ATOM      1  C   UNL     1       5.647   4.392  18.798  0.00  0.00    +0.000 C 
ATOM      2  C   UNL     1       5.502   5.781  18.186  0.00  0.00    +0.000 C 
ENDROOT
BRANCH   2   3
ATOM      3  N   UNL     1       6.573   6.694  18.571  0.00  0.00    +0.000 N 
ATOM      4  C   UNL     1       7.484   7.187  17.675  0.00  0.00    +0.000 C 
ATOM      5  O   UNL     1       7.520   6.863  16.491  0.00  0.00    +0.000 OA
ATOM      6  H   UNL     1       6.566   7.036  19.520  0.00  0.00    +0.000 HD
BRANCH   4   7
ATOM      7  C   UNL     1       8.412   8.178  18.270  0.00  0.00    +0.000 C 
ATOM      8  C   UNL     1       8.283   9.482  17.962  0.00  0.00    +0.000 C 
BRANCH   8   9
ATOM      9  C   UNL     1       9.117  10.558  18.515  0.00  0.00    +0.000 A 
ATOM     10  C   UNL     1       9.563  10.464  19.842  0.00  0.00    +0.000 A 
ATOM     11  C   UNL     1      10.385  11.451  20.395  0.00  0.00    +0.000 A 
ATOM     12  C   UNL     1      10.774  12.533  19.614  0.00  0.00    +0.000 A 
ATOM     13  C   UNL     1      10.366  12.634  18.291  0.00  0.00    +0.000 A 
ATOM     14  C   UNL     1       9.544  11.646  17.740  0.00  0.00    +0.000 A 
BRANCH  12  15
ATOM     15  O   UNL     1      11.570  13.521  20.108  0.00  0.00    +0.000 OA
ATOM     16  H   UNL     1      11.427  14.327  19.583  0.00  0.00    +0.000 HD
ENDBRANCH  12  15
ENDBRANCH   8   9
ENDBRANCH   4   7
ENDBRANCH   2   3
BRANCH   2  17
ATOM     17  C   UNL     1       4.094   6.405  18.341  0.00  0.00    +0.000 C 
ATOM     18  O   UNL     1       3.527   6.941  17.391  0.00  0.00    +0.000 OA
ATOM     19  N   UNL     1       3.562   6.387  19.614  0.00  0.00    +0.000 N 
ATOM     20  H   UNL     1       4.224   6.293  20.382  0.00  0.00    +0.000 HD
BRANCH  19  21
ATOM     21  C   UNL     1       2.268   6.990  19.898  0.00  0.00    +0.000 C 
BRANCH  21  22
ATOM     22  C   UNL     1       1.342   6.021  20.639  0.00  0.00    +0.000 C 
BRANCH  22  23
ATOM     23  C   UNL     1       1.835   4.609  20.616  0.00  0.00    +0.000 A 
ATOM     24  C   UNL     1       2.213   3.842  21.703  0.00  0.00    +0.000 A 
ATOM     25  N   UNL     1       2.632   2.622  21.242  0.00  0.00    +0.000 N 
ATOM     26  C   UNL     1       2.556   2.579  19.870  0.00  0.00    +0.000 A 
ATOM     27  C   UNL     1       2.911   1.560  18.975  0.00  0.00    +0.000 A 
ATOM     28  C   UNL     1       2.729   1.804  17.610  0.00  0.00    +0.000 A 
ATOM     29  C   UNL     1       2.194   3.010  17.163  0.00  0.00    +0.000 A 
ATOM     30  C   UNL     1       1.835   4.012  18.071  0.00  0.00    +0.000 A 
ATOM     31  C   UNL     1       2.035   3.802  19.451  0.00  0.00    +0.000 A 
ATOM     32  H   UNL     1       2.970   1.865  21.819  0.00  0.00    +0.000 HD
ENDBRANCH  22  23
ENDBRANCH  21  22
ENDBRANCH  19  21
ENDBRANCH   2  17
TORSDOF 8
ENDMDL
MODEL 6
REMARK VINA RESULT:      -8.3      1.787      2.575
REMARK  Name = 
REMARK  9 active torsions:
REMARK  status: ('A' for Active; 'I' for Inactive)
REMARK    1  A    between atoms: C_1  and  C_2
REMARK    2  A    between atoms: C_2  and  N_3
REMARK    3  A    between atoms: C_2  and  C_15
REMARK    4  A    between atoms: C_4  and  C_6
REMARK    5  A    between atoms: C_7  and  C_8
REMARK    6  A    between atoms: C_11  and  O_12
REMARK    7  A    between atoms: N_17  and  C_18
REMARK    8  A    between atoms: C_18  and  C_19
REMARK    9  A    between atoms: C_19  and  C_20
REMARK                            x       y       z     vdW  Elec       q    Type
REMARK                         _______ _______ _______ _____ _____    ______ ____
ROOT
ATOM      1  C   UNL     1       5.628   4.121  19.370  0.00  0.00    +0.000 C 
ATOM      2  C   UNL     1       6.090   5.038  18.242  0.00  0.00    +0.000 C 
ENDROOT
BRANCH   2   3
ATOM      3  N   UNL     1       7.035   6.059  18.681  0.00  0.00    +0.000 N 
ATOM      4  C   UNL     1       7.651   6.919  17.811  0.00  0.00    +0.000 C 
ATOM      5  O   UNL     1       7.514   6.872  16.592  0.00  0.00    +0.000 OA
ATOM      6  H   UNL     1       7.152   6.180  19.675  0.00  0.00    +0.000 HD
BRANCH   4   7
ATOM      7  C   UNL     1       8.486   7.939  18.491  0.00  0.00    +0.000 C 
ATOM      8  C   UNL     1       8.400   9.228  18.116  0.00  0.00    +0.000 C 
BRANCH   8   9
ATOM      9  C   UNL     1       9.148  10.331  18.737  0.00  0.00    +0.000 A 
ATOM     10  C   UNL     1       9.756  11.293  17.916  0.00  0.00    +0.000 A 
ATOM     11  C   UNL     1      10.449  12.374  18.470  0.00  0.00    +0.000 A 
ATOM     12  C   UNL     1      10.524  12.503  19.852  0.00  0.00    +0.000 A 
ATOM     13  C   UNL     1       9.909  11.577  20.684  0.00  0.00    +0.000 A 
ATOM     14  C   UNL     1       9.217  10.496  20.129  0.00  0.00    +0.000 A 
BRANCH  12  15
ATOM     15  O   UNL     1      11.191  13.536  20.439  0.00  0.00    +0.000 OA
ATOM     16  H   UNL     1      11.160  13.417  21.403  0.00  0.00    +0.000 HD
ENDBRANCH  12  15
ENDBRANCH   8   9
ENDBRANCH   4   7
ENDBRANCH   2   3
BRANCH   2  17
ATOM     17  C   UNL     1       4.943   5.612  17.375  0.00  0.00    +0.000 C 
ATOM     18  O   UNL     1       4.609   5.071  16.322  0.00  0.00    +0.000 OA
ATOM     19  N   UNL     1       4.384   6.793  17.816  0.00  0.00    +0.000 N 
ATOM     20  H   UNL     1       4.954   7.359  18.442  0.00  0.00    +0.000 HD
BRANCH  19  21
ATOM     21  C   UNL     1       3.335   7.459  17.060  0.00  0.00    +0.000 C 
BRANCH  21  22
ATOM     22  C   UNL     1       2.024   7.530  17.849  0.00  0.00    +0.000 C 
BRANCH  22  23
ATOM     23  C   UNL     1       2.009   6.623  19.038  0.00  0.00    +0.000 A 
ATOM     24  C   UNL     1       2.204   6.979  20.359  0.00  0.00    +0.000 A 
ATOM     25  N   UNL     1       2.144   5.844  21.124  0.00  0.00    +0.000 N 
ATOM     26  C   UNL     1       1.934   4.743  20.327  0.00  0.00    +0.000 A 
ATOM     27  C   UNL     1       1.843   3.386  20.664  0.00  0.00    +0.000 A 
ATOM     28  C   UNL     1       1.631   2.473  19.626  0.00  0.00    +0.000 A 
ATOM     29  C   UNL     1       1.494   2.905  18.309  0.00  0.00    +0.000 A 
ATOM     30  C   UNL     1       1.578   4.265  17.992  0.00  0.00    +0.000 A 
ATOM     31  C   UNL     1       1.819   5.203  19.017  0.00  0.00    +0.000 A 
ATOM     32  H   UNL     1       2.258   5.809  22.127  0.00  0.00    +0.000 HD
ENDBRANCH  22  23
ENDBRANCH  21  22
ENDBRANCH  19  21
ENDBRANCH   2  17
TORSDOF 8
ENDMDL
MODEL 7
REMARK VINA RESULT:      -8.3      1.781      2.757
REMARK  Name = 
REMARK  9 active torsions:
REMARK  status: ('A' for Active; 'I' for Inactive)
REMARK    1  A    between atoms: C_1  and  C_2
REMARK    2  A    between atoms: C_2  and  N_3
REMARK    3  A    between atoms: C_2  and  C_15
REMARK    4  A    between atoms: C_4  and  C_6
REMARK    5  A    between atoms: C_7  and  C_8
REMARK    6  A    between atoms: C_11  and  O_12
REMARK    7  A    between atoms: N_17  and  C_18
REMARK    8  A    between atoms: C_18  and  C_19
REMARK    9  A    between atoms: C_19  and  C_20
REMARK                            x       y       z     vdW  Elec       q    Type
REMARK                         _______ _______ _______ _____ _____    ______ ____
ROOT
ATOM      1  C   UNL     1       7.098   4.505  15.455  0.00  0.00    +0.000 C 
ATOM      2  C   UNL     1       5.926   5.159  16.178  0.00  0.00    +0.000 C 
ENDROOT
BRANCH   2   3
ATOM      3  N   UNL     1       6.232   6.496  16.677  0.00  0.00    +0.000 N 
ATOM      4  C   UNL     1       7.310   6.757  17.480  0.00  0.00    +0.000 C 
ATOM      5  O   UNL     1       8.073   5.893  17.900  0.00  0.00    +0.000 OA
ATOM      6  H   UNL     1       5.670   7.257  16.326  0.00  0.00    +0.000 HD
BRANCH   4   7
ATOM      7  C   UNL     1       7.483   8.200  17.775  0.00  0.00    +0.000 C 
ATOM      8  C   UNL     1       8.616   8.630  18.359  0.00  0.00    +0.000 C 
BRANCH   8   9
ATOM      9  C   UNL     1       8.917  10.036  18.666  0.00  0.00    +0.000 A 
ATOM     10  C   UNL     1       8.674  11.016  17.691  0.00  0.00    +0.000 A 
ATOM     11  C   UNL     1       8.917  12.368  17.955  0.00  0.00    +0.000 A 
ATOM     12  C   UNL     1       9.392  12.745  19.205  0.00  0.00    +0.000 A 
ATOM     13  C   UNL     1       9.616  11.795  20.194  0.00  0.00    +0.000 A 
ATOM     14  C   UNL     1       9.373  10.445  19.927  0.00  0.00    +0.000 A 
BRANCH  12  15
ATOM     15  O   UNL     1       9.648  14.047  19.510  0.00  0.00    +0.000 OA
ATOM     16  H   UNL     1       9.243  14.250  20.370  0.00  0.00    +0.000 HD
ENDBRANCH  12  15
ENDBRANCH   8   9
ENDBRANCH   4   7
ENDBRANCH   2   3
BRANCH   2  17
ATOM     17  C   UNL     1       5.249   4.261  17.242  0.00  0.00    +0.000 C 
ATOM     18  O   UNL     1       5.521   4.374  18.437  0.00  0.00    +0.000 OA
ATOM     19  N   UNL     1       4.396   3.290  16.761  0.00  0.00    +0.000 N 
ATOM     20  H   UNL     1       4.526   3.012  15.789  0.00  0.00    +0.000 HD
BRANCH  19  21
ATOM     21  C   UNL     1       3.741   2.350  17.657  0.00  0.00    +0.000 C 
BRANCH  21  22
ATOM     22  C   UNL     1       2.264   2.698  17.863  0.00  0.00    +0.000 C 
BRANCH  22  23
ATOM     23  C   UNL     1       2.030   3.576  19.051  0.00  0.00    +0.000 A 
ATOM     24  C   UNL     1       1.657   3.177  20.320  0.00  0.00    +0.000 A 
ATOM     25  N   UNL     1       1.517   4.296  21.098  0.00  0.00    +0.000 N 
ATOM     26  C   UNL     1       1.771   5.427  20.359  0.00  0.00    +0.000 A 
ATOM     27  C   UNL     1       1.714   6.779  20.722  0.00  0.00    +0.000 A 
ATOM     28  C   UNL     1       2.021   7.727  19.741  0.00  0.00    +0.000 A 
ATOM     29  C   UNL     1       2.392   7.336  18.457  0.00  0.00    +0.000 A 
ATOM     30  C   UNL     1       2.454   5.981  18.114  0.00  0.00    +0.000 A 
ATOM     31  C   UNL     1       2.122   5.005  19.077  0.00  0.00    +0.000 A 
ATOM     32  H   UNL     1       1.245   4.300  22.071  0.00  0.00    +0.000 HD
ENDBRANCH  22  23
ENDBRANCH  21  22
ENDBRANCH  19  21
ENDBRANCH   2  17
TORSDOF 8
ENDMDL
MODEL 8
REMARK VINA RESULT:      -8.2      5.275      7.949
REMARK  Name = 
REMARK  9 active torsions:
REMARK  status: ('A' for Active; 'I' for Inactive)
REMARK    1  A    between atoms: C_1  and  C_2
REMARK    2  A    between atoms: C_2  and  N_3
REMARK    3  A    between atoms: C_2  and  C_15
REMARK    4  A    between atoms: C_4  and  C_6
REMARK    5  A    between atoms: C_7  and  C_8
REMARK    6  A    between atoms: C_11  and  O_12
REMARK    7  A    between atoms: N_17  and  C_18
REMARK    8  A    between atoms: C_18  and  C_19
REMARK    9  A    between atoms: C_19  and  C_20
REMARK                            x       y       z     vdW  Elec       q    Type
REMARK                         _______ _______ _______ _____ _____    ______ ____
ROOT
ATOM      1  C   UNL     1       2.014   3.091  21.778  0.00  0.00    +0.000 C 
ATOM      2  C   UNL     1       2.602   4.156  20.858  0.00  0.00    +0.000 C 
ENDROOT
BRANCH   2   3
ATOM      3  N   UNL     1       1.937   5.450  20.978  0.00  0.00    +0.000 N 
ATOM      4  C   UNL     1       2.316   6.546  20.249  0.00  0.00    +0.000 C 
ATOM      5  O   UNL     1       3.274   6.558  19.482  0.00  0.00    +0.000 OA
ATOM      6  H   UNL     1       1.111   5.490  21.555  0.00  0.00    +0.000 HD
BRANCH   4   7
ATOM      7  C   UNL     1       1.432   7.718  20.455  0.00  0.00    +0.000 C 
ATOM      8  C   UNL     1       1.314   8.643  19.485  0.00  0.00    +0.000 C 
BRANCH   8   9
ATOM      9  C   UNL     1       0.443   9.826  19.559  0.00  0.00    +0.000 A 
ATOM     10  C   UNL     1      -0.138  10.322  18.382  0.00  0.00    +0.000 A 
ATOM     11  C   UNL     1      -0.997  11.425  18.416  0.00  0.00    +0.000 A 
ATOM     12  C   UNL     1      -1.288  12.028  19.633  0.00  0.00    +0.000 A 
ATOM     13  C   UNL     1      -0.745  11.539  20.814  0.00  0.00    +0.000 A 
ATOM     14  C   UNL     1       0.114  10.437  20.779  0.00  0.00    +0.000 A 
BRANCH  12  15
ATOM     15  O   UNL     1      -2.115  13.107  19.717  0.00  0.00    +0.000 OA
ATOM     16  H   UNL     1      -2.379  13.366  18.819  0.00  0.00    +0.000 HD
ENDBRANCH  12  15
ENDBRANCH   8   9
ENDBRANCH   4   7
ENDBRANCH   2   3
BRANCH   2  17
ATOM     17  C   UNL     1       2.780   3.704  19.388  0.00  0.00    +0.000 C 
ATOM     18  O   UNL     1       1.834   3.258  18.741  0.00  0.00    +0.000 OA
ATOM     19  N   UNL     1       4.064   3.762  18.888  0.00  0.00    +0.000 N 
ATOM     20  H   UNL     1       4.818   3.761  19.572  0.00  0.00    +0.000 HD
BRANCH  19  21
ATOM     21  C   UNL     1       4.368   3.315  17.538  0.00  0.00    +0.000 C 
BRANCH  21  22
ATOM     22  C   UNL     1       4.242   4.454  16.521  0.00  0.00    +0.000 C 
BRANCH  22  23
ATOM     23  C   UNL     1       5.523   4.742  15.805  0.00  0.00    +0.000 A 
ATOM     24  C   UNL     1       6.608   5.447  16.292  0.00  0.00    +0.000 A 
ATOM     25  N   UNL     1       7.556   5.511  15.305  0.00  0.00    +0.000 N 
ATOM     26  C   UNL     1       7.107   4.878  14.170  0.00  0.00    +0.000 A 
ATOM     27  C   UNL     1       7.716   4.728  12.917  0.00  0.00    +0.000 A 
ATOM     28  C   UNL     1       7.007   4.033  11.932  0.00  0.00    +0.000 A 
ATOM     29  C   UNL     1       5.751   3.492  12.199  0.00  0.00    +0.000 A 
ATOM     30  C   UNL     1       5.163   3.643  13.460  0.00  0.00    +0.000 A 
ATOM     31  C   UNL     1       5.845   4.363  14.462  0.00  0.00    +0.000 A 
ATOM     32  H   UNL     1       8.451   5.972  15.386  0.00  0.00    +0.000 HD
ENDBRANCH  22  23
ENDBRANCH  21  22
ENDBRANCH  19  21
ENDBRANCH   2  17
TORSDOF 8
ENDMDL
MODEL 9
REMARK VINA RESULT:      -8.2      3.547      4.507
REMARK  Name = 
REMARK  9 active torsions:
REMARK  status: ('A' for Active; 'I' for Inactive)
REMARK    1  A    between atoms: C_1  and  C_2
REMARK    2  A    between atoms: C_2  and  N_3
REMARK    3  A    between atoms: C_2  and  C_15
REMARK    4  A    between atoms: C_4  and  C_6
REMARK    5  A    between atoms: C_7  and  C_8
REMARK    6  A    between atoms: C_11  and  O_12
REMARK    7  A    between atoms: N_17  and  C_18
REMARK    8  A    between atoms: C_18  and  C_19
REMARK    9  A    between atoms: C_19  and  C_20
REMARK                            x       y       z     vdW  Elec       q    Type
REMARK                         _______ _______ _______ _____ _____    ______ ____
ROOT
ATOM      1  C   UNL     1       5.717   4.913  18.879  0.00  0.00    +0.000 C 
ATOM      2  C   UNL     1       5.364   5.996  17.864  0.00  0.00    +0.000 C 
ENDROOT
BRANCH   2   3
ATOM      3  N   UNL     1       6.181   7.198  17.998  0.00  0.00    +0.000 N 
ATOM      4  C   UNL     1       7.314   7.408  17.258  0.00  0.00    +0.000 C 
ATOM      5  O   UNL     1       7.774   6.591  16.467  0.00  0.00    +0.000 OA
ATOM      6  H   UNL     1       5.827   7.929  18.596  0.00  0.00    +0.000 HD
BRANCH   4   7
ATOM      7  C   UNL     1       7.920   8.743  17.485  0.00  0.00    +0.000 C 
ATOM      8  C   UNL     1       8.522   9.011  18.658  0.00  0.00    +0.000 C 
BRANCH   8   9
ATOM      9  C   UNL     1       9.188  10.280  18.985  0.00  0.00    +0.000 A 
ATOM     10  C   UNL     1       9.323  11.258  17.988  0.00  0.00    +0.000 A 
ATOM     11  C   UNL     1       9.922  12.490  18.267  0.00  0.00    +0.000 A 
ATOM     12  C   UNL     1      10.376  12.753  19.554  0.00  0.00    +0.000 A 
ATOM     13  C   UNL     1      10.230  11.810  20.563  0.00  0.00    +0.000 A 
ATOM     14  C   UNL     1       9.632  10.579  20.281  0.00  0.00    +0.000 A 
BRANCH  12  15
ATOM     15  O   UNL     1      10.970  13.936  19.875  0.00  0.00    +0.000 OA
ATOM     16  H   UNL     1      11.930  13.842  19.763  0.00  0.00    +0.000 HD
ENDBRANCH  12  15
ENDBRANCH   8   9
ENDBRANCH   4   7
ENDBRANCH   2   3
BRANCH   2  17
ATOM     17  C   UNL     1       3.851   6.305  17.758  0.00  0.00    +0.000 C 
ATOM     18  O   UNL     1       3.021   5.401  17.682  0.00  0.00    +0.000 OA
ATOM     19  N   UNL     1       3.510   7.639  17.678  0.00  0.00    +0.000 N 
ATOM     20  H   UNL     1       4.238   8.276  17.360  0.00  0.00    +0.000 HD
BRANCH  19  21
ATOM     21  C   UNL     1       2.124   8.055  17.523  0.00  0.00    +0.000 C 
BRANCH  21  22
ATOM     22  C   UNL     1       1.799   9.279  18.384  0.00  0.00    +0.000 C 
BRANCH  22  23
ATOM     23  C   UNL     1       1.447   8.924  19.794  0.00  0.00    +0.000 A 
ATOM     24  C   UNL     1       1.748   7.749  20.456  0.00  0.00    +0.000 A 
ATOM     25  N   UNL     1       1.214   7.817  21.716  0.00  0.00    +0.000 N 
ATOM     26  C   UNL     1       0.549   9.008  21.888  0.00  0.00    +0.000 A 
ATOM     27  C   UNL     1      -0.174   9.491  22.988  0.00  0.00    +0.000 A 
ATOM     28  C   UNL     1      -0.761  10.754  22.873  0.00  0.00    +0.000 A 
ATOM     29  C   UNL     1      -0.612  11.511  21.713  0.00  0.00    +0.000 A 
ATOM     30  C   UNL     1       0.121  11.017  20.628  0.00  0.00    +0.000 A 
ATOM     31  C   UNL     1       0.700   9.734  20.708  0.00  0.00    +0.000 A 
ATOM     32  H   UNL     1       1.277   7.092  22.416  0.00  0.00    +0.000 HD
ENDBRANCH  22  23
ENDBRANCH  21  22
ENDBRANCH  19  21
ENDBRANCH   2  17
TORSDOF 8
ENDMDL
