MODEL 1
REMARK VINA RESULT:      -9.1      0.000      0.000
REMARK  Name = 
REMARK  4 active torsions:
REMARK  status: ('A' for Active; 'I' for Inactive)
REMARK    1  A    between atoms: C_1  and  C_2
REMARK    2  A    between atoms: C_4  and  C_5
REMARK    3  A    between atoms: N_11  and  C_12
REMARK    4  A    between atoms: C_14  and  C_15
REMARK                            x       y       z     vdW  Elec       q    Type
REMARK                         _______ _______ _______ _____ _____    ______ ____
ROOT
ATOM      1  C   UNL     1       0.499  10.991  19.130  0.00  0.00    +0.000 A 
ATOM      2  N   UNL     1      -0.860  10.935  19.085  0.00  0.00    +0.000 NA
ATOM      3  C   UNL     1      -1.604  12.056  18.939  0.00  0.00    +0.000 A 
ATOM      4  N   UNL     1      -1.127  13.311  18.847  0.00  0.00    +0.000 NA
ATOM      5  C   UNL     1       0.220  13.383  18.917  0.00  0.00    +0.000 A 
ATOM      6  C   UNL     1       1.036  12.273  19.052  0.00  0.00    +0.000 A 
ATOM      7  O   UNL     1       2.346  12.653  19.108  0.00  0.00    +0.000 OA
ATOM      8  C   UNL     1       2.368  14.010  19.004  0.00  0.00    +0.000 A 
ATOM      9  C   UNL     1       3.515  14.798  19.022  0.00  0.00    +0.000 A 
ATOM     10  C   UNL     1       3.326  16.179  18.902  0.00  0.00    +0.000 A 
ATOM     11  C   UNL     1       2.046  16.727  18.772  0.00  0.00    +0.000 A 
ATOM     12  C   UNL     1       0.910  15.904  18.757  0.00  0.00    +0.000 A 
ATOM     13  C   UNL     1       1.078  14.514  18.880  0.00  0.00    +0.000 A 
ENDROOT
BRANCH   1  24
ATOM     14  C   UNL     1       1.827   3.134  21.805  0.00  0.00    +0.000 C 
ATOM     15  C   UNL     1       2.186   3.815  20.521  0.00  0.00    +0.000 A 
ATOM     16  C   UNL     1       2.483   3.103  19.384  0.00  0.00    +0.000 A 
ATOM     17  C   UNL     1       2.764   3.844  18.257  0.00  0.00    +0.000 A 
ATOM     18  C   UNL     1       3.077   3.187  16.949  0.00  0.00    +0.000 C 
ATOM     19  N   UNL     1       2.751   5.192  18.260  0.00  0.00    +0.000 NA
ATOM     20  C   UNL     1       2.439   5.823  19.402  0.00  0.00    +0.000 A 
ATOM     21  N   UNL     1       2.382   7.222  19.416  0.00  0.00    +0.000 N 
ATOM     22  C   UNL     1       1.478   7.727  20.468  0.00  0.00    +0.000 C 
ATOM     23  C   UNL     1       1.508   9.263  20.516  0.00  0.00    +0.000 C 
ATOM     24  N   UNL     1       1.196   9.805  19.185  0.00  0.00    +0.000 N 
ATOM     25  C   UNL     1       2.096   9.347  18.120  0.00  0.00    +0.000 C 
ATOM     26  C   UNL     1       2.127   7.799  18.080  0.00  0.00    +0.000 C 
ATOM     27  N   UNL     1       2.171   5.161  20.539  0.00  0.00    +0.000 NA
ENDBRANCH   1  24
BRANCH   3  28
ATOM     28  C   UNL     1      -3.072  11.875  18.878  0.00  0.00    +0.000 A 
ATOM     29  C   UNL     1      -3.677  11.089  17.875  0.00  0.00    +0.000 A 
ATOM     30  C   UNL     1      -5.062  10.904  17.822  0.00  0.00    +0.000 A 
ATOM     31  C   UNL     1      -5.880  11.505  18.774  0.00  0.00    +0.000 A 
ATOM     32  C   UNL     1      -5.314  12.293  19.771  0.00  0.00    +0.000 A 
ATOM     33  C   UNL     1      -3.928  12.475  19.819  0.00  0.00    +0.000 A 
ENDBRANCH   3  28
TORSDOF 2
ENDMDL
MODEL 2
REMARK VINA RESULT:      -9.0      2.568      4.467
REMARK  Name = 
REMARK  4 active torsions:
REMARK  status: ('A' for Active; 'I' for Inactive)
REMARK    1  A    between atoms: C_1  and  C_2
REMARK    2  A    between atoms: C_4  and  C_5
REMARK    3  A    between atoms: N_11  and  C_12
REMARK    4  A    between atoms: C_14  and  C_15
REMARK                            x       y       z     vdW  Elec       q    Type
REMARK                         _______ _______ _______ _____ _____    ______ ____
ROOT
ATOM      1  C   UNL     1      -0.171  10.137  19.404  0.00  0.00    +0.000 A 
ATOM      2  N   UNL     1      -0.303  10.986  20.458  0.00  0.00    +0.000 NA
ATOM      3  C   UNL     1      -1.327  11.868  20.525  0.00  0.00    +0.000 A 
ATOM      4  N   UNL     1      -2.288  12.031  19.597  0.00  0.00    +0.000 NA
ATOM      5  C   UNL     1      -2.154  11.212  18.532  0.00  0.00    +0.000 A 
ATOM      6  C   UNL     1      -1.137  10.279  18.411  0.00  0.00    +0.000 A 
ATOM      7  O   UNL     1      -1.251   9.606  17.229  0.00  0.00    +0.000 OA
ATOM      8  C   UNL     1      -2.345  10.107  16.593  0.00  0.00    +0.000 A 
ATOM      9  C   UNL     1      -2.809   9.693  15.348  0.00  0.00    +0.000 A 
ATOM     10  C   UNL     1      -3.955  10.334  14.865  0.00  0.00    +0.000 A 
ATOM     11  C   UNL     1      -4.591  11.337  15.602  0.00  0.00    +0.000 A 
ATOM     12  C   UNL     1      -4.098  11.730  16.856  0.00  0.00    +0.000 A 
ATOM     13  C   UNL     1      -2.945  11.102  17.358  0.00  0.00    +0.000 A 
ENDROOT
BRANCH   1  24
ATOM     14  C   UNL     1       3.057   2.589  21.207  0.00  0.00    +0.000 C 
ATOM     15  C   UNL     1       3.394   3.577  20.134  0.00  0.00    +0.000 A 
ATOM     16  C   UNL     1       4.079   3.208  19.001  0.00  0.00    +0.000 A 
ATOM     17  C   UNL     1       4.299   4.202  18.073  0.00  0.00    +0.000 A 
ATOM     18  C   UNL     1       5.009   3.923  16.785  0.00  0.00    +0.000 C 
ATOM     19  N   UNL     1       3.870   5.467  18.256  0.00  0.00    +0.000 NA
ATOM     20  C   UNL     1       3.196   5.754  19.380  0.00  0.00    +0.000 A 
ATOM     21  N   UNL     1       2.709   7.053  19.571  0.00  0.00    +0.000 N 
ATOM     22  C   UNL     1       1.533   7.076  20.463  0.00  0.00    +0.000 C 
ATOM     23  C   UNL     1       1.080   8.521  20.726  0.00  0.00    +0.000 C 
ATOM     24  N   UNL     1       0.839   9.202  19.445  0.00  0.00    +0.000 N 
ATOM     25  C   UNL     1       1.998   9.226  18.545  0.00  0.00    +0.000 C 
ATOM     26  C   UNL     1       2.511   7.784  18.302  0.00  0.00    +0.000 C 
ATOM     27  N   UNL     1       2.962   4.837  20.332  0.00  0.00    +0.000 NA
ENDBRANCH   1  24
BRANCH   3  28
ATOM     28  C   UNL     1      -1.385  12.727  21.730  0.00  0.00    +0.000 A 
ATOM     29  C   UNL     1      -0.462  13.774  21.935  0.00  0.00    +0.000 A 
ATOM     30  C   UNL     1      -0.523  14.596  23.064  0.00  0.00    +0.000 A 
ATOM     31  C   UNL     1      -1.510  14.389  24.021  0.00  0.00    +0.000 A 
ATOM     32  C   UNL     1      -2.431  13.360  23.853  0.00  0.00    +0.000 A 
ATOM     33  C   UNL     1      -2.366  12.540  22.722  0.00  0.00    +0.000 A 
ENDBRANCH   3  28
TORSDOF 2
ENDMDL
MODEL 3
REMARK VINA RESULT:      -8.8      1.235      1.483
REMARK  Name = 
REMARK  4 active torsions:
REMARK  status: ('A' for Active; 'I' for Inactive)
REMARK    1  A    between atoms: C_1  and  C_2
REMARK    2  A    between atoms: C_4  and  C_5
REMARK    3  A    between atoms: N_11  and  C_12
REMARK    4  A    between atoms: C_14  and  C_15
REMARK                            x       y       z     vdW  Elec       q    Type
REMARK                         _______ _______ _______ _____ _____    ______ ____
ROOT
ATOM      1  C   UNL     1       0.213  10.959  19.847  0.00  0.00    +0.000 A 
ATOM      2  N   UNL     1      -1.061  10.913  19.371  0.00  0.00    +0.000 NA
ATOM      3  C   UNL     1      -1.816  12.032  19.280  0.00  0.00    +0.000 A 
ATOM      4  N   UNL     1      -1.439  13.270  19.649  0.00  0.00    +0.000 NA
ATOM      5  C   UNL     1      -0.185  13.325  20.148  0.00  0.00    +0.000 A 
ATOM      6  C   UNL     1       0.642  12.219  20.254  0.00  0.00    +0.000 A 
ATOM      7  O   UNL     1       1.840  12.576  20.804  0.00  0.00    +0.000 OA
ATOM      8  C   UNL     1       1.780  13.914  21.046  0.00  0.00    +0.000 A 
ATOM      9  C   UNL     1       2.801  14.674  21.609  0.00  0.00    +0.000 A 
ATOM     10  C   UNL     1       2.544  16.039  21.777  0.00  0.00    +0.000 A 
ATOM     11  C   UNL     1       1.321  16.598  21.395  0.00  0.00    +0.000 A 
ATOM     12  C   UNL     1       0.312  15.804  20.828  0.00  0.00    +0.000 A 
ATOM     13  C   UNL     1       0.549  14.430  20.655  0.00  0.00    +0.000 A 
ENDROOT
BRANCH   1  24
ATOM     14  C   UNL     1       1.668   2.887  21.685  0.00  0.00    +0.000 C 
ATOM     15  C   UNL     1       2.103   3.731  20.528  0.00  0.00    +0.000 A 
ATOM     16  C   UNL     1       2.529   3.174  19.347  0.00  0.00    +0.000 A 
ATOM     17  C   UNL     1       2.872   4.057  18.346  0.00  0.00    +0.000 A 
ATOM     18  C   UNL     1       3.326   3.575  17.003  0.00  0.00    +0.000 C 
ATOM     19  N   UNL     1       2.796   5.393  18.506  0.00  0.00    +0.000 NA
ATOM     20  C   UNL     1       2.359   5.869  19.682  0.00  0.00    +0.000 A 
ATOM     21  N   UNL     1       2.237   7.253  19.856  0.00  0.00    +0.000 N 
ATOM     22  C   UNL     1       1.223   7.594  20.873  0.00  0.00    +0.000 C 
ATOM     23  C   UNL     1       1.178   9.112  21.105  0.00  0.00    +0.000 C 
ATOM     24  N   UNL     1       0.957   9.801  19.825  0.00  0.00    +0.000 N 
ATOM     25  C   UNL     1       1.965   9.508  18.799  0.00  0.00    +0.000 C 
ATOM     26  C   UNL     1       2.071   7.979  18.579  0.00  0.00    +0.000 C 
ATOM     27  N   UNL     1       2.025   5.064  20.703  0.00  0.00    +0.000 NA
ENDBRANCH   1  24
BRANCH   3  28
ATOM     28  C   UNL     1      -3.179  11.868  18.725  0.00  0.00    +0.000 A 
ATOM     29  C   UNL     1      -4.325  12.231  19.463  0.00  0.00    +0.000 A 
ATOM     30  C   UNL     1      -5.613  12.091  18.937  0.00  0.00    +0.000 A 
ATOM     31  C   UNL     1      -5.788  11.580  17.655  0.00  0.00    +0.000 A 
ATOM     32  C   UNL     1      -4.678  11.205  16.904  0.00  0.00    +0.000 A 
ATOM     33  C   UNL     1      -3.392  11.347  17.435  0.00  0.00    +0.000 A 
ENDBRANCH   3  28
TORSDOF 2
ENDMDL
MODEL 4
REMARK VINA RESULT:      -8.7      0.592      1.066
REMARK  Name = 
REMARK  4 active torsions:
REMARK  status: ('A' for Active; 'I' for Inactive)
REMARK    1  A    between atoms: C_1  and  C_2
REMARK    2  A    between atoms: C_4  and  C_5
REMARK    3  A    between atoms: N_11  and  C_12
REMARK    4  A    between atoms: C_14  and  C_15
REMARK                            x       y       z     vdW  Elec       q    Type
REMARK                         _______ _______ _______ _____ _____    ______ ____
ROOT
ATOM      1  C   UNL     1       0.392  11.335  19.368  0.00  0.00    +0.000 A 
ATOM      2  N   UNL     1      -0.951  11.316  19.585  0.00  0.00    +0.000 NA
ATOM      3  C   UNL     1      -1.692  12.444  19.497  0.00  0.00    +0.000 A 
ATOM      4  N   UNL     1      -1.223  13.675  19.220  0.00  0.00    +0.000 NA
ATOM      5  C   UNL     1       0.113  13.713  19.027  0.00  0.00    +0.000 A 
ATOM      6  C   UNL     1       0.924  12.592  19.091  0.00  0.00    +0.000 A 
ATOM      7  O   UNL     1       2.226  12.937  18.867  0.00  0.00    +0.000 OA
ATOM      8  C   UNL     1       2.247  14.282  18.656  0.00  0.00    +0.000 A 
ATOM      9  C   UNL     1       3.388  15.035  18.396  0.00  0.00    +0.000 A 
ATOM     10  C   UNL     1       3.199  16.408  18.207  0.00  0.00    +0.000 A 
ATOM     11  C   UNL     1       1.927  16.982  18.280  0.00  0.00    +0.000 A 
ATOM     12  C   UNL     1       0.796  16.194  18.544  0.00  0.00    +0.000 A 
ATOM     13  C   UNL     1       0.964  14.813  18.741  0.00  0.00    +0.000 A 
ENDROOT
BRANCH   1  24
ATOM     14  C   UNL     1       1.535   3.337  21.686  0.00  0.00    +0.000 C 
ATOM     15  C   UNL     1       1.935   4.073  20.445  0.00  0.00    +0.000 A 
ATOM     16  C   UNL     1       2.249   3.413  19.282  0.00  0.00    +0.000 A 
ATOM     17  C   UNL     1       2.569   4.203  18.200  0.00  0.00    +0.000 A 
ATOM     18  C   UNL     1       2.904   3.606  16.869  0.00  0.00    +0.000 C 
ATOM     19  N   UNL     1       2.576   5.549  18.269  0.00  0.00    +0.000 NA
ATOM     20  C   UNL     1       2.246   6.129  19.433  0.00  0.00    +0.000 A 
ATOM     21  N   UNL     1       2.211   7.527  19.514  0.00  0.00    +0.000 N 
ATOM     22  C   UNL     1       1.288   7.995  20.567  0.00  0.00    +0.000 C 
ATOM     23  C   UNL     1       1.341   9.526  20.691  0.00  0.00    +0.000 C 
ATOM     24  N   UNL     1       1.070  10.137  19.381  0.00  0.00    +0.000 N 
ATOM     25  C   UNL     1       1.988   9.717  18.317  0.00  0.00    +0.000 C 
ATOM     26  C   UNL     1       1.997   8.172  18.201  0.00  0.00    +0.000 C 
ATOM     27  N   UNL     1       1.940   5.417  20.529  0.00  0.00    +0.000 NA
ENDBRANCH   1  24
BRANCH   3  28
ATOM     28  C   UNL     1      -3.147  12.302  19.729  0.00  0.00    +0.000 A 
ATOM     29  C   UNL     1      -3.738  12.670  20.956  0.00  0.00    +0.000 A 
ATOM     30  C   UNL     1      -5.114  12.550  21.174  0.00  0.00    +0.000 A 
ATOM     31  C   UNL     1      -5.936  12.054  20.168  0.00  0.00    +0.000 A 
ATOM     32  C   UNL     1      -5.383  11.674  18.949  0.00  0.00    +0.000 A 
ATOM     33  C   UNL     1      -4.006  11.795  18.736  0.00  0.00    +0.000 A 
ENDBRANCH   3  28
TORSDOF 2
ENDMDL
MODEL 5
REMARK VINA RESULT:      -8.4      1.931      2.948
REMARK  Name = 
REMARK  4 active torsions:
REMARK  status: ('A' for Active; 'I' for Inactive)
REMARK    1  A    between atoms: C_1  and  C_2
REMARK    2  A    between atoms: C_4  and  C_5
REMARK    3  A    between atoms: N_11  and  C_12
REMARK    4  A    between atoms: C_14  and  C_15
REMARK                            x       y       z     vdW  Elec       q    Type
REMARK                         _______ _______ _______ _____ _____    ______ ____
ROOT
ATOM      1  C   UNL     1       0.844  11.170  19.723  0.00  0.00    +0.000 A 
ATOM      2  N   UNL     1      -0.279  11.318  20.476  0.00  0.00    +0.000 NA
ATOM      3  C   UNL     1      -0.746  12.544  20.807  0.00  0.00    +0.000 A 
ATOM      4  N   UNL     1      -0.180  13.718  20.473  0.00  0.00    +0.000 NA
ATOM      5  C   UNL     1       0.951  13.586  19.747  0.00  0.00    +0.000 A 
ATOM      6  C   UNL     1       1.472  12.360  19.365  0.00  0.00    +0.000 A 
ATOM      7  O   UNL     1       2.623  12.538  18.653  0.00  0.00    +0.000 OA
ATOM      8  C   UNL     1       2.837  13.880  18.576  0.00  0.00    +0.000 A 
ATOM      9  C   UNL     1       3.914  14.485  17.934  0.00  0.00    +0.000 A 
ATOM     10  C   UNL     1       3.954  15.883  17.967  0.00  0.00    +0.000 A 
ATOM     11  C   UNL     1       2.960  16.622  18.615  0.00  0.00    +0.000 A 
ATOM     12  C   UNL     1       1.887  15.981  19.252  0.00  0.00    +0.000 A 
ATOM     13  C   UNL     1       1.829  14.577  19.234  0.00  0.00    +0.000 A 
ENDROOT
BRANCH   1  24
ATOM     14  C   UNL     1       5.525   5.602  15.511  0.00  0.00    +0.000 C 
ATOM     15  C   UNL     1       4.804   5.498  16.820  0.00  0.00    +0.000 A 
ATOM     16  C   UNL     1       5.124   4.537  17.747  0.00  0.00    +0.000 A 
ATOM     17  C   UNL     1       4.412   4.566  18.926  0.00  0.00    +0.000 A 
ATOM     18  C   UNL     1       4.684   3.589  20.027  0.00  0.00    +0.000 C 
ATOM     19  N   UNL     1       3.453   5.483  19.165  0.00  0.00    +0.000 NA
ATOM     20  C   UNL     1       3.201   6.402  18.221  0.00  0.00    +0.000 A 
ATOM     21  N   UNL     1       2.236   7.387  18.465  0.00  0.00    +0.000 N 
ATOM     22  C   UNL     1       2.488   8.613  17.684  0.00  0.00    +0.000 C 
ATOM     23  C   UNL     1       1.363   9.637  17.905  0.00  0.00    +0.000 C 
ATOM     24  N   UNL     1       1.210   9.898  19.344  0.00  0.00    +0.000 N 
ATOM     25  C   UNL     1       0.927   8.703  20.148  0.00  0.00    +0.000 C 
ATOM     26  C   UNL     1       2.018   7.630  19.907  0.00  0.00    +0.000 C 
ATOM     27  N   UNL     1       3.848   6.419  17.044  0.00  0.00    +0.000 NA
ENDBRANCH   1  24
BRANCH   3  28
ATOM     28  C   UNL     1      -1.989  12.586  21.610  0.00  0.00    +0.000 A 
ATOM     29  C   UNL     1      -2.001  12.221  22.972  0.00  0.00    +0.000 A 
ATOM     30  C   UNL     1      -3.171  12.273  23.736  0.00  0.00    +0.000 A 
ATOM     31  C   UNL     1      -4.363  12.690  23.154  0.00  0.00    +0.000 A 
ATOM     32  C   UNL     1      -4.387  13.048  21.810  0.00  0.00    +0.000 A 
ATOM     33  C   UNL     1      -3.214  12.994  21.049  0.00  0.00    +0.000 A 
ENDBRANCH   3  28
TORSDOF 2
ENDMDL
MODEL 6
REMARK VINA RESULT:      -8.2      2.466      3.391
REMARK  Name = 
REMARK  4 active torsions:
REMARK  status: ('A' for Active; 'I' for Inactive)
REMARK    1  A    between atoms: C_1  and  C_2
REMARK    2  A    between atoms: C_4  and  C_5
REMARK    3  A    between atoms: N_11  and  C_12
REMARK    4  A    between atoms: C_14  and  C_15
REMARK                            x       y       z     vdW  Elec       q    Type
REMARK                         _______ _______ _______ _____ _____    ______ ____
ROOT
ATOM      1  C   UNL     1       0.981  11.632  20.317  0.00  0.00    +0.000 A 
ATOM      2  N   UNL     1       0.001  11.821  21.242  0.00  0.00    +0.000 NA
ATOM      3  C   UNL     1      -0.328  13.061  21.672  0.00  0.00    +0.000 A 
ATOM      4  N   UNL     1       0.254  14.210  21.282  0.00  0.00    +0.000 NA
ATOM      5  C   UNL     1       1.246  14.035  20.383  0.00  0.00    +0.000 A 
ATOM      6  C   UNL     1       1.620  12.794  19.894  0.00  0.00    +0.000 A 
ATOM      7  O   UNL     1       2.655  12.927  19.013  0.00  0.00    +0.000 OA
ATOM      8  C   UNL     1       2.941  14.255  18.936  0.00  0.00    +0.000 A 
ATOM      9  C   UNL     1       3.941  14.817  18.147  0.00  0.00    +0.000 A 
ATOM     10  C   UNL     1       4.076  16.208  18.207  0.00  0.00    +0.000 A 
ATOM     11  C   UNL     1       3.245  16.982  19.021  0.00  0.00    +0.000 A 
ATOM     12  C   UNL     1       2.245  16.385  19.804  0.00  0.00    +0.000 A 
ATOM     13  C   UNL     1       2.095  14.989  19.762  0.00  0.00    +0.000 A 
ENDROOT
BRANCH   1  24
ATOM     14  C   UNL     1       5.152   5.810  15.917  0.00  0.00    +0.000 C 
ATOM     15  C   UNL     1       4.341   5.708  17.172  0.00  0.00    +0.000 A 
ATOM     16  C   UNL     1       4.472   4.645  18.032  0.00  0.00    +0.000 A 
ATOM     17  C   UNL     1       3.695   4.684  19.169  0.00  0.00    +0.000 A 
ATOM     18  C   UNL     1       3.765   3.599  20.198  0.00  0.00    +0.000 C 
ATOM     19  N   UNL     1       2.851   5.702  19.432  0.00  0.00    +0.000 NA
ATOM     20  C   UNL     1       2.784   6.714  18.554  0.00  0.00    +0.000 A 
ATOM     21  N   UNL     1       1.942   7.800  18.827  0.00  0.00    +0.000 N 
ATOM     22  C   UNL     1       2.403   9.036  18.165  0.00  0.00    +0.000 C 
ATOM     23  C   UNL     1       1.411  10.184  18.409  0.00  0.00    +0.000 C 
ATOM     24  N   UNL     1       1.200  10.354  19.854  0.00  0.00    +0.000 N 
ATOM     25  C   UNL     1       0.712   9.153  20.540  0.00  0.00    +0.000 C 
ATOM     26  C   UNL     1       1.665   7.962  20.270  0.00  0.00    +0.000 C 
ATOM     27  N   UNL     1       3.502   6.731  17.420  0.00  0.00    +0.000 NA
ENDBRANCH   1  24
BRANCH   3  28
ATOM     28  C   UNL     1      -1.426  13.150  22.662  0.00  0.00    +0.000 A 
ATOM     29  C   UNL     1      -1.566  14.268  23.510  0.00  0.00    +0.000 A 
ATOM     30  C   UNL     1      -2.609  14.362  24.436  0.00  0.00    +0.000 A 
ATOM     31  C   UNL     1      -3.540  13.334  24.539  0.00  0.00    +0.000 A 
ATOM     32  C   UNL     1      -3.425  12.213  23.723  0.00  0.00    +0.000 A 
ATOM     33  C   UNL     1      -2.379  12.124  22.798  0.00  0.00    +0.000 A 
ENDBRANCH   3  28
TORSDOF 2
ENDMDL
MODEL 7
REMARK VINA RESULT:      -8.1      1.273      4.981
REMARK  Name = 
REMARK  4 active torsions:
REMARK  status: ('A' for Active; 'I' for Inactive)
REMARK    1  A    between atoms: C_1  and  C_2
REMARK    2  A    between atoms: C_4  and  C_5
REMARK    3  A    between atoms: N_11  and  C_12
REMARK    4  A    between atoms: C_14  and  C_15
REMARK                            x       y       z     vdW  Elec       q    Type
REMARK                         _______ _______ _______ _____ _____    ______ ____
ROOT
ATOM      1  C   UNL     1       0.598  10.482  18.707  0.00  0.00    +0.000 A 
ATOM      2  N   UNL     1       1.245  11.680  18.712  0.00  0.00    +0.000 NA
ATOM      3  C   UNL     1       0.569  12.842  18.565  0.00  0.00    +0.000 A 
ATOM      4  N   UNL     1      -0.758  12.964  18.379  0.00  0.00    +0.000 NA
ATOM      5  C   UNL     1      -1.409  11.782  18.346  0.00  0.00    +0.000 A 
ATOM      6  C   UNL     1      -0.777  10.559  18.504  0.00  0.00    +0.000 A 
ATOM      7  O   UNL     1      -1.684   9.543  18.411  0.00  0.00    +0.000 OA
ATOM      8  C   UNL     1      -2.899  10.117  18.197  0.00  0.00    +0.000 A 
ATOM      9  C   UNL     1      -4.097   9.424  18.039  0.00  0.00    +0.000 A 
ATOM     10  C   UNL     1      -5.242  10.199  17.827  0.00  0.00    +0.000 A 
ATOM     11  C   UNL     1      -5.174  11.595  17.777  0.00  0.00    +0.000 A 
ATOM     12  C   UNL     1      -3.951  12.262  17.941  0.00  0.00    +0.000 A 
ATOM     13  C   UNL     1      -2.788  11.502  18.151  0.00  0.00    +0.000 A 
ENDROOT
BRANCH   1  24
ATOM     14  C   UNL     1       1.781   2.819  21.950  0.00  0.00    +0.000 C 
ATOM     15  C   UNL     1       2.358   3.478  20.735  0.00  0.00    +0.000 A 
ATOM     16  C   UNL     1       2.921   2.749  19.716  0.00  0.00    +0.000 A 
ATOM     17  C   UNL     1       3.386   3.469  18.637  0.00  0.00    +0.000 A 
ATOM     18  C   UNL     1       3.997   2.790  17.451  0.00  0.00    +0.000 C 
ATOM     19  N   UNL     1       3.298   4.813  18.576  0.00  0.00    +0.000 NA
ATOM     20  C   UNL     1       2.724   5.460  19.601  0.00  0.00    +0.000 A 
ATOM     21  N   UNL     1       2.588   6.853  19.540  0.00  0.00    +0.000 N 
ATOM     22  C   UNL     1       1.461   7.334  20.362  0.00  0.00    +0.000 C 
ATOM     23  C   UNL     1       1.395   8.869  20.345  0.00  0.00    +0.000 C 
ATOM     24  N   UNL     1       1.334   9.346  18.956  0.00  0.00    +0.000 N 
ATOM     25  C   UNL     1       2.457   8.911  18.117  0.00  0.00    +0.000 C 
ATOM     26  C   UNL     1       2.581   7.367  18.154  0.00  0.00    +0.000 C 
ATOM     27  N   UNL     1       2.265   4.820  20.689  0.00  0.00    +0.000 NA
ENDBRANCH   1  24
BRANCH   3  28
ATOM     28  C   UNL     1       1.371  14.086  18.611  0.00  0.00    +0.000 A 
ATOM     29  C   UNL     1       0.796  15.322  18.974  0.00  0.00    +0.000 A 
ATOM     30  C   UNL     1       1.554  16.496  19.032  0.00  0.00    +0.000 A 
ATOM     31  C   UNL     1       2.910  16.463  18.725  0.00  0.00    +0.000 A 
ATOM     32  C   UNL     1       3.506  15.261  18.356  0.00  0.00    +0.000 A 
ATOM     33  C   UNL     1       2.744  14.090  18.298  0.00  0.00    +0.000 A 
ENDBRANCH   3  28
TORSDOF 2
ENDMDL
MODEL 8
REMARK VINA RESULT:      -8.1      3.065      5.200
REMARK  Name = 
REMARK  4 active torsions:
REMARK  status: ('A' for Active; 'I' for Inactive)
REMARK    1  A    between atoms: C_1  and  C_2
REMARK    2  A    between atoms: C_4  and  C_5
REMARK    3  A    between atoms: N_11  and  C_12
REMARK    4  A    between atoms: C_14  and  C_15
REMARK                            x       y       z     vdW  Elec       q    Type
REMARK                         _______ _______ _______ _____ _____    ______ ____
ROOT
ATOM      1  C   UNL     1      -1.318  11.659  20.945  0.00  0.00    +0.000 A 
ATOM      2  N   UNL     1      -1.268  12.498  22.015  0.00  0.00    +0.000 NA
ATOM      3  C   UNL     1      -2.257  13.389  22.254  0.00  0.00    +0.000 A 
ATOM      4  N   UNL     1      -3.353  13.573  21.495  0.00  0.00    +0.000 NA
ATOM      5  C   UNL     1      -3.402  12.764  20.414  0.00  0.00    +0.000 A 
ATOM      6  C   UNL     1      -2.429  11.822  20.123  0.00  0.00    +0.000 A 
ATOM      7  O   UNL     1      -2.740  11.165  18.967  0.00  0.00    +0.000 OA
ATOM      8  C   UNL     1      -3.917  11.684  18.521  0.00  0.00    +0.000 A 
ATOM      9  C   UNL     1      -4.580  11.289  17.363  0.00  0.00    +0.000 A 
ATOM     10  C   UNL     1      -5.781  11.947  17.077  0.00  0.00    +0.000 A 
ATOM     11  C   UNL     1      -6.277  12.948  17.917  0.00  0.00    +0.000 A 
ATOM     12  C   UNL     1      -5.584  13.322  19.078  0.00  0.00    +0.000 A 
ATOM     13  C   UNL     1      -4.374  12.676  19.382  0.00  0.00    +0.000 A 
ENDROOT
BRANCH   1  24
ATOM     14  C   UNL     1       1.701   3.817  21.107  0.00  0.00    +0.000 C 
ATOM     15  C   UNL     1       2.104   5.014  20.304  0.00  0.00    +0.000 A 
ATOM     16  C   UNL     1       2.836   4.896  19.148  0.00  0.00    +0.000 A 
ATOM     17  C   UNL     1       3.116   6.070  18.482  0.00  0.00    +0.000 A 
ATOM     18  C   UNL     1       3.882   6.073  17.196  0.00  0.00    +0.000 C 
ATOM     19  N   UNL     1       2.699   7.270  18.931  0.00  0.00    +0.000 NA
ATOM     20  C   UNL     1       1.976   7.311  20.061  0.00  0.00    +0.000 A 
ATOM     21  N   UNL     1       1.502   8.544  20.525  0.00  0.00    +0.000 N 
ATOM     22  C   UNL     1       0.285   8.393  21.347  0.00  0.00    +0.000 C 
ATOM     23  C   UNL     1      -0.157   9.752  21.914  0.00  0.00    +0.000 C 
ATOM     24  N   UNL     1      -0.326  10.713  20.814  0.00  0.00    +0.000 N 
ATOM     25  C   UNL     1       0.875  10.911  19.994  0.00  0.00    +0.000 C 
ATOM     26  C   UNL     1       1.376   9.551  19.450  0.00  0.00    +0.000 C 
ATOM     27  N   UNL     1       1.684   6.207  20.767  0.00  0.00    +0.000 NA
ENDBRANCH   1  24
BRANCH   3  28
ATOM     28  C   UNL     1      -2.110  14.235  23.461  0.00  0.00    +0.000 A 
ATOM     29  C   UNL     1      -3.097  14.262  24.468  0.00  0.00    +0.000 A 
ATOM     30  C   UNL     1      -2.956  15.049  25.615  0.00  0.00    +0.000 A 
ATOM     31  C   UNL     1      -1.820  15.834  25.783  0.00  0.00    +0.000 A 
ATOM     32  C   UNL     1      -0.832  15.837  24.803  0.00  0.00    +0.000 A 
ATOM     33  C   UNL     1      -0.978  15.048  23.657  0.00  0.00    +0.000 A 
ENDBRANCH   3  28
TORSDOF 2
ENDMDL
MODEL 9
REMARK VINA RESULT:      -7.9      2.660      5.595
REMARK  Name = 
REMARK  4 active torsions:
REMARK  status: ('A' for Active; 'I' for Inactive)
REMARK    1  A    between atoms: C_1  and  C_2
REMARK    2  A    between atoms: C_4  and  C_5
REMARK    3  A    between atoms: N_11  and  C_12
REMARK    4  A    between atoms: C_14  and  C_15
REMARK                            x       y       z     vdW  Elec       q    Type
REMARK                         _______ _______ _______ _____ _____    ______ ____
ROOT
ATOM      1  C   UNL     1       1.063  11.603  20.208  0.00  0.00    +0.000 A 
ATOM      2  N   UNL     1       1.919  12.555  19.748  0.00  0.00    +0.000 NA
ATOM      3  C   UNL     1       1.853  13.832  20.192  0.00  0.00    +0.000 A 
ATOM      4  N   UNL     1       0.965  14.311  21.082  0.00  0.00    +0.000 NA
ATOM      5  C   UNL     1       0.092  13.382  21.527  0.00  0.00    +0.000 A 
ATOM      6  C   UNL     1       0.116  12.058  21.122  0.00  0.00    +0.000 A 
ATOM      7  O   UNL     1      -0.890  11.360  21.727  0.00  0.00    +0.000 OA
ATOM      8  C   UNL     1      -1.556  12.240  22.524  0.00  0.00    +0.000 A 
ATOM      9  C   UNL     1      -2.659  11.929  23.314  0.00  0.00    +0.000 A 
ATOM     10  C   UNL     1      -3.205  12.977  24.063  0.00  0.00    +0.000 A 
ATOM     11  C   UNL     1      -2.662  14.265  24.012  0.00  0.00    +0.000 A 
ATOM     12  C   UNL     1      -1.549  14.544  23.205  0.00  0.00    +0.000 A 
ATOM     13  C   UNL     1      -0.988  13.507  22.441  0.00  0.00    +0.000 A 
ENDROOT
BRANCH   1  24
ATOM     14  C   UNL     1       5.104   5.521  16.046  0.00  0.00    +0.000 C 
ATOM     15  C   UNL     1       4.271   5.482  17.289  0.00  0.00    +0.000 A 
ATOM     16  C   UNL     1       4.352   4.441  18.182  0.00  0.00    +0.000 A 
ATOM     17  C   UNL     1       3.559   4.538  19.304  0.00  0.00    +0.000 A 
ATOM     18  C   UNL     1       3.576   3.482  20.365  0.00  0.00    +0.000 C 
ATOM     19  N   UNL     1       2.746   5.591  19.523  0.00  0.00    +0.000 NA
ATOM     20  C   UNL     1       2.726   6.579  18.616  0.00  0.00    +0.000 A 
ATOM     21  N   UNL     1       1.917   7.699  18.844  0.00  0.00    +0.000 N 
ATOM     22  C   UNL     1       2.430   8.900  18.154  0.00  0.00    +0.000 C 
ATOM     23  C   UNL     1       1.473  10.086  18.350  0.00  0.00    +0.000 C 
ATOM     24  N   UNL     1       1.246  10.306  19.786  0.00  0.00    +0.000 N 
ATOM     25  C   UNL     1       0.707   9.141  20.497  0.00  0.00    +0.000 C 
ATOM     26  C   UNL     1       1.624   7.912  20.277  0.00  0.00    +0.000 C 
ATOM     27  N   UNL     1       3.462   6.539  17.494  0.00  0.00    +0.000 NA
ENDBRANCH   1  24
BRANCH   3  28
ATOM     28  C   UNL     1       2.851  14.778  19.641  0.00  0.00    +0.000 A 
ATOM     29  C   UNL     1       3.246  15.930  20.353  0.00  0.00    +0.000 A 
ATOM     30  C   UNL     1       4.197  16.818  19.842  0.00  0.00    +0.000 A 
ATOM     31  C   UNL     1       4.778  16.576  18.601  0.00  0.00    +0.000 A 
ATOM     32  C   UNL     1       4.403  15.453  17.871  0.00  0.00    +0.000 A 
ATOM     33  C   UNL     1       3.450  14.567  18.386  0.00  0.00    +0.000 A 
ENDBRANCH   3  28
TORSDOF 2
ENDMDL
