MODEL 1
REMARK VINA RESULT:      -5.9      0.000      0.000
REMARK  Name = 
REMARK  5 active torsions:
REMARK  status: ('A' for Active; 'I' for Inactive)
REMARK    1  A    between atoms: C_1  and  C_2
REMARK    2  A    between atoms: C_2  and  N_3
REMARK    3  A    between atoms: C_2  and  C_4
REMARK    4  A    between atoms: N_6  and  C_7
REMARK    5  A    between atoms: N_6  and  C_8
REMARK                            x       y       z     vdW  Elec       q    Type
REMARK                         _______ _______ _______ _____ _____    ______ ____
ROOT
ATOM      1  C   UNL     1       5.876   4.615  18.667  0.00  0.00    +0.000 C 
ATOM      2  O   UNL     1       6.277   4.909  19.800  0.00  0.00    +0.000 OA
ATOM      3  N   UNL     1       4.566   4.162  18.453  0.00  0.00    +0.000 N 
ATOM      4  C   UNL     1       4.088   3.641  17.173  0.00  0.00    +0.000 C 
ENDROOT
BRANCH   3   5
ATOM      5  C   UNL     1       3.637   4.124  19.606  0.00  0.00    +0.000 C 
ATOM      6  C   UNL     1       3.487   2.732  20.230  0.00  0.00    +0.000 C 
ATOM      7  C   UNL     1       2.498   2.788  21.389  0.00  0.00    +0.000 C 
ATOM      8  O   UNL     1       1.241   3.311  20.956  0.00  0.00    +0.000 OA
ATOM      9  C   UNL     1       1.348   4.650  20.477  0.00  0.00    +0.000 C 
ATOM     10  C   UNL     1       2.258   4.703  19.259  0.00  0.00    +0.000 C 
ENDBRANCH   3   5
BRANCH   1  12
ATOM     11  C   UNL     1       7.071   6.285  17.167  0.00  0.00    +0.000 C 
ATOM     12  C   UNL     1       6.807   4.802  17.438  0.00  0.00    +0.000 C 
BRANCH  12  13
ATOM     13  N   UNL     1       8.102   4.124  17.652  0.00  0.00    +0.000 NA
ATOM     14  H   UNL     1       8.721   4.761  18.155  0.00  0.00    +0.000 HD
ATOM     15  H   UNL     1       8.545   3.964  16.747  0.00  0.00    +0.000 HD
ENDBRANCH  12  13
ENDBRANCH   1  12
TORSDOF 3
ENDMDL
MODEL 2
REMARK VINA RESULT:      -5.8      1.613      1.661
REMARK  Name = 
REMARK  5 active torsions:
REMARK  status: ('A' for Active; 'I' for Inactive)
REMARK    1  A    between atoms: C_1  and  C_2
REMARK    2  A    between atoms: C_2  and  N_3
REMARK    3  A    between atoms: C_2  and  C_4
REMARK    4  A    between atoms: N_6  and  C_7
REMARK    5  A    between atoms: N_6  and  C_8
REMARK                            x       y       z     vdW  Elec       q    Type
REMARK                         _______ _______ _______ _____ _____    ______ ____
ROOT
ATOM      1  C   UNL     1       6.002   4.615  18.487  0.00  0.00    +0.000 C 
ATOM      2  O   UNL     1       5.863   4.658  19.714  0.00  0.00    +0.000 OA
ATOM      3  N   UNL     1       4.993   4.107  17.656  0.00  0.00    +0.000 N 
ATOM      4  C   UNL     1       5.164   3.874  16.222  0.00  0.00    +0.000 C 
ENDROOT
BRANCH   3   5
ATOM      5  C   UNL     1       3.710   3.701  18.275  0.00  0.00    +0.000 C 
ATOM      6  C   UNL     1       3.390   2.211  18.105  0.00  0.00    +0.000 C 
ATOM      7  C   UNL     1       2.045   1.894  18.751  0.00  0.00    +0.000 C 
ATOM      8  O   UNL     1       1.015   2.721  18.208  0.00  0.00    +0.000 OA
ATOM      9  C   UNL     1       1.245   4.106  18.458  0.00  0.00    +0.000 C 
ATOM     10  C   UNL     1       2.533   4.557  17.786  0.00  0.00    +0.000 C 
ENDBRANCH   3   5
BRANCH   1  12
ATOM     11  C   UNL     1       7.844   6.362  18.631  0.00  0.00    +0.000 C 
ATOM     12  C   UNL     1       7.289   5.184  17.828  0.00  0.00    +0.000 C 
BRANCH  12  13
ATOM     13  N   UNL     1       8.334   4.144  17.732  0.00  0.00    +0.000 NA
ATOM     14  H   UNL     1       8.987   4.410  16.993  0.00  0.00    +0.000 HD
ATOM     15  H   UNL     1       7.904   3.272  17.421  0.00  0.00    +0.000 HD
ENDBRANCH  12  13
ENDBRANCH   1  12
TORSDOF 3
ENDMDL
MODEL 3
REMARK VINA RESULT:      -5.7      2.115      5.220
REMARK  Name = 
REMARK  5 active torsions:
REMARK  status: ('A' for Active; 'I' for Inactive)
REMARK    1  A    between atoms: C_1  and  C_2
REMARK    2  A    between atoms: C_2  and  N_3
REMARK    3  A    between atoms: C_2  and  C_4
REMARK    4  A    between atoms: N_6  and  C_7
REMARK    5  A    between atoms: N_6  and  C_8
REMARK                            x       y       z     vdW  Elec       q    Type
REMARK                         _______ _______ _______ _____ _____    ______ ____
ROOT
ATOM      1  C   UNL     1       3.411   3.339  19.879  0.00  0.00    +0.000 C 
ATOM      2  O   UNL     1       3.846   2.187  19.771  0.00  0.00    +0.000 OA
ATOM      3  N   UNL     1       4.005   4.410  19.193  0.00  0.00    +0.000 N 
ATOM      4  C   UNL     1       3.645   5.811  19.410  0.00  0.00    +0.000 C 
ENDROOT
BRANCH   3   5
ATOM      5  C   UNL     1       5.118   4.117  18.261  0.00  0.00    +0.000 C 
ATOM      6  C   UNL     1       6.356   4.991  18.489  0.00  0.00    +0.000 C 
ATOM      7  C   UNL     1       7.435   4.634  17.471  0.00  0.00    +0.000 C 
ATOM      8  O   UNL     1       6.936   4.762  16.138  0.00  0.00    +0.000 OA
ATOM      9  C   UNL     1       5.853   3.872  15.879  0.00  0.00    +0.000 C 
ATOM     10  C   UNL     1       4.678   4.189  16.792  0.00  0.00    +0.000 C 
ENDBRANCH   3   5
BRANCH   1  12
ATOM     11  C   UNL     1       0.877   3.168  20.013  0.00  0.00    +0.000 C 
ATOM     12  C   UNL     1       2.148   3.618  20.738  0.00  0.00    +0.000 C 
BRANCH  12  13
ATOM     13  N   UNL     1       2.227   2.912  22.033  0.00  0.00    +0.000 NA
ATOM     14  H   UNL     1       1.288   2.859  22.431  0.00  0.00    +0.000 HD
ATOM     15  H   UNL     1       2.772   3.477  22.685  0.00  0.00    +0.000 HD
ENDBRANCH  12  13
ENDBRANCH   1  12
TORSDOF 3
ENDMDL
MODEL 4
REMARK VINA RESULT:      -5.6      2.528      5.498
REMARK  Name = 
REMARK  5 active torsions:
REMARK  status: ('A' for Active; 'I' for Inactive)
REMARK    1  A    between atoms: C_1  and  C_2
REMARK    2  A    between atoms: C_2  and  N_3
REMARK    3  A    between atoms: C_2  and  C_4
REMARK    4  A    between atoms: N_6  and  C_7
REMARK    5  A    between atoms: N_6  and  C_8
REMARK                            x       y       z     vdW  Elec       q    Type
REMARK                         _______ _______ _______ _____ _____    ______ ____
ROOT
ATOM      1  C   UNL     1       2.103   3.665  18.142  0.00  0.00    +0.000 C 
ATOM      2  O   UNL     1       1.394   4.090  17.223  0.00  0.00    +0.000 OA
ATOM      3  N   UNL     1       3.493   3.856  18.138  0.00  0.00    +0.000 N 
ATOM      4  C   UNL     1       4.400   3.234  19.103  0.00  0.00    +0.000 C 
ENDROOT
BRANCH   3   5
ATOM      5  C   UNL     1       4.090   4.660  17.046  0.00  0.00    +0.000 C 
ATOM      6  C   UNL     1       5.206   3.934  16.287  0.00  0.00    +0.000 C 
ATOM      7  C   UNL     1       5.772   4.846  15.203  0.00  0.00    +0.000 C 
ATOM      8  O   UNL     1       6.229   6.077  15.765  0.00  0.00    +0.000 OA
ATOM      9  C   UNL     1       5.175   6.816  16.378  0.00  0.00    +0.000 C 
ATOM     10  C   UNL     1       4.582   6.029  17.537  0.00  0.00    +0.000 C 
ENDBRANCH   3   5
BRANCH   1  12
ATOM     11  C   UNL     1       0.977   3.972  20.401  0.00  0.00    +0.000 C 
ATOM     12  C   UNL     1       1.456   2.955  19.362  0.00  0.00    +0.000 C 
BRANCH  12  13
ATOM     13  N   UNL     1       0.303   2.133  18.940  0.00  0.00    +0.000 NA
ATOM     14  H   UNL     1       0.468   1.170  19.237  0.00  0.00    +0.000 HD
ATOM     15  H   UNL     1       0.272   2.106  17.921  0.00  0.00    +0.000 HD
ENDBRANCH  12  13
ENDBRANCH   1  12
TORSDOF 3
ENDMDL
MODEL 5
REMARK VINA RESULT:      -5.5      2.061      5.255
REMARK  Name = 
REMARK  5 active torsions:
REMARK  status: ('A' for Active; 'I' for Inactive)
REMARK    1  A    between atoms: C_1  and  C_2
REMARK    2  A    between atoms: C_2  and  N_3
REMARK    3  A    between atoms: C_2  and  C_4
REMARK    4  A    between atoms: N_6  and  C_7
REMARK    5  A    between atoms: N_6  and  C_8
REMARK                            x       y       z     vdW  Elec       q    Type
REMARK                         _______ _______ _______ _____ _____    ______ ____
ROOT
ATOM      1  C   UNL     1       3.992   3.458  19.390  0.00  0.00    +0.000 C 
ATOM      2  O   UNL     1       4.978   2.837  19.804  0.00  0.00    +0.000 OA
ATOM      3  N   UNL     1       4.111   4.428  18.385  0.00  0.00    +0.000 N 
ATOM      4  C   UNL     1       3.019   5.310  17.975  0.00  0.00    +0.000 C 
ENDROOT
BRANCH   3   5
ATOM      5  C   UNL     1       5.439   4.635  17.761  0.00  0.00    +0.000 C 
ATOM      6  C   UNL     1       6.008   6.041  17.979  0.00  0.00    +0.000 C 
ATOM      7  C   UNL     1       7.360   6.166  17.283  0.00  0.00    +0.000 C 
ATOM      8  O   UNL     1       7.245   5.852  15.894  0.00  0.00    +0.000 OA
ATOM      9  C   UNL     1       6.823   4.507  15.677  0.00  0.00    +0.000 C 
ATOM     10  C   UNL     1       5.437   4.287  16.265  0.00  0.00    +0.000 C 
ENDBRANCH   3   5
BRANCH   1  12
ATOM     11  C   UNL     1       1.922   2.002  19.138  0.00  0.00    +0.000 C 
ATOM     12  C   UNL     1       2.577   3.129  19.939  0.00  0.00    +0.000 C 
BRANCH  12  13
ATOM     13  N   UNL     1       2.646   2.721  21.358  0.00  0.00    +0.000 NA
ATOM     14  H   UNL     1       1.693   2.598  21.705  0.00  0.00    +0.000 HD
ATOM     15  H   UNL     1       3.043   3.487  21.903  0.00  0.00    +0.000 HD
ENDBRANCH  12  13
ENDBRANCH   1  12
TORSDOF 3
ENDMDL
MODEL 6
REMARK VINA RESULT:      -5.4      2.021      2.122
REMARK  Name = 
REMARK  5 active torsions:
REMARK  status: ('A' for Active; 'I' for Inactive)
REMARK    1  A    between atoms: C_1  and  C_2
REMARK    2  A    between atoms: C_2  and  N_3
REMARK    3  A    between atoms: C_2  and  C_4
REMARK    4  A    between atoms: N_6  and  C_7
REMARK    5  A    between atoms: N_6  and  C_8
REMARK                            x       y       z     vdW  Elec       q    Type
REMARK                         _______ _______ _______ _____ _____    ______ ____
ROOT
ATOM      1  C   UNL     1       6.184   5.243  18.679  0.00  0.00    +0.000 C 
ATOM      2  O   UNL     1       5.773   5.398  19.834  0.00  0.00    +0.000 OA
ATOM      3  N   UNL     1       5.433   4.536  17.728  0.00  0.00    +0.000 N 
ATOM      4  C   UNL     1       5.937   4.174  16.403  0.00  0.00    +0.000 C 
ENDROOT
BRANCH   3   5
ATOM      5  C   UNL     1       4.087   4.052  18.113  0.00  0.00    +0.000 C 
ATOM      6  C   UNL     1       3.773   2.640  17.606  0.00  0.00    +0.000 C 
ATOM      7  C   UNL     1       2.363   2.240  18.030  0.00  0.00    +0.000 C 
ATOM      8  O   UNL     1       1.406   3.193  17.565  0.00  0.00    +0.000 OA
ATOM      9  C   UNL     1       1.621   4.489  18.118  0.00  0.00    +0.000 C 
ATOM     10  C   UNL     1       2.978   5.028  17.692  0.00  0.00    +0.000 C 
ENDBRANCH   3   5
BRANCH   1  12
ATOM     11  C   UNL     1       7.293   7.210  17.510  0.00  0.00    +0.000 C 
ATOM     12  C   UNL     1       7.527   5.884  18.236  0.00  0.00    +0.000 C 
BRANCH  12  13
ATOM     13  N   UNL     1       8.401   6.131  19.402  0.00  0.00    +0.000 NA
ATOM     14  H   UNL     1       8.013   6.911  19.936  0.00  0.00    +0.000 HD
ATOM     15  H   UNL     1       9.312   6.449  19.070  0.00  0.00    +0.000 HD
ENDBRANCH  12  13
ENDBRANCH   1  12
TORSDOF 3
ENDMDL
MODEL 7
REMARK VINA RESULT:      -5.4      1.607      1.955
REMARK  Name = 
REMARK  5 active torsions:
REMARK  status: ('A' for Active; 'I' for Inactive)
REMARK    1  A    between atoms: C_1  and  C_2
REMARK    2  A    between atoms: C_2  and  N_3
REMARK    3  A    between atoms: C_2  and  C_4
REMARK    4  A    between atoms: N_6  and  C_7
REMARK    5  A    between atoms: N_6  and  C_8
REMARK                            x       y       z     vdW  Elec       q    Type
REMARK                         _______ _______ _______ _____ _____    ______ ____
ROOT
ATOM      1  C   UNL     1       5.532   5.291  18.303  0.00  0.00    +0.000 C 
ATOM      2  O   UNL     1       5.955   4.192  18.679  0.00  0.00    +0.000 OA
ATOM      3  N   UNL     1       4.168   5.609  18.372  0.00  0.00    +0.000 N 
ATOM      4  C   UNL     1       3.587   6.819  17.790  0.00  0.00    +0.000 C 
ENDROOT
BRANCH   3   5
ATOM      5  C   UNL     1       3.247   4.628  18.990  0.00  0.00    +0.000 C 
ATOM      6  C   UNL     1       2.130   4.158  18.053  0.00  0.00    +0.000 C 
ATOM      7  C   UNL     1       1.223   3.171  18.782  0.00  0.00    +0.000 C 
ATOM      8  O   UNL     1       0.700   3.753  19.977  0.00  0.00    +0.000 OA
ATOM      9  C   UNL     1       1.726   4.093  20.907  0.00  0.00    +0.000 C 
ATOM     10  C   UNL     1       2.654   5.140  20.311  0.00  0.00    +0.000 C 
ENDBRANCH   3   5
BRANCH   1  12
ATOM     11  C   UNL     1       7.807   6.381  18.629  0.00  0.00    +0.000 C 
ATOM     12  C   UNL     1       6.522   6.376  17.798  0.00  0.00    +0.000 C 
BRANCH  12  13
ATOM     13  N   UNL     1       6.876   6.145  16.382  0.00  0.00    +0.000 NA
ATOM     14  H   UNL     1       7.238   5.194  16.291  0.00  0.00    +0.000 HD
ATOM     15  H   UNL     1       7.650   6.761  16.130  0.00  0.00    +0.000 HD
ENDBRANCH  12  13
ENDBRANCH   1  12
TORSDOF 3
ENDMDL
MODEL 8
REMARK VINA RESULT:      -5.4      2.055      2.487
REMARK  Name = 
REMARK  5 active torsions:
REMARK  status: ('A' for Active; 'I' for Inactive)
REMARK    1  A    between atoms: C_1  and  C_2
REMARK    2  A    between atoms: C_2  and  N_3
REMARK    3  A    between atoms: C_2  and  C_4
REMARK    4  A    between atoms: N_6  and  C_7
REMARK    5  A    between atoms: N_6  and  C_8
REMARK                            x       y       z     vdW  Elec       q    Type
REMARK                         _______ _______ _______ _____ _____    ______ ____
ROOT
ATOM      1  C   UNL     1       4.506   5.469  17.426  0.00  0.00    +0.000 C 
ATOM      2  O   UNL     1       4.962   4.329  17.284  0.00  0.00    +0.000 OA
ATOM      3  N   UNL     1       3.336   5.700  18.165  0.00  0.00    +0.000 N 
ATOM      4  C   UNL     1       2.658   6.994  18.227  0.00  0.00    +0.000 C 
ENDROOT
BRANCH   3   5
ATOM      5  C   UNL     1       2.701   4.552  18.852  0.00  0.00    +0.000 C 
ATOM      6  C   UNL     1       1.595   3.879  18.031  0.00  0.00    +0.000 C 
ATOM      7  C   UNL     1       0.987   2.729  18.826  0.00  0.00    +0.000 C 
ATOM      8  O   UNL     1       0.502   3.187  20.089  0.00  0.00    +0.000 OA
ATOM      9  C   UNL     1       1.543   3.714  20.909  0.00  0.00    +0.000 C 
ATOM     10  C   UNL     1       2.176   4.927  20.245  0.00  0.00    +0.000 C 
ENDBRANCH   3   5
BRANCH   1  12
ATOM     11  C   UNL     1       6.687   6.777  17.381  0.00  0.00    +0.000 C 
ATOM     12  C   UNL     1       5.261   6.690  16.833  0.00  0.00    +0.000 C 
BRANCH  12  13
ATOM     13  N   UNL     1       5.326   6.601  15.359  0.00  0.00    +0.000 NA
ATOM     14  H   UNL     1       5.023   5.667  15.078  0.00  0.00    +0.000 HD
ATOM     15  H   UNL     1       6.301   6.675  15.067  0.00  0.00    +0.000 HD
ENDBRANCH  12  13
ENDBRANCH   1  12
TORSDOF 3
ENDMDL
MODEL 9
REMARK VINA RESULT:      -5.4      1.592      2.083
REMARK  Name = 
REMARK  5 active torsions:
REMARK  status: ('A' for Active; 'I' for Inactive)
REMARK    1  A    between atoms: C_1  and  C_2
REMARK    2  A    between atoms: C_2  and  N_3
REMARK    3  A    between atoms: C_2  and  C_4
REMARK    4  A    between atoms: N_6  and  C_7
REMARK    5  A    between atoms: N_6  and  C_8
REMARK                            x       y       z     vdW  Elec       q    Type
REMARK                         _______ _______ _______ _____ _____    ______ ____
ROOT
ATOM      1  C   UNL     1       6.446   5.271  18.154  0.00  0.00    +0.000 C 
ATOM      2  O   UNL     1       7.186   4.502  18.777  0.00  0.00    +0.000 OA
ATOM      3  N   UNL     1       5.084   4.987  17.974  0.00  0.00    +0.000 N 
ATOM      4  C   UNL     1       4.200   5.767  17.108  0.00  0.00    +0.000 C 
ENDROOT
BRANCH   3   5
ATOM      5  C   UNL     1       4.525   3.780  18.626  0.00  0.00    +0.000 C 
ATOM      6  C   UNL     1       3.817   2.829  17.655  0.00  0.00    +0.000 C 
ATOM      7  C   UNL     1       3.257   1.633  18.418  0.00  0.00    +0.000 C 
ATOM      8  O   UNL     1       2.386   2.063  19.466  0.00  0.00    +0.000 OA
ATOM      9  C   UNL     1       3.061   2.859  20.438  0.00  0.00    +0.000 C 
ATOM     10  C   UNL     1       3.599   4.130  19.799  0.00  0.00    +0.000 C 
ENDBRANCH   3   5
BRANCH   1  12
ATOM     11  C   UNL     1       8.116   7.158  18.499  0.00  0.00    +0.000 C 
ATOM     12  C   UNL     1       7.002   6.613  17.603  0.00  0.00    +0.000 C 
BRANCH  12  13
ATOM     13  N   UNL     1       7.539   6.436  16.237  0.00  0.00    +0.000 NA
ATOM     14  H   UNL     1       8.557   6.373  16.297  0.00  0.00    +0.000 HD
ATOM     15  H   UNL     1       7.345   7.279  15.695  0.00  0.00    +0.000 HD
ENDBRANCH  12  13
ENDBRANCH   1  12
TORSDOF 3
ENDMDL
