MODEL 1
REMARK VINA RESULT:      -8.7      0.000      0.000
REMARK  Name = 
REMARK  9 active torsions:
REMARK  status: ('A' for Active; 'I' for Inactive)
REMARK    1  A    between atoms: C_1  and  C_2
REMARK    2  A    between atoms: C_7  and  C_8
REMARK    3  A    between atoms: C_11  and  C_12
REMARK    4  A    between atoms: C_13  and  C_14
REMARK    5  A    between atoms: C_13  and  C_15
REMARK    6  A    between atoms: C_15  and  C_16
REMARK    7  A    between atoms: C_21  and  N_22
REMARK    8  A    between atoms: N_22  and  C_23
REMARK    9  A    between atoms: C_23  and  C_24
REMARK                            x       y       z     vdW  Elec       q    Type
REMARK                         _______ _______ _______ _____ _____    ______ ____
ROOT
ATOM      1  C   UNL     1       1.745   7.930  19.147  0.00  0.00    +0.000 C 
ATOM      2  C   UNL     1       1.584   7.969  20.473  0.00  0.00    +0.000 C 
ATOM      3  C   UNL     1       1.171   9.206  21.172  0.00  0.00    +0.000 C 
ATOM      4  O   UNL     1       0.929   9.184  22.372  0.00  0.00    +0.000 OA
ATOM      5  C   UNL     1       1.041  10.434  20.381  0.00  0.00    +0.000 C 
ATOM      6  C   UNL     1       1.304  10.488  19.073  0.00  0.00    +0.000 C 
ATOM      7  C   UNL     1       1.663   9.213  18.342  0.00  0.00    +0.000 C 
ATOM      8  O   UNL     1       1.890   9.252  17.132  0.00  0.00    +0.000 OA
ENDROOT
BRANCH   6   9
ATOM      9  N   UNL     1       1.349  11.699  18.375  0.00  0.00    +0.000 N 
ATOM     10  H   UNL     1       0.663  12.330  18.795  0.00  0.00    +0.000 HD
BRANCH   9  11
ATOM     11  C   UNL     1       2.594  12.458  18.234  0.00  0.00    +0.000 C 
BRANCH  11  12
ATOM     12  C   UNL     1       2.278  13.931  18.346  0.00  0.00    +0.000 A 
ATOM     13  C   UNL     1       1.041  14.370  18.848  0.00  0.00    +0.000 A 
ATOM     14  C   UNL     1       0.732  15.733  18.876  0.00  0.00    +0.000 A 
ATOM     15  C   UNL     1       1.648  16.667  18.396  0.00  0.00    +0.000 A 
ATOM     16  C   UNL     1       2.879  16.244  17.902  0.00  0.00    +0.000 A 
ATOM     17  C   UNL     1       3.192  14.884  17.876  0.00  0.00    +0.000 A 
ENDBRANCH  11  12
ENDBRANCH   9  11
ENDBRANCH   6   9
BRANCH   1  18
ATOM     18  C   UNL     1       1.908   6.651  18.359  0.00  0.00    +0.000 C 
BRANCH  18  31
ATOM     19  C   UNL     1       7.314   5.551  19.518  0.00  0.00    +0.000 C 
ATOM     20  C   UNL     1       6.817   5.278  18.112  0.00  0.00    +0.000 C 
ATOM     21  C   UNL     1       7.094   6.220  17.172  0.00  0.00    +0.000 C 
ATOM     22  C   UNL     1       6.190   7.442  17.212  0.00  0.00    +0.000 C 
ATOM     23  C   UNL     1       4.697   7.033  17.194  0.00  0.00    +0.000 C 
ATOM     24  C   UNL     1       4.434   5.864  18.173  0.00  0.00    +0.000 C 
ATOM     25  C   UNL     1       5.410   4.610  17.991  0.00  0.00    +0.000 C 
ATOM     26  C   UNL     1       5.381   3.908  16.596  0.00  0.00    +0.000 C 
ATOM     27  C   UNL     1       5.152   3.454  19.040  0.00  0.00    +0.000 C 
ATOM     28  C   UNL     1       3.823   3.444  19.827  0.00  0.00    +0.000 C 
ATOM     29  C   UNL     1       3.175   4.835  19.966  0.00  0.00    +0.000 C 
ATOM     30  C   UNL     1       2.059   4.849  21.001  0.00  0.00    +0.000 C 
ATOM     31  C   UNL     1       2.958   5.479  18.529  0.00  0.00    +0.000 C 
ATOM     32  C   UNL     1       2.394   4.446  17.496  0.00  0.00    +0.000 C 
ENDBRANCH  18  31
ENDBRANCH   1  18
TORSDOF 5
ENDMDL
MODEL 2
REMARK VINA RESULT:      -8.6      1.920      2.612
REMARK  Name = 
REMARK  9 active torsions:
REMARK  status: ('A' for Active; 'I' for Inactive)
REMARK    1  A    between atoms: C_1  and  C_2
REMARK    2  A    between atoms: C_7  and  C_8
REMARK    3  A    between atoms: C_11  and  C_12
REMARK    4  A    between atoms: C_13  and  C_14
REMARK    5  A    between atoms: C_13  and  C_15
REMARK    6  A    between atoms: C_15  and  C_16
REMARK    7  A    between atoms: C_21  and  N_22
REMARK    8  A    between atoms: N_22  and  C_23
REMARK    9  A    between atoms: C_23  and  C_24
REMARK                            x       y       z     vdW  Elec       q    Type
REMARK                         _______ _______ _______ _____ _____    ______ ____
ROOT
ATOM      1  C   UNL     1       1.741   7.857  19.189  0.00  0.00    +0.000 C 
ATOM      2  C   UNL     1       1.675   7.868  20.524  0.00  0.00    +0.000 C 
ATOM      3  C   UNL     1       1.232   9.066  21.272  0.00  0.00    +0.000 C 
ATOM      4  O   UNL     1       1.080   9.012  22.486  0.00  0.00    +0.000 OA
ATOM      5  C   UNL     1       0.964  10.292  20.515  0.00  0.00    +0.000 C 
ATOM      6  C   UNL     1       1.127  10.380  19.193  0.00  0.00    +0.000 C 
ATOM      7  C   UNL     1       1.516   9.142  18.415  0.00  0.00    +0.000 C 
ATOM      8  O   UNL     1       1.651   9.212  17.194  0.00  0.00    +0.000 OA
ENDROOT
BRANCH   6   9
ATOM      9  N   UNL     1       1.042  11.601  18.515  0.00  0.00    +0.000 N 
ATOM     10  H   UNL     1       0.690  11.414  17.573  0.00  0.00    +0.000 HD
BRANCH   9  11
ATOM     11  C   UNL     1       0.261  12.721  19.046  0.00  0.00    +0.000 C 
BRANCH  11  12
ATOM     12  C   UNL     1      -1.207  12.419  18.856  0.00  0.00    +0.000 A 
ATOM     13  C   UNL     1      -2.138  12.680  19.875  0.00  0.00    +0.000 A 
ATOM     14  C   UNL     1      -3.480  12.327  19.717  0.00  0.00    +0.000 A 
ATOM     15  C   UNL     1      -3.904  11.704  18.544  0.00  0.00    +0.000 A 
ATOM     16  C   UNL     1      -2.992  11.445  17.524  0.00  0.00    +0.000 A 
ATOM     17  C   UNL     1      -1.652  11.800  17.679  0.00  0.00    +0.000 A 
ENDBRANCH  11  12
ENDBRANCH   9  11
ENDBRANCH   6   9
BRANCH   1  18
ATOM     18  C   UNL     1       1.930   6.602  18.369  0.00  0.00    +0.000 C 
BRANCH  18  31
ATOM     19  C   UNL     1       7.347   5.529  19.503  0.00  0.00    +0.000 C 
ATOM     20  C   UNL     1       6.848   5.266  18.095  0.00  0.00    +0.000 C 
ATOM     21  C   UNL     1       7.116   6.219  17.164  0.00  0.00    +0.000 C 
ATOM     22  C   UNL     1       6.203   7.434  17.217  0.00  0.00    +0.000 C 
ATOM     23  C   UNL     1       4.714   7.015  17.200  0.00  0.00    +0.000 C 
ATOM     24  C   UNL     1       4.462   5.834  18.169  0.00  0.00    +0.000 C 
ATOM     25  C   UNL     1       5.445   4.590  17.972  0.00  0.00    +0.000 C 
ATOM     26  C   UNL     1       5.418   3.899  16.571  0.00  0.00    +0.000 C 
ATOM     27  C   UNL     1       5.199   3.422  19.011  0.00  0.00    +0.000 C 
ATOM     28  C   UNL     1       3.872   3.396  19.803  0.00  0.00    +0.000 C 
ATOM     29  C   UNL     1       3.215   4.780  19.956  0.00  0.00    +0.000 C 
ATOM     30  C   UNL     1       2.103   4.777  20.995  0.00  0.00    +0.000 C 
ATOM     31  C   UNL     1       2.989   5.436  18.525  0.00  0.00    +0.000 C 
ATOM     32  C   UNL     1       2.429   4.409  17.485  0.00  0.00    +0.000 C 
ENDBRANCH  18  31
ENDBRANCH   1  18
TORSDOF 5
ENDMDL
MODEL 3
REMARK VINA RESULT:      -8.4      0.901      1.349
REMARK  Name = 
REMARK  9 active torsions:
REMARK  status: ('A' for Active; 'I' for Inactive)
REMARK    1  A    between atoms: C_1  and  C_2
REMARK    2  A    between atoms: C_7  and  C_8
REMARK    3  A    between atoms: C_11  and  C_12
REMARK    4  A    between atoms: C_13  and  C_14
REMARK    5  A    between atoms: C_13  and  C_15
REMARK    6  A    between atoms: C_15  and  C_16
REMARK    7  A    between atoms: C_21  and  N_22
REMARK    8  A    between atoms: N_22  and  C_23
REMARK    9  A    between atoms: C_23  and  C_24
REMARK                            x       y       z     vdW  Elec       q    Type
REMARK                         _______ _______ _______ _____ _____    ______ ____
ROOT
ATOM      1  C   UNL     1       1.765   7.859  19.158  0.00  0.00    +0.000 C 
ATOM      2  C   UNL     1       1.590   7.898  20.483  0.00  0.00    +0.000 C 
ATOM      3  C   UNL     1       1.177   9.138  21.178  0.00  0.00    +0.000 C 
ATOM      4  O   UNL     1       0.923   9.116  22.376  0.00  0.00    +0.000 OA
ATOM      5  C   UNL     1       1.063  10.367  20.388  0.00  0.00    +0.000 C 
ATOM      6  C   UNL     1       1.340  10.420  19.083  0.00  0.00    +0.000 C 
ATOM      7  C   UNL     1       1.699   9.144  18.354  0.00  0.00    +0.000 C 
ATOM      8  O   UNL     1       1.939   9.183  17.147  0.00  0.00    +0.000 OA
ENDROOT
BRANCH   6   9
ATOM      9  N   UNL     1       1.400  11.633  18.387  0.00  0.00    +0.000 N 
ATOM     10  H   UNL     1       0.821  11.544  17.550  0.00  0.00    +0.000 HD
BRANCH   9  11
ATOM     11  C   UNL     1       1.038  12.901  19.022  0.00  0.00    +0.000 C 
BRANCH  11  12
ATOM     12  C   UNL     1       2.298  13.702  19.257  0.00  0.00    +0.000 A 
ATOM     13  C   UNL     1       3.023  14.241  18.182  0.00  0.00    +0.000 A 
ATOM     14  C   UNL     1       4.227  14.915  18.406  0.00  0.00    +0.000 A 
ATOM     15  C   UNL     1       4.721  15.048  19.704  0.00  0.00    +0.000 A 
ATOM     16  C   UNL     1       4.007  14.522  20.777  0.00  0.00    +0.000 A 
ATOM     17  C   UNL     1       2.803  13.852  20.556  0.00  0.00    +0.000 A 
ENDBRANCH  11  12
ENDBRANCH   9  11
ENDBRANCH   6   9
BRANCH   1  18
ATOM     18  C   UNL     1       1.927   6.581  18.370  0.00  0.00    +0.000 C 
BRANCH  18  31
ATOM     19  C   UNL     1       7.349   5.524  19.498  0.00  0.00    +0.000 C 
ATOM     20  C   UNL     1       6.848   5.254  18.093  0.00  0.00    +0.000 C 
ATOM     21  C   UNL     1       7.112   6.204  17.157  0.00  0.00    +0.000 C 
ATOM     22  C   UNL     1       6.196   7.417  17.208  0.00  0.00    +0.000 C 
ATOM     23  C   UNL     1       4.708   6.995  17.195  0.00  0.00    +0.000 C 
ATOM     24  C   UNL     1       4.460   5.818  18.168  0.00  0.00    +0.000 C 
ATOM     25  C   UNL     1       5.446   4.574  17.975  0.00  0.00    +0.000 C 
ATOM     26  C   UNL     1       5.418   3.879  16.576  0.00  0.00    +0.000 C 
ATOM     27  C   UNL     1       5.204   3.410  19.018  0.00  0.00    +0.000 C 
ATOM     28  C   UNL     1       3.879   3.384  19.813  0.00  0.00    +0.000 C 
ATOM     29  C   UNL     1       3.219   4.768  19.962  0.00  0.00    +0.000 C 
ATOM     30  C   UNL     1       2.108   4.766  21.003  0.00  0.00    +0.000 C 
ATOM     31  C   UNL     1       2.989   5.418  18.529  0.00  0.00    +0.000 C 
ATOM     32  C   UNL     1       2.429   4.385  17.493  0.00  0.00    +0.000 C 
ENDBRANCH  18  31
ENDBRANCH   1  18
TORSDOF 5
ENDMDL
MODEL 4
REMARK VINA RESULT:      -8.0      5.089     10.028
REMARK  Name = 
REMARK  9 active torsions:
REMARK  status: ('A' for Active; 'I' for Inactive)
REMARK    1  A    between atoms: C_1  and  C_2
REMARK    2  A    between atoms: C_7  and  C_8
REMARK    3  A    between atoms: C_11  and  C_12
REMARK    4  A    between atoms: C_13  and  C_14
REMARK    5  A    between atoms: C_13  and  C_15
REMARK    6  A    between atoms: C_15  and  C_16
REMARK    7  A    between atoms: C_21  and  N_22
REMARK    8  A    between atoms: N_22  and  C_23
REMARK    9  A    between atoms: C_23  and  C_24
REMARK                            x       y       z     vdW  Elec       q    Type
REMARK                         _______ _______ _______ _____ _____    ______ ____
ROOT
ATOM      1  C   UNL     1      -1.523  12.093  21.287  0.00  0.00    +0.000 C 
ATOM      2  C   UNL     1      -1.389  11.385  22.412  0.00  0.00    +0.000 C 
ATOM      3  C   UNL     1      -0.258  10.453  22.618  0.00  0.00    +0.000 C 
ATOM      4  O   UNL     1      -0.105   9.900  23.700  0.00  0.00    +0.000 OA
ATOM      5  C   UNL     1       0.670  10.239  21.504  0.00  0.00    +0.000 C 
ATOM      6  C   UNL     1       0.524  10.824  20.313  0.00  0.00    +0.000 C 
ATOM      7  C   UNL     1      -0.592  11.827  20.118  0.00  0.00    +0.000 C 
ATOM      8  O   UNL     1      -0.723  12.384  19.028  0.00  0.00    +0.000 OA
ENDROOT
BRANCH   6   9
ATOM      9  N   UNL     1       1.311  10.471  19.211  0.00  0.00    +0.000 N 
ATOM     10  H   UNL     1       2.255  10.276  19.549  0.00  0.00    +0.000 HD
BRANCH   9  11
ATOM     11  C   UNL     1       0.939   9.366  18.325  0.00  0.00    +0.000 C 
BRANCH  11  12
ATOM     12  C   UNL     1       1.974   8.273  18.456  0.00  0.00    +0.000 A 
ATOM     13  C   UNL     1       2.947   8.074  17.463  0.00  0.00    +0.000 A 
ATOM     14  C   UNL     1       3.850   7.012  17.559  0.00  0.00    +0.000 A 
ATOM     15  C   UNL     1       3.785   6.135  18.640  0.00  0.00    +0.000 A 
ATOM     16  C   UNL     1       2.827   6.325  19.633  0.00  0.00    +0.000 A 
ATOM     17  C   UNL     1       1.927   7.387  19.542  0.00  0.00    +0.000 A 
ENDBRANCH  11  12
ENDBRANCH   9  11
ENDBRANCH   6   9
BRANCH   1  18
ATOM     18  C   UNL     1      -2.495  13.237  21.126  0.00  0.00    +0.000 C 
BRANCH  18  31
ATOM     19  C   UNL     1      -7.162  10.201  20.244  0.00  0.00    +0.000 C 
ATOM     20  C   UNL     1      -6.941  11.433  19.388  0.00  0.00    +0.000 C 
ATOM     21  C   UNL     1      -6.439  11.229  18.142  0.00  0.00    +0.000 C 
ATOM     22  C   UNL     1      -4.940  10.977  18.094  0.00  0.00    +0.000 C 
ATOM     23  C   UNL     1      -4.164  12.079  18.855  0.00  0.00    +0.000 C 
ATOM     24  C   UNL     1      -4.838  12.390  20.213  0.00  0.00    +0.000 C 
ATOM     25  C   UNL     1      -6.403  12.701  20.125  0.00  0.00    +0.000 C 
ATOM     26  C   UNL     1      -6.818  13.923  19.244  0.00  0.00    +0.000 C 
ATOM     27  C   UNL     1      -7.074  12.962  21.534  0.00  0.00    +0.000 C 
ATOM     28  C   UNL     1      -6.167  13.279  22.744  0.00  0.00    +0.000 C 
ATOM     29  C   UNL     1      -4.737  12.725  22.608  0.00  0.00    +0.000 C 
ATOM     30  C   UNL     1      -3.975  12.768  23.926  0.00  0.00    +0.000 C 
ATOM     31  C   UNL     1      -4.071  13.260  21.267  0.00  0.00    +0.000 C 
ATOM     32  C   UNL     1      -4.351  14.783  21.033  0.00  0.00    +0.000 C 
ENDBRANCH  18  31
ENDBRANCH   1  18
TORSDOF 5
ENDMDL
MODEL 5
REMARK VINA RESULT:      -8.0      1.220      1.740
REMARK  Name = 
REMARK  9 active torsions:
REMARK  status: ('A' for Active; 'I' for Inactive)
REMARK    1  A    between atoms: C_1  and  C_2
REMARK    2  A    between atoms: C_7  and  C_8
REMARK    3  A    between atoms: C_11  and  C_12
REMARK    4  A    between atoms: C_13  and  C_14
REMARK    5  A    between atoms: C_13  and  C_15
REMARK    6  A    between atoms: C_15  and  C_16
REMARK    7  A    between atoms: C_21  and  N_22
REMARK    8  A    between atoms: N_22  and  C_23
REMARK    9  A    between atoms: C_23  and  C_24
REMARK                            x       y       z     vdW  Elec       q    Type
REMARK                         _______ _______ _______ _____ _____    ______ ____
ROOT
ATOM      1  C   UNL     1       1.742   7.878  19.217  0.00  0.00    +0.000 C 
ATOM      2  C   UNL     1       1.679   7.858  20.552  0.00  0.00    +0.000 C 
ATOM      3  C   UNL     1       1.214   9.029  21.328  0.00  0.00    +0.000 C 
ATOM      4  O   UNL     1       1.066   8.945  22.541  0.00  0.00    +0.000 OA
ATOM      5  C   UNL     1       0.921  10.267  20.600  0.00  0.00    +0.000 C 
ATOM      6  C   UNL     1       1.079  10.388  19.279  0.00  0.00    +0.000 C 
ATOM      7  C   UNL     1       1.490   9.176  18.473  0.00  0.00    +0.000 C 
ATOM      8  O   UNL     1       1.622   9.276  17.253  0.00  0.00    +0.000 OA
ENDROOT
BRANCH   6   9
ATOM      9  N   UNL     1       0.968  11.622  18.629  0.00  0.00    +0.000 N 
ATOM     10  H   UNL     1       1.522  11.577  17.771  0.00  0.00    +0.000 HD
BRANCH   9  11
ATOM     11  C   UNL     1      -0.334  12.184  18.266  0.00  0.00    +0.000 C 
BRANCH  11  12
ATOM     12  C   UNL     1      -0.574  13.425  19.094  0.00  0.00    +0.000 A 
ATOM     13  C   UNL     1      -0.077  14.674  18.686  0.00  0.00    +0.000 A 
ATOM     14  C   UNL     1      -0.240  15.800  19.498  0.00  0.00    +0.000 A 
ATOM     15  C   UNL     1      -0.891  15.688  20.725  0.00  0.00    +0.000 A 
ATOM     16  C   UNL     1      -1.393  14.456  21.137  0.00  0.00    +0.000 A 
ATOM     17  C   UNL     1      -1.235  13.331  20.327  0.00  0.00    +0.000 A 
ENDBRANCH  11  12
ENDBRANCH   9  11
ENDBRANCH   6   9
BRANCH   1  18
ATOM     18  C   UNL     1       1.954   6.646  18.368  0.00  0.00    +0.000 C 
BRANCH  18  31
ATOM     19  C   UNL     1       7.363   5.544  19.516  0.00  0.00    +0.000 C 
ATOM     20  C   UNL     1       6.867   5.290  18.105  0.00  0.00    +0.000 C 
ATOM     21  C   UNL     1       7.143   6.246  17.179  0.00  0.00    +0.000 C 
ATOM     22  C   UNL     1       6.235   7.465  17.235  0.00  0.00    +0.000 C 
ATOM     23  C   UNL     1       4.744   7.052  17.211  0.00  0.00    +0.000 C 
ATOM     24  C   UNL     1       4.483   5.868  18.173  0.00  0.00    +0.000 C 
ATOM     25  C   UNL     1       5.462   4.620  17.974  0.00  0.00    +0.000 C 
ATOM     26  C   UNL     1       5.436   3.937  16.569  0.00  0.00    +0.000 C 
ATOM     27  C   UNL     1       5.207   3.448  19.006  0.00  0.00    +0.000 C 
ATOM     28  C   UNL     1       3.877   3.424  19.793  0.00  0.00    +0.000 C 
ATOM     29  C   UNL     1       3.225   4.811  19.951  0.00  0.00    +0.000 C 
ATOM     30  C   UNL     1       2.109   4.808  20.986  0.00  0.00    +0.000 C 
ATOM     31  C   UNL     1       3.007   5.475  18.522  0.00  0.00    +0.000 C 
ATOM     32  C   UNL     1       2.447   4.455  17.475  0.00  0.00    +0.000 C 
ENDBRANCH  18  31
ENDBRANCH   1  18
TORSDOF 5
ENDMDL
MODEL 6
REMARK VINA RESULT:      -7.9      4.603     10.050
REMARK  Name = 
REMARK  9 active torsions:
REMARK  status: ('A' for Active; 'I' for Inactive)
REMARK    1  A    between atoms: C_1  and  C_2
REMARK    2  A    between atoms: C_7  and  C_8
REMARK    3  A    between atoms: C_11  and  C_12
REMARK    4  A    between atoms: C_13  and  C_14
REMARK    5  A    between atoms: C_13  and  C_15
REMARK    6  A    between atoms: C_15  and  C_16
REMARK    7  A    between atoms: C_21  and  N_22
REMARK    8  A    between atoms: N_22  and  C_23
REMARK    9  A    between atoms: C_23  and  C_24
REMARK                            x       y       z     vdW  Elec       q    Type
REMARK                         _______ _______ _______ _____ _____    ______ ____
ROOT
ATOM      1  C   UNL     1      -0.908  11.259  21.135  0.00  0.00    +0.000 C 
ATOM      2  C   UNL     1      -0.731  10.871  22.402  0.00  0.00    +0.000 C 
ATOM      3  C   UNL     1       0.240   9.815  22.766  0.00  0.00    +0.000 C 
ATOM      4  O   UNL     1       0.457   9.557  23.943  0.00  0.00    +0.000 OA
ATOM      5  C   UNL     1       0.937   9.117  21.682  0.00  0.00    +0.000 C 
ATOM      6  C   UNL     1       0.716   9.374  20.391  0.00  0.00    +0.000 C 
ATOM      7  C   UNL     1      -0.225  10.497  20.015  0.00  0.00    +0.000 C 
ATOM      8  O   UNL     1      -0.421  10.751  18.826  0.00  0.00    +0.000 OA
ENDROOT
BRANCH   6   9
ATOM      9  N   UNL     1       1.254   8.578  19.373  0.00  0.00    +0.000 N 
ATOM     10  H   UNL     1       1.442   9.180  18.569  0.00  0.00    +0.000 HD
BRANCH   9  11
ATOM     11  C   UNL     1       2.454   7.767  19.587  0.00  0.00    +0.000 C 
BRANCH  11  12
ATOM     12  C   UNL     1       2.089   6.310  19.425  0.00  0.00    +0.000 A 
ATOM     13  C   UNL     1       2.093   5.699  18.161  0.00  0.00    +0.000 A 
ATOM     14  C   UNL     1       1.680   4.372  18.014  0.00  0.00    +0.000 A 
ATOM     15  C   UNL     1       1.251   3.647  19.125  0.00  0.00    +0.000 A 
ATOM     16  C   UNL     1       1.248   4.241  20.385  0.00  0.00    +0.000 A 
ATOM     17  C   UNL     1       1.663   5.564  20.534  0.00  0.00    +0.000 A 
ENDBRANCH  11  12
ENDBRANCH   9  11
ENDBRANCH   6   9
BRANCH   1  18
ATOM     18  C   UNL     1      -1.681  12.494  20.736  0.00  0.00    +0.000 C 
BRANCH  18  31
ATOM     19  C   UNL     1      -6.949  10.568  20.173  0.00  0.00    +0.000 C 
ATOM     20  C   UNL     1      -6.515  11.724  19.293  0.00  0.00    +0.000 C 
ATOM     21  C   UNL     1      -6.149  11.420  18.020  0.00  0.00    +0.000 C 
ATOM     22  C   UNL     1      -4.749  10.843  17.883  0.00  0.00    +0.000 C 
ATOM     23  C   UNL     1      -3.703  11.743  18.584  0.00  0.00    +0.000 C 
ATOM     24  C   UNL     1      -4.205  12.190  19.977  0.00  0.00    +0.000 C 
ATOM     25  C   UNL     1      -5.665  12.839  19.983  0.00  0.00    +0.000 C 
ATOM     26  C   UNL     1      -5.854  14.126  19.118  0.00  0.00    +0.000 C 
ATOM     27  C   UNL     1      -6.173  13.236  21.428  0.00  0.00    +0.000 C 
ATOM     28  C   UNL     1      -5.145  13.340  22.577  0.00  0.00    +0.000 C 
ATOM     29  C   UNL     1      -3.883  12.483  22.359  0.00  0.00    +0.000 C 
ATOM     30  C   UNL     1      -3.051  12.351  23.626  0.00  0.00    +0.000 C 
ATOM     31  C   UNL     1      -3.201  12.863  20.974  0.00  0.00    +0.000 C 
ATOM     32  C   UNL     1      -3.152  14.412  20.744  0.00  0.00    +0.000 C 
ENDBRANCH  18  31
ENDBRANCH   1  18
TORSDOF 5
ENDMDL
MODEL 7
REMARK VINA RESULT:      -7.8      1.834      2.467
REMARK  Name = 
REMARK  9 active torsions:
REMARK  status: ('A' for Active; 'I' for Inactive)
REMARK    1  A    between atoms: C_1  and  C_2
REMARK    2  A    between atoms: C_7  and  C_8
REMARK    3  A    between atoms: C_11  and  C_12
REMARK    4  A    between atoms: C_13  and  C_14
REMARK    5  A    between atoms: C_13  and  C_15
REMARK    6  A    between atoms: C_15  and  C_16
REMARK    7  A    between atoms: C_21  and  N_22
REMARK    8  A    between atoms: N_22  and  C_23
REMARK    9  A    between atoms: C_23  and  C_24
REMARK                            x       y       z     vdW  Elec       q    Type
REMARK                         _______ _______ _______ _____ _____    ______ ____
ROOT
ATOM      1  C   UNL     1       1.690   8.097  19.352  0.00  0.00    +0.000 C 
ATOM      2  C   UNL     1       1.525   7.997  20.674  0.00  0.00    +0.000 C 
ATOM      3  C   UNL     1       1.091   9.150  21.496  0.00  0.00    +0.000 C 
ATOM      4  O   UNL     1       0.847   9.000  22.686  0.00  0.00    +0.000 OA
ATOM      5  C   UNL     1       0.945  10.450  20.836  0.00  0.00    +0.000 C 
ATOM      6  C   UNL     1       1.210  10.643  19.541  0.00  0.00    +0.000 C 
ATOM      7  C   UNL     1       1.590   9.456  18.684  0.00  0.00    +0.000 C 
ATOM      8  O   UNL     1       1.820   9.623  17.486  0.00  0.00    +0.000 OA
ENDROOT
BRANCH   6   9
ATOM      9  N   UNL     1       1.239  11.921  18.972  0.00  0.00    +0.000 N 
ATOM     10  H   UNL     1       2.122  12.021  18.468  0.00  0.00    +0.000 HD
BRANCH   9  11
ATOM     11  C   UNL     1       0.181  12.385  18.073  0.00  0.00    +0.000 C 
BRANCH  11  12
ATOM     12  C   UNL     1      -1.115  12.453  18.846  0.00  0.00    +0.000 A 
ATOM     13  C   UNL     1      -2.253  11.751  18.416  0.00  0.00    +0.000 A 
ATOM     14  C   UNL     1      -3.467  11.883  19.096  0.00  0.00    +0.000 A 
ATOM     15  C   UNL     1      -3.557  12.721  20.207  0.00  0.00    +0.000 A 
ATOM     16  C   UNL     1      -2.434  13.417  20.646  0.00  0.00    +0.000 A 
ATOM     17  C   UNL     1      -1.221  13.285  19.970  0.00  0.00    +0.000 A 
ENDBRANCH  11  12
ENDBRANCH   9  11
ENDBRANCH   6   9
BRANCH   1  18
ATOM     18  C   UNL     1       1.874   6.910  18.437  0.00  0.00    +0.000 C 
BRANCH  18  31
ATOM     19  C   UNL     1       7.203   5.406  19.492  0.00  0.00    +0.000 C 
ATOM     20  C   UNL     1       6.667   5.193  18.090  0.00  0.00    +0.000 C 
ATOM     21  C   UNL     1       6.998   6.129  17.161  0.00  0.00    +0.000 C 
ATOM     22  C   UNL     1       6.184   7.412  17.234  0.00  0.00    +0.000 C 
ATOM     23  C   UNL     1       4.666   7.111  17.234  0.00  0.00    +0.000 C 
ATOM     24  C   UNL     1       4.334   5.947  18.198  0.00  0.00    +0.000 C 
ATOM     25  C   UNL     1       5.214   4.630  17.981  0.00  0.00    +0.000 C 
ATOM     26  C   UNL     1       5.115   3.955  16.575  0.00  0.00    +0.000 C 
ATOM     27  C   UNL     1       4.890   3.477  19.015  0.00  0.00    +0.000 C 
ATOM     28  C   UNL     1       3.575   3.550  19.824  0.00  0.00    +0.000 C 
ATOM     29  C   UNL     1       3.031   4.981  19.994  0.00  0.00    +0.000 C 
ATOM     30  C   UNL     1       1.935   5.057  21.048  0.00  0.00    +0.000 C 
ATOM     31  C   UNL     1       2.839   5.663  18.571  0.00  0.00    +0.000 C 
ATOM     32  C   UNL     1       2.187   4.691  17.531  0.00  0.00    +0.000 C 
ENDBRANCH  18  31
ENDBRANCH   1  18
TORSDOF 5
ENDMDL
MODEL 8
REMARK VINA RESULT:      -7.7      2.823      9.983
REMARK  Name = 
REMARK  9 active torsions:
REMARK  status: ('A' for Active; 'I' for Inactive)
REMARK    1  A    between atoms: C_1  and  C_2
REMARK    2  A    between atoms: C_7  and  C_8
REMARK    3  A    between atoms: C_11  and  C_12
REMARK    4  A    between atoms: C_13  and  C_14
REMARK    5  A    between atoms: C_13  and  C_15
REMARK    6  A    between atoms: C_15  and  C_16
REMARK    7  A    between atoms: C_21  and  N_22
REMARK    8  A    between atoms: N_22  and  C_23
REMARK    9  A    between atoms: C_23  and  C_24
REMARK                            x       y       z     vdW  Elec       q    Type
REMARK                         _______ _______ _______ _____ _____    ______ ____
ROOT
ATOM      1  C   UNL     1       0.150  10.994  20.347  0.00  0.00    +0.000 C 
ATOM      2  C   UNL     1      -0.026  10.802  21.658  0.00  0.00    +0.000 C 
ATOM      3  C   UNL     1       0.557   9.638  22.360  0.00  0.00    +0.000 C 
ATOM      4  O   UNL     1       0.469   9.546  23.578  0.00  0.00    +0.000 OA
ATOM      5  C   UNL     1       1.253   8.627  21.559  0.00  0.00    +0.000 C 
ATOM      6  C   UNL     1       1.359   8.699  20.230  0.00  0.00    +0.000 C 
ATOM      7  C   UNL     1       0.823   9.920  19.514  0.00  0.00    +0.000 C 
ATOM      8  O   UNL     1       0.932  10.001  18.291  0.00  0.00    +0.000 OA
ENDROOT
BRANCH   6   9
ATOM      9  N   UNL     1       1.866   7.641  19.467  0.00  0.00    +0.000 N 
ATOM     10  H   UNL     1       2.416   8.039  18.703  0.00  0.00    +0.000 HD
BRANCH   9  11
ATOM     11  C   UNL     1       2.680   6.583  20.069  0.00  0.00    +0.000 C 
BRANCH  11  12
ATOM     12  C   UNL     1       2.098   5.244  19.678  0.00  0.00    +0.000 A 
ATOM     13  C   UNL     1       2.061   4.836  18.334  0.00  0.00    +0.000 A 
ATOM     14  C   UNL     1       1.452   3.630  17.977  0.00  0.00    +0.000 A 
ATOM     15  C   UNL     1       0.868   2.826  18.955  0.00  0.00    +0.000 A 
ATOM     16  C   UNL     1       0.904   3.218  20.290  0.00  0.00    +0.000 A 
ATOM     17  C   UNL     1       1.514   4.419  20.650  0.00  0.00    +0.000 A 
ENDBRANCH  11  12
ENDBRANCH   9  11
ENDBRANCH   6   9
BRANCH   1  18
ATOM     18  C   UNL     1      -0.193  12.281  19.634  0.00  0.00    +0.000 C 
BRANCH  18  31
ATOM     19  C   UNL     1      -1.254  15.728  23.967  0.00  0.00    +0.000 C 
ATOM     20  C   UNL     1      -2.053  15.919  22.693  0.00  0.00    +0.000 C 
ATOM     21  C   UNL     1      -3.302  15.383  22.669  0.00  0.00    +0.000 C 
ATOM     22  C   UNL     1      -3.345  13.883  22.423  0.00  0.00    +0.000 C 
ATOM     23  C   UNL     1      -2.529  13.499  21.166  0.00  0.00    +0.000 C 
ATOM     24  C   UNL     1      -1.166  14.231  21.148  0.00  0.00    +0.000 C 
ATOM     25  C   UNL     1      -1.257  15.814  21.353  0.00  0.00    +0.000 C 
ATOM     26  C   UNL     1      -2.088  16.604  20.292  0.00  0.00    +0.000 C 
ATOM     27  C   UNL     1       0.156  16.527  21.384  0.00  0.00    +0.000 C 
ATOM     28  C   UNL     1       1.388  15.765  20.847  0.00  0.00    +0.000 C 
ATOM     29  C   UNL     1       1.243  14.233  20.905  0.00  0.00    +0.000 C 
ATOM     30  C   UNL     1       2.568  13.520  20.678  0.00  0.00    +0.000 C 
ATOM     31  C   UNL     1      -0.067  13.780  20.126  0.00  0.00    +0.000 C 
ATOM     32  C   UNL     1      -0.237  14.537  18.765  0.00  0.00    +0.000 C 
ENDBRANCH  18  31
ENDBRANCH   1  18
TORSDOF 5
ENDMDL
MODEL 9
REMARK VINA RESULT:      -7.7      5.192     10.559
REMARK  Name = 
REMARK  9 active torsions:
REMARK  status: ('A' for Active; 'I' for Inactive)
REMARK    1  A    between atoms: C_1  and  C_2
REMARK    2  A    between atoms: C_7  and  C_8
REMARK    3  A    between atoms: C_11  and  C_12
REMARK    4  A    between atoms: C_13  and  C_14
REMARK    5  A    between atoms: C_13  and  C_15
REMARK    6  A    between atoms: C_15  and  C_16
REMARK    7  A    between atoms: C_21  and  N_22
REMARK    8  A    between atoms: N_22  and  C_23
REMARK    9  A    between atoms: C_23  and  C_24
REMARK                            x       y       z     vdW  Elec       q    Type
REMARK                         _______ _______ _______ _____ _____    ______ ____
ROOT
ATOM      1  C   UNL     1      -1.906  12.465  19.655  0.00  0.00    +0.000 C 
ATOM      2  C   UNL     1      -2.755  11.824  18.846  0.00  0.00    +0.000 C 
ATOM      3  C   UNL     1      -2.370  10.583  18.138  0.00  0.00    +0.000 C 
ATOM      4  O   UNL     1      -3.202   9.961  17.488  0.00  0.00    +0.000 OA
ATOM      5  C   UNL     1      -0.984  10.121  18.259  0.00  0.00    +0.000 C 
ATOM      6  C   UNL     1      -0.055  10.782  18.955  0.00  0.00    +0.000 C 
ATOM      7  C   UNL     1      -0.459  12.014  19.734  0.00  0.00    +0.000 C 
ATOM      8  O   UNL     1       0.388  12.619  20.392  0.00  0.00    +0.000 OA
ENDROOT
BRANCH   6   9
ATOM      9  N   UNL     1       1.297  10.426  18.911  0.00  0.00    +0.000 N 
ATOM     10  H   UNL     1       1.519   9.927  19.775  0.00  0.00    +0.000 HD
BRANCH   9  11
ATOM     11  C   UNL     1       1.847   9.635  17.809  0.00  0.00    +0.000 C 
BRANCH  11  12
ATOM     12  C   UNL     1       2.357   8.325  18.362  0.00  0.00    +0.000 A 
ATOM     13  C   UNL     1       3.267   7.537  17.637  0.00  0.00    +0.000 A 
ATOM     14  C   UNL     1       3.673   6.292  18.125  0.00  0.00    +0.000 A 
ATOM     15  C   UNL     1       3.168   5.819  19.336  0.00  0.00    +0.000 A 
ATOM     16  C   UNL     1       2.270   6.593  20.066  0.00  0.00    +0.000 A 
ATOM     17  C   UNL     1       1.866   7.838  19.583  0.00  0.00    +0.000 A 
ENDBRANCH  11  12
ENDBRANCH   9  11
ENDBRANCH   6   9
BRANCH   1  18
ATOM     18  C   UNL     1      -2.318  13.572  20.597  0.00  0.00    +0.000 C 
BRANCH  18  31
ATOM     19  C   UNL     1      -7.409  11.773  22.215  0.00  0.00    +0.000 C 
ATOM     20  C   UNL     1      -7.198  13.266  22.058  0.00  0.00    +0.000 C 
ATOM     21  C   UNL     1      -7.641  13.828  20.903  0.00  0.00    +0.000 C 
ATOM     22  C   UNL     1      -6.731  13.614  19.703  0.00  0.00    +0.000 C 
ATOM     23  C   UNL     1      -5.275  14.030  20.025  0.00  0.00    +0.000 C 
ATOM     24  C   UNL     1      -4.842  13.493  21.410  0.00  0.00    +0.000 C 
ATOM     25  C   UNL     1      -5.849  13.836  22.603  0.00  0.00    +0.000 C 
ATOM     26  C   UNL     1      -6.100  15.353  22.882  0.00  0.00    +0.000 C 
ATOM     27  C   UNL     1      -5.407  13.228  23.995  0.00  0.00    +0.000 C 
ATOM     28  C   UNL     1      -3.950  12.742  24.168  0.00  0.00    +0.000 C 
ATOM     29  C   UNL     1      -3.271  12.339  22.845  0.00  0.00    +0.000 C 
ATOM     30  C   UNL     1      -1.976  11.573  23.074  0.00  0.00    +0.000 C 
ATOM     31  C   UNL     1      -3.329  13.547  21.814  0.00  0.00    +0.000 C 
ATOM     32  C   UNL     1      -2.988  14.919  22.489  0.00  0.00    +0.000 C 
ENDBRANCH  18  31
ENDBRANCH   1  18
TORSDOF 5
ENDMDL
