MODEL 1
REMARK VINA RESULT:      -6.6      0.000      0.000
REMARK  Name = 
REMARK  15 active torsions:
REMARK  status: ('A' for Active; 'I' for Inactive)
REMARK    1  A    between atoms: C_1  and  C_2
REMARK    2  A    between atoms: C_2  and  O_4
REMARK    3  A    between atoms: O_4  and  C_5
REMARK    4  A    between atoms: C_5  and  C_6
REMARK    5  A    between atoms: C_6  and  C_7
REMARK    6  A    between atoms: C_6  and  C_8
REMARK    7  A    between atoms: C_8  and  C_9
REMARK    8  A    between atoms: C_9  and  C_10
REMARK    9  A    between atoms: C_10  and  C_11
REMARK   10  A    between atoms: C_11  and  C_12
REMARK   11  A    between atoms: C_11  and  O_13
REMARK   12  A    between atoms: C_11  and  C_14
REMARK   13  A    between atoms: C_17  and  C_18
REMARK   14  A    between atoms: C_18  and  O_20
REMARK   15  A    between atoms: C_22  and  O_23
REMARK                            x       y       z     vdW  Elec       q    Type
REMARK                         _______ _______ _______ _____ _____    ______ ____
ROOT
ATOM      1  C   UNL     1       5.253   5.802  17.920  0.00  0.00    +0.000 C 
ATOM      2  C   UNL     1       6.034   5.139  19.068  0.00  0.00    +0.000 C 
ENDROOT
BRANCH   1   3
ATOM      3  C   UNL     1       5.668   5.228  16.549  0.00  0.00    +0.000 A 
ATOM      4  C   UNL     1       4.856   4.286  15.886  0.00  0.00    +0.000 A 
ATOM      5  C   UNL     1       5.170   3.815  14.607  0.00  0.00    +0.000 A 
ATOM      6  C   UNL     1       6.320   4.254  13.950  0.00  0.00    +0.000 A 
ATOM      7  C   UNL     1       7.173   5.154  14.598  0.00  0.00    +0.000 A 
ATOM      8  C   UNL     1       6.843   5.621  15.880  0.00  0.00    +0.000 A 
BRANCH   6   9
ATOM      9  C   UNL     1       6.605   3.672  12.611  0.00  0.00    +0.000 C 
ATOM     10  O   UNL     1       7.312   4.239  11.794  0.00  0.00    +0.000 OA
BRANCH   9  11
ATOM     11  O   UNL     1       6.053   2.464  12.382  0.00  0.00    +0.000 OA
ATOM     12  H   UNL     1       6.577   1.691  12.651  0.00  0.00    +0.000 HD
ENDBRANCH   9  11
ENDBRANCH   6   9
BRANCH   8  13
ATOM     13  O   UNL     1       7.693   6.496  16.510  0.00  0.00    +0.000 OA
ATOM     14  H   UNL     1       8.168   6.037  17.223  0.00  0.00    +0.000 HD
ENDBRANCH   8  13
ENDBRANCH   1   3
BRANCH   1  15
ATOM     15  O   UNL     1       5.557   7.203  18.008  0.00  0.00    +0.000 OA
ATOM     16  H   UNL     1       6.480   7.258  18.330  0.00  0.00    +0.000 HD
ENDBRANCH   1  15
BRANCH   1  17
ATOM     17  C   UNL     1       3.733   5.686  18.219  0.00  0.00    +0.000 C 
BRANCH  17  18
ATOM     18  C   UNL     1       3.442   5.252  19.662  0.00  0.00    +0.000 C 
BRANCH  18  19
ATOM     19  C   UNL     1       1.970   5.445  20.025  0.00  0.00    +0.000 C 
BRANCH  19  20
ATOM     20  C   UNL     1       1.345   4.185  20.662  0.00  0.00    +0.000 C 
ATOM     21  C   UNL     1       2.254   3.552  21.718  0.00  0.00    +0.000 C 
BRANCH  20  22
ATOM     22  C   UNL     1       0.996   3.153  19.579  0.00  0.00    +0.000 C 
BRANCH  22  23
ATOM     23  O   UNL     1       1.813   1.976  19.690  0.00  0.00    +0.000 OA
BRANCH  23  25
ATOM     24  C   UNL     1       2.260   2.470  17.444  0.00  0.00    +0.000 C 
ATOM     25  C   UNL     1       2.737   1.819  18.708  0.00  0.00    +0.000 C 
ATOM     26  O   UNL     1       3.796   1.221  18.811  0.00  0.00    +0.000 OA
ENDBRANCH  23  25
ENDBRANCH  22  23
ENDBRANCH  20  22
ENDBRANCH  19  20
ENDBRANCH  18  19
ENDBRANCH  17  18
ENDBRANCH   1  17
TORSDOF 12
ENDMDL
MODEL 2
REMARK VINA RESULT:      -6.6      1.383      2.536
REMARK  Name = 
REMARK  15 active torsions:
REMARK  status: ('A' for Active; 'I' for Inactive)
REMARK    1  A    between atoms: C_1  and  C_2
REMARK    2  A    between atoms: C_2  and  O_4
REMARK    3  A    between atoms: O_4  and  C_5
REMARK    4  A    between atoms: C_5  and  C_6
REMARK    5  A    between atoms: C_6  and  C_7
REMARK    6  A    between atoms: C_6  and  C_8
REMARK    7  A    between atoms: C_8  and  C_9
REMARK    8  A    between atoms: C_9  and  C_10
REMARK    9  A    between atoms: C_10  and  C_11
REMARK   10  A    between atoms: C_11  and  C_12
REMARK   11  A    between atoms: C_11  and  O_13
REMARK   12  A    between atoms: C_11  and  C_14
REMARK   13  A    between atoms: C_17  and  C_18
REMARK   14  A    between atoms: C_18  and  O_20
REMARK   15  A    between atoms: C_22  and  O_23
REMARK                            x       y       z     vdW  Elec       q    Type
REMARK                         _______ _______ _______ _____ _____    ______ ____
ROOT
ATOM      1  C   UNL     1       6.893   5.636  16.706  0.00  0.00    +0.000 C 
ATOM      2  C   UNL     1       7.738   4.748  17.635  0.00  0.00    +0.000 C 
ENDROOT
BRANCH   1   3
ATOM      3  C   UNL     1       6.502   4.890  15.414  0.00  0.00    +0.000 A 
ATOM      4  C   UNL     1       5.347   4.084  15.368  0.00  0.00    +0.000 A 
ATOM      5  C   UNL     1       4.929   3.465  14.185  0.00  0.00    +0.000 A 
ATOM      6  C   UNL     1       5.661   3.615  13.006  0.00  0.00    +0.000 A 
ATOM      7  C   UNL     1       6.838   4.370  13.027  0.00  0.00    +0.000 A 
ATOM      8  C   UNL     1       7.244   4.989  14.220  0.00  0.00    +0.000 A 
BRANCH   6   9
ATOM      9  C   UNL     1       5.172   2.889  11.803  0.00  0.00    +0.000 C 
ATOM     10  O   UNL     1       4.212   3.275  11.158  0.00  0.00    +0.000 OA
BRANCH   9  11
ATOM     11  O   UNL     1       5.886   1.797  11.462  0.00  0.00    +0.000 OA
ATOM     12  H   UNL     1       5.513   0.938  11.721  0.00  0.00    +0.000 HD
ENDBRANCH   9  11
ENDBRANCH   6   9
BRANCH   8  13
ATOM     13  O   UNL     1       8.405   5.720  14.231  0.00  0.00    +0.000 OA
ATOM     14  H   UNL     1       8.518   6.145  15.098  0.00  0.00    +0.000 HD
ENDBRANCH   8  13
ENDBRANCH   1   3
BRANCH   1  15
ATOM     15  O   UNL     1       7.714   6.779  16.416  0.00  0.00    +0.000 OA
ATOM     16  H   UNL     1       7.662   6.907  15.447  0.00  0.00    +0.000 HD
ENDBRANCH   1  15
BRANCH   1  17
ATOM     17  C   UNL     1       5.683   6.187  17.508  0.00  0.00    +0.000 C 
BRANCH  17  18
ATOM     18  C   UNL     1       5.490   5.479  18.856  0.00  0.00    +0.000 C 
BRANCH  18  19
ATOM     19  C   UNL     1       4.026   5.112  19.098  0.00  0.00    +0.000 C 
BRANCH  19  20
ATOM     20  C   UNL     1       3.609   3.819  18.365  0.00  0.00    +0.000 C 
ATOM     21  C   UNL     1       2.396   4.029  17.455  0.00  0.00    +0.000 C 
BRANCH  20  22
ATOM     22  C   UNL     1       3.323   2.697  19.375  0.00  0.00    +0.000 C 
BRANCH  22  23
ATOM     23  O   UNL     1       1.912   2.481  19.536  0.00  0.00    +0.000 OA
BRANCH  23  25
ATOM     24  C   UNL     1       1.738   2.605  21.870  0.00  0.00    +0.000 C 
ATOM     25  C   UNL     1       1.332   3.180  20.545  0.00  0.00    +0.000 C 
ATOM     26  O   UNL     1       0.571   4.125  20.416  0.00  0.00    +0.000 OA
ENDBRANCH  23  25
ENDBRANCH  22  23
ENDBRANCH  20  22
ENDBRANCH  19  20
ENDBRANCH  18  19
ENDBRANCH  17  18
ENDBRANCH   1  17
TORSDOF 12
ENDMDL
MODEL 3
REMARK VINA RESULT:      -6.5      3.274      7.188
REMARK  Name = 
REMARK  15 active torsions:
REMARK  status: ('A' for Active; 'I' for Inactive)
REMARK    1  A    between atoms: C_1  and  C_2
REMARK    2  A    between atoms: C_2  and  O_4
REMARK    3  A    between atoms: O_4  and  C_5
REMARK    4  A    between atoms: C_5  and  C_6
REMARK    5  A    between atoms: C_6  and  C_7
REMARK    6  A    between atoms: C_6  and  C_8
REMARK    7  A    between atoms: C_8  and  C_9
REMARK    8  A    between atoms: C_9  and  C_10
REMARK    9  A    between atoms: C_10  and  C_11
REMARK   10  A    between atoms: C_11  and  C_12
REMARK   11  A    between atoms: C_11  and  O_13
REMARK   12  A    between atoms: C_11  and  C_14
REMARK   13  A    between atoms: C_17  and  C_18
REMARK   14  A    between atoms: C_18  and  O_20
REMARK   15  A    between atoms: C_22  and  O_23
REMARK                            x       y       z     vdW  Elec       q    Type
REMARK                         _______ _______ _______ _____ _____    ______ ____
ROOT
ATOM      1  C   UNL     1       3.189   5.626  18.708  0.00  0.00    +0.000 C 
ATOM      2  C   UNL     1       4.453   5.463  19.569  0.00  0.00    +0.000 C 
ENDROOT
BRANCH   1   3
ATOM      3  C   UNL     1       2.576   7.034  18.865  0.00  0.00    +0.000 A 
ATOM      4  C   UNL     1       2.631   7.966  17.810  0.00  0.00    +0.000 A 
ATOM      5  C   UNL     1       2.011   9.216  17.900  0.00  0.00    +0.000 A 
ATOM      6  C   UNL     1       1.328   9.590  19.059  0.00  0.00    +0.000 A 
ATOM      7  C   UNL     1       1.293   8.707  20.143  0.00  0.00    +0.000 A 
ATOM      8  C   UNL     1       1.917   7.453  20.037  0.00  0.00    +0.000 A 
BRANCH   6   9
ATOM      9  C   UNL     1       0.734  10.953  19.091  0.00  0.00    +0.000 C 
ATOM     10  O   UNL     1       0.932  11.726  20.013  0.00  0.00    +0.000 OA
BRANCH   9  11
ATOM     11  O   UNL     1      -0.010  11.280  18.015  0.00  0.00    +0.000 OA
ATOM     12  H   UNL     1      -0.860  10.820  17.921  0.00  0.00    +0.000 HD
ENDBRANCH   9  11
ENDBRANCH   6   9
BRANCH   8  13
ATOM     13  O   UNL     1       1.885   6.599  21.111  0.00  0.00    +0.000 OA
ATOM     14  H   UNL     1       1.093   6.037  21.059  0.00  0.00    +0.000 HD
ENDBRANCH   8  13
ENDBRANCH   1   3
BRANCH   1  15
ATOM     15  O   UNL     1       2.279   4.612  19.165  0.00  0.00    +0.000 OA
ATOM     16  H   UNL     1       2.164   4.768  20.124  0.00  0.00    +0.000 HD
ENDBRANCH   1  15
BRANCH   1  17
ATOM     17  C   UNL     1       3.532   5.247  17.241  0.00  0.00    +0.000 C 
BRANCH  17  18
ATOM     18  C   UNL     1       3.872   3.760  17.075  0.00  0.00    +0.000 C 
BRANCH  18  19
ATOM     19  C   UNL     1       5.262   3.562  16.471  0.00  0.00    +0.000 C 
BRANCH  19  20
ATOM     20  C   UNL     1       5.624   4.655  15.442  0.00  0.00    +0.000 C 
ATOM     21  C   UNL     1       5.781   4.097  14.026  0.00  0.00    +0.000 C 
BRANCH  20  22
ATOM     22  C   UNL     1       6.907   5.387  15.866  0.00  0.00    +0.000 C 
BRANCH  22  23
ATOM     23  O   UNL     1       7.554   4.721  16.963  0.00  0.00    +0.000 OA
BRANCH  23  25
ATOM     24  C   UNL     1       7.466   6.915  17.781  0.00  0.00    +0.000 C 
ATOM     25  C   UNL     1       7.691   5.465  18.090  0.00  0.00    +0.000 C 
ATOM     26  O   UNL     1       7.977   5.039  19.197  0.00  0.00    +0.000 OA
ENDBRANCH  23  25
ENDBRANCH  22  23
ENDBRANCH  20  22
ENDBRANCH  19  20
ENDBRANCH  18  19
ENDBRANCH  17  18
ENDBRANCH   1  17
TORSDOF 12
ENDMDL
MODEL 4
REMARK VINA RESULT:      -6.4      4.565      8.366
REMARK  Name = 
REMARK  15 active torsions:
REMARK  status: ('A' for Active; 'I' for Inactive)
REMARK    1  A    between atoms: C_1  and  C_2
REMARK    2  A    between atoms: C_2  and  O_4
REMARK    3  A    between atoms: O_4  and  C_5
REMARK    4  A    between atoms: C_5  and  C_6
REMARK    5  A    between atoms: C_6  and  C_7
REMARK    6  A    between atoms: C_6  and  C_8
REMARK    7  A    between atoms: C_8  and  C_9
REMARK    8  A    between atoms: C_9  and  C_10
REMARK    9  A    between atoms: C_10  and  C_11
REMARK   10  A    between atoms: C_11  and  C_12
REMARK   11  A    between atoms: C_11  and  O_13
REMARK   12  A    between atoms: C_11  and  C_14
REMARK   13  A    between atoms: C_17  and  C_18
REMARK   14  A    between atoms: C_18  and  O_20
REMARK   15  A    between atoms: C_22  and  O_23
REMARK                            x       y       z     vdW  Elec       q    Type
REMARK                         _______ _______ _______ _____ _____    ______ ____
ROOT
ATOM      1  C   UNL     1       7.065   5.969  17.903  0.00  0.00    +0.000 C 
ATOM      2  C   UNL     1       7.878   5.881  19.206  0.00  0.00    +0.000 C 
ENDROOT
BRANCH   1   3
ATOM      3  C   UNL     1       5.644   5.394  18.084  0.00  0.00    +0.000 A 
ATOM      4  C   UNL     1       5.062   5.300  19.363  0.00  0.00    +0.000 A 
ATOM      5  C   UNL     1       3.746   4.860  19.541  0.00  0.00    +0.000 A 
ATOM      6  C   UNL     1       2.969   4.479  18.447  0.00  0.00    +0.000 A 
ATOM      7  C   UNL     1       3.531   4.516  17.167  0.00  0.00    +0.000 A 
ATOM      8  C   UNL     1       4.852   4.964  17.002  0.00  0.00    +0.000 A 
BRANCH   6   9
ATOM      9  C   UNL     1       1.595   3.982  18.726  0.00  0.00    +0.000 C 
ATOM     10  O   UNL     1       0.952   3.353  17.901  0.00  0.00    +0.000 OA
BRANCH   9  11
ATOM     11  O   UNL     1       1.129   4.247  19.963  0.00  0.00    +0.000 OA
ATOM     12  H   UNL     1       0.248   4.654  20.015  0.00  0.00    +0.000 HD
ENDBRANCH   9  11
ENDBRANCH   6   9
BRANCH   8  13
ATOM     13  O   UNL     1       5.395   4.987  15.742  0.00  0.00    +0.000 OA
ATOM     14  H   UNL     1       4.847   4.458  15.138  0.00  0.00    +0.000 HD
ENDBRANCH   8  13
ENDBRANCH   1   3
BRANCH   1  15
ATOM     15  O   UNL     1       7.810   5.214  16.934  0.00  0.00    +0.000 OA
ATOM     16  H   UNL     1       8.516   4.758  17.434  0.00  0.00    +0.000 HD
ENDBRANCH   1  15
BRANCH   1  17
ATOM     17  C   UNL     1       7.092   7.437  17.397  0.00  0.00    +0.000 C 
BRANCH  17  18
ATOM     18  C   UNL     1       8.179   8.282  18.076  0.00  0.00    +0.000 C 
BRANCH  18  19
ATOM     19  C   UNL     1       8.058   9.760  17.710  0.00  0.00    +0.000 C 
BRANCH  19  20
ATOM     20  C   UNL     1       9.206  10.613  18.294  0.00  0.00    +0.000 C 
ATOM     21  C   UNL     1       9.500  10.274  19.757  0.00  0.00    +0.000 C 
BRANCH  20  22
ATOM     22  C   UNL     1       8.888  12.109  18.152  0.00  0.00    +0.000 C 
BRANCH  22  23
ATOM     23  O   UNL     1       9.793  12.756  17.241  0.00  0.00    +0.000 OA
BRANCH  23  25
ATOM     24  C   UNL     1      10.827  13.815  19.058  0.00  0.00    +0.000 C 
ATOM     25  C   UNL     1      11.004  13.080  17.762  0.00  0.00    +0.000 C 
ATOM     26  O   UNL     1      12.088  12.839  17.257  0.00  0.00    +0.000 OA
ENDBRANCH  23  25
ENDBRANCH  22  23
ENDBRANCH  20  22
ENDBRANCH  19  20
ENDBRANCH  18  19
ENDBRANCH  17  18
ENDBRANCH   1  17
TORSDOF 12
ENDMDL
MODEL 5
REMARK VINA RESULT:      -6.4      3.283      7.161
REMARK  Name = 
REMARK  15 active torsions:
REMARK  status: ('A' for Active; 'I' for Inactive)
REMARK    1  A    between atoms: C_1  and  C_2
REMARK    2  A    between atoms: C_2  and  O_4
REMARK    3  A    between atoms: O_4  and  C_5
REMARK    4  A    between atoms: C_5  and  C_6
REMARK    5  A    between atoms: C_6  and  C_7
REMARK    6  A    between atoms: C_6  and  C_8
REMARK    7  A    between atoms: C_8  and  C_9
REMARK    8  A    between atoms: C_9  and  C_10
REMARK    9  A    between atoms: C_10  and  C_11
REMARK   10  A    between atoms: C_11  and  C_12
REMARK   11  A    between atoms: C_11  and  O_13
REMARK   12  A    between atoms: C_11  and  C_14
REMARK   13  A    between atoms: C_17  and  C_18
REMARK   14  A    between atoms: C_18  and  O_20
REMARK   15  A    between atoms: C_22  and  O_23
REMARK                            x       y       z     vdW  Elec       q    Type
REMARK                         _______ _______ _______ _____ _____    ______ ____
ROOT
ATOM      1  C   UNL     1       3.063   5.637  18.629  0.00  0.00    +0.000 C 
ATOM      2  C   UNL     1       1.948   4.584  18.748  0.00  0.00    +0.000 C 
ENDROOT
BRANCH   1   3
ATOM      3  C   UNL     1       2.513   7.066  18.823  0.00  0.00    +0.000 A 
ATOM      4  C   UNL     1       2.573   8.009  17.778  0.00  0.00    +0.000 A 
ATOM      5  C   UNL     1       2.007   9.283  17.905  0.00  0.00    +0.000 A 
ATOM      6  C   UNL     1       1.377   9.667  19.089  0.00  0.00    +0.000 A 
ATOM      7  C   UNL     1       1.340   8.771  20.162  0.00  0.00    +0.000 A 
ATOM      8  C   UNL     1       1.908   7.495  20.021  0.00  0.00    +0.000 A 
BRANCH   6   9
ATOM      9  C   UNL     1       0.839  11.052  19.157  0.00  0.00    +0.000 C 
ATOM     10  O   UNL     1       1.533  12.029  18.929  0.00  0.00    +0.000 OA
BRANCH   9  11
ATOM     11  O   UNL     1      -0.472  11.145  19.456  0.00  0.00    +0.000 OA
ATOM     12  H   UNL     1      -0.961  11.872  19.035  0.00  0.00    +0.000 HD
ENDBRANCH   9  11
ENDBRANCH   6   9
BRANCH   8  13
ATOM     13  O   UNL     1       1.875   6.628  21.084  0.00  0.00    +0.000 OA
ATOM     14  H   UNL     1       1.243   5.912  20.903  0.00  0.00    +0.000 HD
ENDBRANCH   8  13
ENDBRANCH   1   3
BRANCH   1  15
ATOM     15  O   UNL     1       3.612   5.468  17.312  0.00  0.00    +0.000 OA
ATOM     16  H   UNL     1       3.298   6.234  16.790  0.00  0.00    +0.000 HD
ENDBRANCH   1  15
BRANCH   1  17
ATOM     17  C   UNL     1       4.208   5.263  19.608  0.00  0.00    +0.000 C 
BRANCH  17  18
ATOM     18  C   UNL     1       5.466   4.759  18.888  0.00  0.00    +0.000 C 
BRANCH  18  19
ATOM     19  C   UNL     1       6.724   5.475  19.378  0.00  0.00    +0.000 C 
BRANCH  19  20
ATOM     20  C   UNL     1       7.729   5.758  18.240  0.00  0.00    +0.000 C 
ATOM     21  C   UNL     1       7.649   7.200  17.735  0.00  0.00    +0.000 C 
BRANCH  20  22
ATOM     22  C   UNL     1       7.510   4.779  17.076  0.00  0.00    +0.000 C 
BRANCH  22  23
ATOM     23  O   UNL     1       7.482   5.462  15.812  0.00  0.00    +0.000 OA
BRANCH  23  25
ATOM     24  C   UNL     1       6.383   4.061  14.288  0.00  0.00    +0.000 C 
ATOM     25  C   UNL     1       6.333   5.319  15.103  0.00  0.00    +0.000 C 
ATOM     26  O   UNL     1       5.394   6.099  15.098  0.00  0.00    +0.000 OA
ENDBRANCH  23  25
ENDBRANCH  22  23
ENDBRANCH  20  22
ENDBRANCH  19  20
ENDBRANCH  18  19
ENDBRANCH  17  18
ENDBRANCH   1  17
TORSDOF 12
ENDMDL
MODEL 6
REMARK VINA RESULT:      -6.3      1.486      2.446
REMARK  Name = 
REMARK  15 active torsions:
REMARK  status: ('A' for Active; 'I' for Inactive)
REMARK    1  A    between atoms: C_1  and  C_2
REMARK    2  A    between atoms: C_2  and  O_4
REMARK    3  A    between atoms: O_4  and  C_5
REMARK    4  A    between atoms: C_5  and  C_6
REMARK    5  A    between atoms: C_6  and  C_7
REMARK    6  A    between atoms: C_6  and  C_8
REMARK    7  A    between atoms: C_8  and  C_9
REMARK    8  A    between atoms: C_9  and  C_10
REMARK    9  A    between atoms: C_10  and  C_11
REMARK   10  A    between atoms: C_11  and  C_12
REMARK   11  A    between atoms: C_11  and  O_13
REMARK   12  A    between atoms: C_11  and  C_14
REMARK   13  A    between atoms: C_17  and  C_18
REMARK   14  A    between atoms: C_18  and  O_20
REMARK   15  A    between atoms: C_22  and  O_23
REMARK                            x       y       z     vdW  Elec       q    Type
REMARK                         _______ _______ _______ _____ _____    ______ ____
ROOT
ATOM      1  C   UNL     1       6.370   6.434  17.833  0.00  0.00    +0.000 C 
ATOM      2  C   UNL     1       7.763   7.075  17.954  0.00  0.00    +0.000 C 
ENDROOT
BRANCH   1   3
ATOM      3  C   UNL     1       6.232   5.624  16.528  0.00  0.00    +0.000 A 
ATOM      4  C   UNL     1       5.298   5.997  15.542  0.00  0.00    +0.000 A 
ATOM      5  C   UNL     1       5.213   5.326  14.317  0.00  0.00    +0.000 A 
ATOM      6  C   UNL     1       6.049   4.244  14.039  0.00  0.00    +0.000 A 
ATOM      7  C   UNL     1       6.958   3.818  15.013  0.00  0.00    +0.000 A 
ATOM      8  C   UNL     1       7.034   4.502  16.237  0.00  0.00    +0.000 A 
BRANCH   6   9
ATOM      9  C   UNL     1       5.866   3.559  12.732  0.00  0.00    +0.000 C 
ATOM     10  O   UNL     1       4.763   3.366  12.249  0.00  0.00    +0.000 OA
BRANCH   9  11
ATOM     11  O   UNL     1       7.006   3.199  12.108  0.00  0.00    +0.000 OA
ATOM     12  H   UNL     1       7.128   3.533  11.204  0.00  0.00    +0.000 HD
ENDBRANCH   9  11
ENDBRANCH   6   9
BRANCH   8  13
ATOM     13  O   UNL     1       7.923   4.069  17.189  0.00  0.00    +0.000 OA
ATOM     14  H   UNL     1       7.466   3.494  17.827  0.00  0.00    +0.000 HD
ENDBRANCH   8  13
ENDBRANCH   1   3
BRANCH   1  15
ATOM     15  O   UNL     1       5.440   7.529  17.864  0.00  0.00    +0.000 OA
ATOM     16  H   UNL     1       5.965   8.332  17.670  0.00  0.00    +0.000 HD
ENDBRANCH   1  15
BRANCH   1  17
ATOM     17  C   UNL     1       6.086   5.612  19.120  0.00  0.00    +0.000 C 
BRANCH  17  18
ATOM     18  C   UNL     1       4.706   4.939  19.103  0.00  0.00    +0.000 C 
BRANCH  18  19
ATOM     19  C   UNL     1       4.820   3.415  19.090  0.00  0.00    +0.000 C 
BRANCH  19  20
ATOM     20  C   UNL     1       3.745   2.746  18.205  0.00  0.00    +0.000 C 
ATOM     21  C   UNL     1       3.202   3.691  17.131  0.00  0.00    +0.000 C 
BRANCH  20  22
ATOM     22  C   UNL     1       2.593   2.213  19.070  0.00  0.00    +0.000 C 
BRANCH  22  23
ATOM     23  O   UNL     1       2.891   2.326  20.471  0.00  0.00    +0.000 OA
BRANCH  23  25
ATOM     24  C   UNL     1       0.973   3.661  20.304  0.00  0.00    +0.000 C 
ATOM     25  C   UNL     1       1.963   2.989  21.208  0.00  0.00    +0.000 C 
ATOM     26  O   UNL     1       1.934   3.060  22.426  0.00  0.00    +0.000 OA
ENDBRANCH  23  25
ENDBRANCH  22  23
ENDBRANCH  20  22
ENDBRANCH  19  20
ENDBRANCH  18  19
ENDBRANCH  17  18
ENDBRANCH   1  17
TORSDOF 12
ENDMDL
MODEL 7
REMARK VINA RESULT:      -6.3      1.752      7.054
REMARK  Name = 
REMARK  15 active torsions:
REMARK  status: ('A' for Active; 'I' for Inactive)
REMARK    1  A    between atoms: C_1  and  C_2
REMARK    2  A    between atoms: C_2  and  O_4
REMARK    3  A    between atoms: O_4  and  C_5
REMARK    4  A    between atoms: C_5  and  C_6
REMARK    5  A    between atoms: C_6  and  C_7
REMARK    6  A    between atoms: C_6  and  C_8
REMARK    7  A    between atoms: C_8  and  C_9
REMARK    8  A    between atoms: C_9  and  C_10
REMARK    9  A    between atoms: C_10  and  C_11
REMARK   10  A    between atoms: C_11  and  C_12
REMARK   11  A    between atoms: C_11  and  O_13
REMARK   12  A    between atoms: C_11  and  C_14
REMARK   13  A    between atoms: C_17  and  C_18
REMARK   14  A    between atoms: C_18  and  O_20
REMARK   15  A    between atoms: C_22  and  O_23
REMARK                            x       y       z     vdW  Elec       q    Type
REMARK                         _______ _______ _______ _____ _____    ______ ____
ROOT
ATOM      1  C   UNL     1       5.557   5.482  17.265  0.00  0.00    +0.000 C 
ATOM      2  C   UNL     1       5.134   6.657  16.367  0.00  0.00    +0.000 C 
ENDROOT
BRANCH   1   3
ATOM      3  C   UNL     1       4.335   4.802  17.918  0.00  0.00    +0.000 A 
ATOM      4  C   UNL     1       3.025   5.148  17.531  0.00  0.00    +0.000 A 
ATOM      5  C   UNL     1       1.906   4.487  18.050  0.00  0.00    +0.000 A 
ATOM      6  C   UNL     1       2.056   3.466  18.990  0.00  0.00    +0.000 A 
ATOM      7  C   UNL     1       3.339   3.128  19.430  0.00  0.00    +0.000 A 
ATOM      8  C   UNL     1       4.453   3.798  18.899  0.00  0.00    +0.000 A 
BRANCH   6   9
ATOM      9  C   UNL     1       0.814   2.844  19.523  0.00  0.00    +0.000 C 
ATOM     10  O   UNL     1       0.063   2.188  18.820  0.00  0.00    +0.000 OA
BRANCH   9  11
ATOM     11  O   UNL     1       0.600   3.030  20.841  0.00  0.00    +0.000 OA
ATOM     12  H   UNL     1       0.012   2.391  21.278  0.00  0.00    +0.000 HD
ENDBRANCH   9  11
ENDBRANCH   6   9
BRANCH   8  13
ATOM     13  O   UNL     1       5.707   3.464  19.345  0.00  0.00    +0.000 OA
ATOM     14  H   UNL     1       5.638   2.987  20.190  0.00  0.00    +0.000 HD
ENDBRANCH   8  13
ENDBRANCH   1   3
BRANCH   1  15
ATOM     15  O   UNL     1       6.425   6.051  18.259  0.00  0.00    +0.000 OA
ATOM     16  H   UNL     1       5.989   5.890  19.120  0.00  0.00    +0.000 HD
ENDBRANCH   1  15
BRANCH   1  17
ATOM     17  C   UNL     1       6.449   4.517  16.438  0.00  0.00    +0.000 C 
BRANCH  17  18
ATOM     18  C   UNL     1       6.595   4.950  14.972  0.00  0.00    +0.000 C 
BRANCH  18  19
ATOM     19  C   UNL     1       5.899   3.976  14.022  0.00  0.00    +0.000 C 
BRANCH  19  20
ATOM     20  C   UNL     1       6.701   3.735  12.725  0.00  0.00    +0.000 C 
ATOM     21  C   UNL     1       7.513   4.962  12.304  0.00  0.00    +0.000 C 
BRANCH  20  22
ATOM     22  C   UNL     1       5.764   3.306  11.586  0.00  0.00    +0.000 C 
BRANCH  22  23
ATOM     23  O   UNL     1       5.389   1.924  11.705  0.00  0.00    +0.000 OA
BRANCH  23  25
ATOM     24  C   UNL     1       7.463   1.764  10.625  0.00  0.00    +0.000 C 
ATOM     25  C   UNL     1       6.261   1.040  11.156  0.00  0.00    +0.000 C 
ATOM     26  O   UNL     1       6.100  -0.167  11.075  0.00  0.00    +0.000 OA
ENDBRANCH  23  25
ENDBRANCH  22  23
ENDBRANCH  20  22
ENDBRANCH  19  20
ENDBRANCH  18  19
ENDBRANCH  17  18
ENDBRANCH   1  17
TORSDOF 12
ENDMDL
MODEL 8
REMARK VINA RESULT:      -6.2      1.490      2.246
REMARK  Name = 
REMARK  15 active torsions:
REMARK  status: ('A' for Active; 'I' for Inactive)
REMARK    1  A    between atoms: C_1  and  C_2
REMARK    2  A    between atoms: C_2  and  O_4
REMARK    3  A    between atoms: O_4  and  C_5
REMARK    4  A    between atoms: C_5  and  C_6
REMARK    5  A    between atoms: C_6  and  C_7
REMARK    6  A    between atoms: C_6  and  C_8
REMARK    7  A    between atoms: C_8  and  C_9
REMARK    8  A    between atoms: C_9  and  C_10
REMARK    9  A    between atoms: C_10  and  C_11
REMARK   10  A    between atoms: C_11  and  C_12
REMARK   11  A    between atoms: C_11  and  O_13
REMARK   12  A    between atoms: C_11  and  C_14
REMARK   13  A    between atoms: C_17  and  C_18
REMARK   14  A    between atoms: C_18  and  O_20
REMARK   15  A    between atoms: C_22  and  O_23
REMARK                            x       y       z     vdW  Elec       q    Type
REMARK                         _______ _______ _______ _____ _____    ______ ____
ROOT
ATOM      1  C   UNL     1       6.869   5.596  16.772  0.00  0.00    +0.000 C 
ATOM      2  C   UNL     1       7.809   4.732  17.630  0.00  0.00    +0.000 C 
ENDROOT
BRANCH   1   3
ATOM      3  C   UNL     1       6.475   4.875  15.466  0.00  0.00    +0.000 A 
ATOM      4  C   UNL     1       5.320   4.070  15.406  0.00  0.00    +0.000 A 
ATOM      5  C   UNL     1       4.899   3.475  14.212  0.00  0.00    +0.000 A 
ATOM      6  C   UNL     1       5.629   3.648  13.035  0.00  0.00    +0.000 A 
ATOM      7  C   UNL     1       6.805   4.404  13.068  0.00  0.00    +0.000 A 
ATOM      8  C   UNL     1       7.214   4.998  14.273  0.00  0.00    +0.000 A 
BRANCH   6   9
ATOM      9  C   UNL     1       5.137   2.947  11.819  0.00  0.00    +0.000 C 
ATOM     10  O   UNL     1       5.613   1.888  11.443  0.00  0.00    +0.000 OA
BRANCH   9  11
ATOM     11  O   UNL     1       4.111   3.549  11.185  0.00  0.00    +0.000 OA
ATOM     12  H   UNL     1       3.220   3.227  11.402  0.00  0.00    +0.000 HD
ENDBRANCH   9  11
ENDBRANCH   6   9
BRANCH   8  13
ATOM     13  O   UNL     1       8.376   5.729  14.295  0.00  0.00    +0.000 OA
ATOM     14  H   UNL     1       9.108   5.192  13.949  0.00  0.00    +0.000 HD
ENDBRANCH   8  13
ENDBRANCH   1   3
BRANCH   1  15
ATOM     15  O   UNL     1       7.599   6.802  16.498  0.00  0.00    +0.000 OA
ATOM     16  H   UNL     1       7.996   7.075  17.351  0.00  0.00    +0.000 HD
ENDBRANCH   1  15
BRANCH   1  17
ATOM     17  C   UNL     1       5.659   6.031  17.643  0.00  0.00    +0.000 C 
BRANCH  17  18
ATOM     18  C   UNL     1       5.632   5.339  19.013  0.00  0.00    +0.000 C 
BRANCH  18  19
ATOM     19  C   UNL     1       4.205   5.177  19.536  0.00  0.00    +0.000 C 
BRANCH  19  20
ATOM     20  C   UNL     1       3.169   5.946  18.687  0.00  0.00    +0.000 C 
ATOM     21  C   UNL     1       2.289   6.867  19.534  0.00  0.00    +0.000 C 
BRANCH  20  22
ATOM     22  C   UNL     1       2.295   4.966  17.891  0.00  0.00    +0.000 C 
BRANCH  22  23
ATOM     23  O   UNL     1       1.406   4.235  18.750  0.00  0.00    +0.000 OA
BRANCH  23  25
ATOM     24  C   UNL     1       2.469   2.447  17.671  0.00  0.00    +0.000 C 
ATOM     25  C   UNL     1       1.661   2.905  18.849  0.00  0.00    +0.000 C 
ATOM     26  O   UNL     1       1.280   2.168  19.745  0.00  0.00    +0.000 OA
ENDBRANCH  23  25
ENDBRANCH  22  23
ENDBRANCH  20  22
ENDBRANCH  19  20
ENDBRANCH  18  19
ENDBRANCH  17  18
ENDBRANCH   1  17
TORSDOF 12
ENDMDL
MODEL 9
REMARK VINA RESULT:      -6.2      4.471      8.161
REMARK  Name = 
REMARK  15 active torsions:
REMARK  status: ('A' for Active; 'I' for Inactive)
REMARK    1  A    between atoms: C_1  and  C_2
REMARK    2  A    between atoms: C_2  and  O_4
REMARK    3  A    between atoms: O_4  and  C_5
REMARK    4  A    between atoms: C_5  and  C_6
REMARK    5  A    between atoms: C_6  and  C_7
REMARK    6  A    between atoms: C_6  and  C_8
REMARK    7  A    between atoms: C_8  and  C_9
REMARK    8  A    between atoms: C_9  and  C_10
REMARK    9  A    between atoms: C_10  and  C_11
REMARK   10  A    between atoms: C_11  and  C_12
REMARK   11  A    between atoms: C_11  and  O_13
REMARK   12  A    between atoms: C_11  and  C_14
REMARK   13  A    between atoms: C_17  and  C_18
REMARK   14  A    between atoms: C_18  and  O_20
REMARK   15  A    between atoms: C_22  and  O_23
REMARK                            x       y       z     vdW  Elec       q    Type
REMARK                         _______ _______ _______ _____ _____    ______ ____
ROOT
ATOM      1  C   UNL     1       7.130   5.950  17.913  0.00  0.00    +0.000 C 
ATOM      2  C   UNL     1       7.990   5.716  19.167  0.00  0.00    +0.000 C 
ENDROOT
BRANCH   1   3
ATOM      3  C   UNL     1       5.699   5.402  18.099  0.00  0.00    +0.000 A 
ATOM      4  C   UNL     1       5.163   5.209  19.387  0.00  0.00    +0.000 A 
ATOM      5  C   UNL     1       3.841   4.792  19.578  0.00  0.00    +0.000 A 
ATOM      6  C   UNL     1       3.011   4.535  18.486  0.00  0.00    +0.000 A 
ATOM      7  C   UNL     1       3.526   4.672  17.193  0.00  0.00    +0.000 A 
ATOM      8  C   UNL     1       4.853   5.094  17.016  0.00  0.00    +0.000 A 
BRANCH   6   9
ATOM      9  C   UNL     1       1.633   4.054  18.775  0.00  0.00    +0.000 C 
ATOM     10  O   UNL     1       1.032   4.376  19.786  0.00  0.00    +0.000 OA
BRANCH   9  11
ATOM     11  O   UNL     1       1.089   3.267  17.825  0.00  0.00    +0.000 OA
ATOM     12  H   UNL     1       0.908   3.687  16.967  0.00  0.00    +0.000 HD
ENDBRANCH   9  11
ENDBRANCH   6   9
BRANCH   8  13
ATOM     13  O   UNL     1       5.350   5.216  15.742  0.00  0.00    +0.000 OA
ATOM     14  H   UNL     1       5.432   6.157  15.511  0.00  0.00    +0.000 HD
ENDBRANCH   8  13
ENDBRANCH   1   3
BRANCH   1  15
ATOM     15  O   UNL     1       7.811   5.268  16.848  0.00  0.00    +0.000 OA
ATOM     16  H   UNL     1       8.181   5.970  16.274  0.00  0.00    +0.000 HD
ENDBRANCH   1  15
BRANCH   1  17
ATOM     17  C   UNL     1       7.185   7.457  17.545  0.00  0.00    +0.000 C 
BRANCH  17  18
ATOM     18  C   UNL     1       8.292   8.213  18.294  0.00  0.00    +0.000 C 
BRANCH  18  19
ATOM     19  C   UNL     1       8.267   9.709  17.981  0.00  0.00    +0.000 C 
BRANCH  19  20
ATOM     20  C   UNL     1       9.464  10.465  18.598  0.00  0.00    +0.000 C 
ATOM     21  C   UNL     1       9.293  10.704  20.100  0.00  0.00    +0.000 C 
BRANCH  20  22
ATOM     22  C   UNL     1       9.686  11.801  17.873  0.00  0.00    +0.000 C 
BRANCH  22  23
ATOM     23  O   UNL     1       8.439  12.411  17.500  0.00  0.00    +0.000 OA
BRANCH  23  25
ATOM     24  C   UNL     1       9.608  14.361  18.070  0.00  0.00    +0.000 C 
ATOM     25  C   UNL     1       8.274  13.691  17.921  0.00  0.00    +0.000 C 
ATOM     26  O   UNL     1       7.207  14.230  18.170  0.00  0.00    +0.000 OA
ENDBRANCH  23  25
ENDBRANCH  22  23
ENDBRANCH  20  22
ENDBRANCH  19  20
ENDBRANCH  18  19
ENDBRANCH  17  18
ENDBRANCH   1  17
TORSDOF 12
ENDMDL
