MODEL 1
REMARK VINA RESULT:      -8.2      0.000      0.000
REMARK  Name = 
REMARK  9 active torsions:
REMARK  status: ('A' for Active; 'I' for Inactive)
REMARK    1  A    between atoms: C_1  and  C_2
REMARK    2  A    between atoms: C_5  and  N_6
REMARK    3  A    between atoms: C_7  and  C_9
REMARK    4  A    between atoms: C_9  and  O_10
REMARK    5  A    between atoms: O_10  and  N_11
REMARK    6  A    between atoms: C_12  and  C_14
REMARK    7  A    between atoms: C_17  and  O_18
REMARK    8  A    between atoms: O_18  and  C_19
REMARK    9  A    between atoms: C_19  and  C_20
REMARK                            x       y       z     vdW  Elec       q    Type
REMARK                         _______ _______ _______ _____ _____    ______ ____
ROOT
ATOM      1  N   UNL     1      -0.167  10.076  20.392  0.00  0.00    +0.000 NA
ATOM      2  C   UNL     1      -0.293  10.488  19.163  0.00  0.00    +0.000 C 
ATOM      3  N   UNL     1       0.778  10.714  18.333  0.00  0.00    +0.000 N 
ATOM      4  H   UNL     1       1.644  10.751  18.867  0.00  0.00    +0.000 HD
ATOM      5  H   UNL     1       0.684  11.499  17.700  0.00  0.00    +0.000 HD
ENDROOT
BRANCH   2   6
ATOM      6  C   UNL     1      -1.669  10.713  18.643  0.00  0.00    +0.000 A 
ATOM      7  C   UNL     1      -2.445  11.730  19.203  0.00  0.00    +0.000 A 
ATOM      8  C   UNL     1      -3.727  11.972  18.718  0.00  0.00    +0.000 A 
ATOM      9  C   UNL     1      -4.236  11.213  17.662  0.00  0.00    +0.000 A 
ATOM     10  C   UNL     1      -3.476  10.164  17.138  0.00  0.00    +0.000 A 
ATOM     11  C   UNL     1      -2.188   9.917  17.619  0.00  0.00    +0.000 A 
BRANCH   9  12
ATOM     12  O   UNL     1      -5.456  11.424  17.076  0.00  0.00    +0.000 OA
BRANCH  12  13
ATOM     13  C   UNL     1      -6.395  12.126  17.896  0.00  0.00    +0.000 C 
BRANCH  13  14
ATOM     14  C   UNL     1      -6.902  11.217  18.982  0.00  0.00    +0.000 A 
ATOM     15  C   UNL     1      -6.828   9.826  18.842  0.00  0.00    +0.000 A 
ATOM     16  C   UNL     1      -7.301   8.991  19.855  0.00  0.00    +0.000 A 
ATOM     17  C   UNL     1      -7.848   9.540  21.016  0.00  0.00    +0.000 A 
ATOM     18  C   UNL     1      -7.916  10.921  21.168  0.00  0.00    +0.000 A 
ATOM     19  C   UNL     1      -7.445  11.758  20.158  0.00  0.00    +0.000 A 
ENDBRANCH  13  14
ENDBRANCH  12  13
ENDBRANCH   9  12
ENDBRANCH   2   6
BRANCH   1  20
ATOM     20  O   UNL     1       1.193   9.948  20.732  0.00  0.00    +0.000 OA
BRANCH  20  21
ATOM     21  C   UNL     1       1.408   8.685  21.350  0.00  0.00    +0.000 C 
BRANCH  21  23
ATOM     22  N   UNL     1       1.787   6.348  20.749  0.00  0.00    +0.000 N 
ATOM     23  C   UNL     1       1.814   7.653  20.306  0.00  0.00    +0.000 C 
ATOM     24  O   UNL     1       2.154   7.974  19.166  0.00  0.00    +0.000 OA
ATOM     25  H   UNL     1       1.489   6.195  21.709  0.00  0.00    +0.000 HD
BRANCH  22  30
ATOM     26  C   UNL     1       3.539   1.364  18.426  0.00  0.00    +0.000 C 
ATOM     27  C   UNL     1       3.239   2.529  19.369  0.00  0.00    +0.000 C 
ATOM     28  C   UNL     1       3.953   3.806  18.903  0.00  0.00    +0.000 C 
ATOM     29  C   UNL     1       3.614   5.006  19.788  0.00  0.00    +0.000 C 
ATOM     30  C   UNL     1       2.101   5.220  19.889  0.00  0.00    +0.000 C 
ATOM     31  C   UNL     1       1.403   3.948  20.382  0.00  0.00    +0.000 C 
ATOM     32  C   UNL     1       1.726   2.758  19.479  0.00  0.00    +0.000 C 
ENDBRANCH  22  30
ENDBRANCH  21  23
ENDBRANCH  20  21
ENDBRANCH   1  20
TORSDOF 8
ENDMDL
MODEL 2
REMARK VINA RESULT:      -8.0      3.333      6.349
REMARK  Name = 
REMARK  9 active torsions:
REMARK  status: ('A' for Active; 'I' for Inactive)
REMARK    1  A    between atoms: C_1  and  C_2
REMARK    2  A    between atoms: C_5  and  N_6
REMARK    3  A    between atoms: C_7  and  C_9
REMARK    4  A    between atoms: C_9  and  O_10
REMARK    5  A    between atoms: O_10  and  N_11
REMARK    6  A    between atoms: C_12  and  C_14
REMARK    7  A    between atoms: C_17  and  O_18
REMARK    8  A    between atoms: O_18  and  C_19
REMARK    9  A    between atoms: C_19  and  C_20
REMARK                            x       y       z     vdW  Elec       q    Type
REMARK                         _______ _______ _______ _____ _____    ______ ____
ROOT
ATOM      1  N   UNL     1       2.413   3.938  19.082  0.00  0.00    +0.000 NA
ATOM      2  C   UNL     1       2.253   4.745  20.093  0.00  0.00    +0.000 C 
ATOM      3  N   UNL     1       2.270   4.324  21.400  0.00  0.00    +0.000 N 
ATOM      4  H   UNL     1       2.179   3.311  21.452  0.00  0.00    +0.000 HD
ATOM      5  H   UNL     1       1.627   4.799  22.022  0.00  0.00    +0.000 HD
ENDROOT
BRANCH   2   6
ATOM      6  C   UNL     1       2.054   6.190  19.803  0.00  0.00    +0.000 A 
ATOM      7  C   UNL     1       2.365   6.674  18.530  0.00  0.00    +0.000 A 
ATOM      8  C   UNL     1       2.166   8.019  18.230  0.00  0.00    +0.000 A 
ATOM      9  C   UNL     1       1.641   8.884  19.192  0.00  0.00    +0.000 A 
ATOM     10  C   UNL     1       1.377   8.409  20.478  0.00  0.00    +0.000 A 
ATOM     11  C   UNL     1       1.573   7.060  20.785  0.00  0.00    +0.000 A 
BRANCH   9  12
ATOM     12  O   UNL     1       1.348  10.204  18.966  0.00  0.00    +0.000 OA
BRANCH  12  13
ATOM     13  C   UNL     1       0.222  10.695  19.700  0.00  0.00    +0.000 C 
BRANCH  13  14
ATOM     14  C   UNL     1      -0.993  10.716  18.813  0.00  0.00    +0.000 A 
ATOM     15  C   UNL     1      -2.098  11.514  19.135  0.00  0.00    +0.000 A 
ATOM     16  C   UNL     1      -3.220  11.527  18.306  0.00  0.00    +0.000 A 
ATOM     17  C   UNL     1      -3.246  10.745  17.150  0.00  0.00    +0.000 A 
ATOM     18  C   UNL     1      -2.149   9.957  16.818  0.00  0.00    +0.000 A 
ATOM     19  C   UNL     1      -1.026   9.941  17.643  0.00  0.00    +0.000 A 
ENDBRANCH  13  14
ENDBRANCH  12  13
ENDBRANCH   9  12
ENDBRANCH   2   6
BRANCH   1  20
ATOM     20  O   UNL     1       2.553   2.611  19.529  0.00  0.00    +0.000 OA
BRANCH  20  21
ATOM     21  C   UNL     1       3.578   1.968  18.782  0.00  0.00    +0.000 C 
BRANCH  21  23
ATOM     22  N   UNL     1       5.290   3.710  18.821  0.00  0.00    +0.000 N 
ATOM     23  C   UNL     1       4.408   3.002  18.033  0.00  0.00    +0.000 C 
ATOM     24  O   UNL     1       4.279   3.192  16.822  0.00  0.00    +0.000 OA
ATOM     25  H   UNL     1       5.318   3.471  19.809  0.00  0.00    +0.000 HD
BRANCH  22  30
ATOM     26  C   UNL     1       8.227   8.489  17.463  0.00  0.00    +0.000 C 
ATOM     27  C   UNL     1       7.246   7.476  18.051  0.00  0.00    +0.000 C 
ATOM     28  C   UNL     1       6.378   6.853  16.949  0.00  0.00    +0.000 C 
ATOM     29  C   UNL     1       5.434   5.784  17.500  0.00  0.00    +0.000 C 
ATOM     30  C   UNL     1       6.196   4.709  18.282  0.00  0.00    +0.000 C 
ATOM     31  C   UNL     1       7.036   5.341  19.397  0.00  0.00    +0.000 C 
ATOM     32  C   UNL     1       7.995   6.391  18.836  0.00  0.00    +0.000 C 
ENDBRANCH  22  30
ENDBRANCH  21  23
ENDBRANCH  20  21
ENDBRANCH   1  20
TORSDOF 8
ENDMDL
MODEL 3
REMARK VINA RESULT:      -8.0      7.889     11.617
REMARK  Name = 
REMARK  9 active torsions:
REMARK  status: ('A' for Active; 'I' for Inactive)
REMARK    1  A    between atoms: C_1  and  C_2
REMARK    2  A    between atoms: C_5  and  N_6
REMARK    3  A    between atoms: C_7  and  C_9
REMARK    4  A    between atoms: C_9  and  O_10
REMARK    5  A    between atoms: O_10  and  N_11
REMARK    6  A    between atoms: C_12  and  C_14
REMARK    7  A    between atoms: C_17  and  O_18
REMARK    8  A    between atoms: O_18  and  C_19
REMARK    9  A    between atoms: C_19  and  C_20
REMARK                            x       y       z     vdW  Elec       q    Type
REMARK                         _______ _______ _______ _____ _____    ______ ____
ROOT
ATOM      1  N   UNL     1       7.602   8.205  17.307  0.00  0.00    +0.000 NA
ATOM      2  C   UNL     1       7.496   7.099  17.985  0.00  0.00    +0.000 C 
ATOM      3  N   UNL     1       8.346   6.762  19.011  0.00  0.00    +0.000 N 
ATOM      4  H   UNL     1       9.175   7.352  18.998  0.00  0.00    +0.000 HD
ATOM      5  H   UNL     1       8.577   5.778  19.084  0.00  0.00    +0.000 HD
ENDROOT
BRANCH   2   6
ATOM      6  C   UNL     1       6.392   6.167  17.628  0.00  0.00    +0.000 A 
ATOM      7  C   UNL     1       6.705   4.951  17.017  0.00  0.00    +0.000 A 
ATOM      8  C   UNL     1       5.690   4.056  16.692  0.00  0.00    +0.000 A 
ATOM      9  C   UNL     1       4.360   4.360  16.992  0.00  0.00    +0.000 A 
ATOM     10  C   UNL     1       4.046   5.597  17.559  0.00  0.00    +0.000 A 
ATOM     11  C   UNL     1       5.060   6.501  17.887  0.00  0.00    +0.000 A 
BRANCH   9  12
ATOM     12  O   UNL     1       3.305   3.513  16.774  0.00  0.00    +0.000 OA
BRANCH  12  13
ATOM     13  C   UNL     1       3.308   2.339  17.591  0.00  0.00    +0.000 C 
BRANCH  13  14
ATOM     14  C   UNL     1       2.644   2.633  18.908  0.00  0.00    +0.000 A 
ATOM     15  C   UNL     1       1.318   3.080  18.955  0.00  0.00    +0.000 A 
ATOM     16  C   UNL     1       0.710   3.350  20.182  0.00  0.00    +0.000 A 
ATOM     17  C   UNL     1       1.422   3.173  21.369  0.00  0.00    +0.000 A 
ATOM     18  C   UNL     1       2.737   2.720  21.332  0.00  0.00    +0.000 A 
ATOM     19  C   UNL     1       3.347   2.449  20.109  0.00  0.00    +0.000 A 
ENDBRANCH  13  14
ENDBRANCH  12  13
ENDBRANCH   9  12
ENDBRANCH   2   6
BRANCH   1  20
ATOM     20  O   UNL     1       8.713   8.950  17.747  0.00  0.00    +0.000 OA
BRANCH  20  21
ATOM     21  C   UNL     1       8.271  10.206  18.245  0.00  0.00    +0.000 C 
BRANCH  21  23
ATOM     22  N   UNL     1       9.031  12.511  18.524  0.00  0.00    +0.000 N 
ATOM     23  C   UNL     1       9.379  11.242  18.111  0.00  0.00    +0.000 C 
ATOM     24  O   UNL     1      10.487  10.960  17.652  0.00  0.00    +0.000 OA
ATOM     25  H   UNL     1       8.090  12.633  18.889  0.00  0.00    +0.000 HD
BRANCH  22  30
ATOM     26  C   UNL     1      12.023  17.352  19.487  0.00  0.00    +0.000 C 
ATOM     27  C   UNL     1      11.011  16.207  19.533  0.00  0.00    +0.000 C 
ATOM     28  C   UNL     1      10.219  16.125  18.220  0.00  0.00    +0.000 C 
ATOM     29  C   UNL     1       9.247  14.944  18.212  0.00  0.00    +0.000 C 
ATOM     30  C   UNL     1       9.964  13.624  18.512  0.00  0.00    +0.000 C 
ATOM     31  C   UNL     1      10.728  13.709  19.838  0.00  0.00    +0.000 C 
ATOM     32  C   UNL     1      11.714  14.876  19.831  0.00  0.00    +0.000 C 
ENDBRANCH  22  30
ENDBRANCH  21  23
ENDBRANCH  20  21
ENDBRANCH   1  20
TORSDOF 8
ENDMDL
MODEL 4
REMARK VINA RESULT:      -7.9      3.351      6.131
REMARK  Name = 
REMARK  9 active torsions:
REMARK  status: ('A' for Active; 'I' for Inactive)
REMARK    1  A    between atoms: C_1  and  C_2
REMARK    2  A    between atoms: C_5  and  N_6
REMARK    3  A    between atoms: C_7  and  C_9
REMARK    4  A    between atoms: C_9  and  O_10
REMARK    5  A    between atoms: O_10  and  N_11
REMARK    6  A    between atoms: C_12  and  C_14
REMARK    7  A    between atoms: C_17  and  O_18
REMARK    8  A    between atoms: O_18  and  C_19
REMARK    9  A    between atoms: C_19  and  C_20
REMARK                            x       y       z     vdW  Elec       q    Type
REMARK                         _______ _______ _______ _____ _____    ______ ____
ROOT
ATOM      1  N   UNL     1       1.347   3.773  19.511  0.00  0.00    +0.000 NA
ATOM      2  C   UNL     1       1.752   4.553  20.472  0.00  0.00    +0.000 C 
ATOM      3  N   UNL     1       2.237   4.082  21.668  0.00  0.00    +0.000 N 
ATOM      4  H   UNL     1       2.012   3.096  21.783  0.00  0.00    +0.000 HD
ATOM      5  H   UNL     1       1.995   4.629  22.486  0.00  0.00    +0.000 HD
ENDROOT
BRANCH   2   6
ATOM      6  C   UNL     1       1.689   6.022  20.248  0.00  0.00    +0.000 A 
ATOM      7  C   UNL     1       2.261   6.554  19.090  0.00  0.00    +0.000 A 
ATOM      8  C   UNL     1       2.196   7.924  18.849  0.00  0.00    +0.000 A 
ATOM      9  C   UNL     1       1.546   8.767  19.752  0.00  0.00    +0.000 A 
ATOM     10  C   UNL     1       1.018   8.240  20.932  0.00  0.00    +0.000 A 
ATOM     11  C   UNL     1       1.079   6.865  21.180  0.00  0.00    +0.000 A 
BRANCH   9  12
ATOM     12  O   UNL     1       1.372  10.114  19.565  0.00  0.00    +0.000 OA
BRANCH  12  13
ATOM     13  C   UNL     1       0.706  10.462  18.347  0.00  0.00    +0.000 C 
BRANCH  13  14
ATOM     14  C   UNL     1      -0.668  10.995  18.653  0.00  0.00    +0.000 A 
ATOM     15  C   UNL     1      -1.737  10.753  17.782  0.00  0.00    +0.000 A 
ATOM     16  C   UNL     1      -3.007  11.251  18.073  0.00  0.00    +0.000 A 
ATOM     17  C   UNL     1      -3.218  11.990  19.238  0.00  0.00    +0.000 A 
ATOM     18  C   UNL     1      -2.163  12.227  20.114  0.00  0.00    +0.000 A 
ATOM     19  C   UNL     1      -0.893  11.731  19.826  0.00  0.00    +0.000 A 
ENDBRANCH  13  14
ENDBRANCH  12  13
ENDBRANCH   9  12
ENDBRANCH   2   6
BRANCH   1  20
ATOM     20  O   UNL     1       1.441   2.423  19.900  0.00  0.00    +0.000 OA
BRANCH  20  21
ATOM     21  C   UNL     1       2.274   1.725  18.982  0.00  0.00    +0.000 C 
BRANCH  21  23
ATOM     22  N   UNL     1       3.764   3.371  17.965  0.00  0.00    +0.000 N 
ATOM     23  C   UNL     1       3.647   2.381  18.917  0.00  0.00    +0.000 C 
ATOM     24  O   UNL     1       4.574   2.033  19.649  0.00  0.00    +0.000 OA
ATOM     25  H   UNL     1       2.935   3.581  17.415  0.00  0.00    +0.000 HD
BRANCH  22  30
ATOM     26  C   UNL     1       7.823   7.446  17.479  0.00  0.00    +0.000 C 
ATOM     27  C   UNL     1       6.515   6.681  17.675  0.00  0.00    +0.000 C 
ATOM     28  C   UNL     1       6.127   5.924  16.396  0.00  0.00    +0.000 C 
ATOM     29  C   UNL     1       4.857   5.093  16.585  0.00  0.00    +0.000 C 
ATOM     30  C   UNL     1       4.982   4.141  17.779  0.00  0.00    +0.000 C 
ATOM     31  C   UNL     1       5.340   4.911  19.054  0.00  0.00    +0.000 C 
ATOM     32  C   UNL     1       6.624   5.720  18.866  0.00  0.00    +0.000 C 
ENDBRANCH  22  30
ENDBRANCH  21  23
ENDBRANCH  20  21
ENDBRANCH   1  20
TORSDOF 8
ENDMDL
MODEL 5
REMARK VINA RESULT:      -7.8      5.600     10.911
REMARK  Name = 
REMARK  9 active torsions:
REMARK  status: ('A' for Active; 'I' for Inactive)
REMARK    1  A    between atoms: C_1  and  C_2
REMARK    2  A    between atoms: C_5  and  N_6
REMARK    3  A    between atoms: C_7  and  C_9
REMARK    4  A    between atoms: C_9  and  O_10
REMARK    5  A    between atoms: O_10  and  N_11
REMARK    6  A    between atoms: C_12  and  C_14
REMARK    7  A    between atoms: C_17  and  O_18
REMARK    8  A    between atoms: O_18  and  C_19
REMARK    9  A    between atoms: C_19  and  C_20
REMARK                            x       y       z     vdW  Elec       q    Type
REMARK                         _______ _______ _______ _____ _____    ______ ____
ROOT
ATOM      1  N   UNL     1       4.790   3.518  19.143  0.00  0.00    +0.000 NA
ATOM      2  C   UNL     1       5.218   3.941  17.988  0.00  0.00    +0.000 C 
ATOM      3  N   UNL     1       4.961   3.289  16.806  0.00  0.00    +0.000 N 
ATOM      4  H   UNL     1       4.621   2.346  16.984  0.00  0.00    +0.000 HD
ATOM      5  H   UNL     1       5.711   3.304  16.125  0.00  0.00    +0.000 HD
ENDROOT
BRANCH   2   6
ATOM      6  C   UNL     1       6.014   5.198  17.960  0.00  0.00    +0.000 A 
ATOM      7  C   UNL     1       7.086   5.338  18.843  0.00  0.00    +0.000 A 
ATOM      8  C   UNL     1       7.858   6.497  18.821  0.00  0.00    +0.000 A 
ATOM      9  C   UNL     1       7.575   7.513  17.906  0.00  0.00    +0.000 A 
ATOM     10  C   UNL     1       6.472   7.391  17.057  0.00  0.00    +0.000 A 
ATOM     11  C   UNL     1       5.695   6.230  17.074  0.00  0.00    +0.000 A 
BRANCH   9  12
ATOM     12  O   UNL     1       8.319   8.655  17.764  0.00  0.00    +0.000 OA
BRANCH  12  13
ATOM     13  C   UNL     1       9.040   9.042  18.938  0.00  0.00    +0.000 C 
BRANCH  13  14
ATOM     14  C   UNL     1       9.125  10.543  19.011  0.00  0.00    +0.000 A 
ATOM     15  C   UNL     1       8.890  11.328  17.875  0.00  0.00    +0.000 A 
ATOM     16  C   UNL     1       8.972  12.718  17.953  0.00  0.00    +0.000 A 
ATOM     17  C   UNL     1       9.285  13.334  19.166  0.00  0.00    +0.000 A 
ATOM     18  C   UNL     1       9.510  12.562  20.301  0.00  0.00    +0.000 A 
ATOM     19  C   UNL     1       9.430  11.173  20.227  0.00  0.00    +0.000 A 
ENDBRANCH  13  14
ENDBRANCH  12  13
ENDBRANCH   9  12
ENDBRANCH   2   6
BRANCH   1  20
ATOM     20  O   UNL     1       4.088   2.306  18.995  0.00  0.00    +0.000 OA
BRANCH  20  21
ATOM     21  C   UNL     1       2.807   2.427  19.598  0.00  0.00    +0.000 C 
BRANCH  21  23
ATOM     22  N   UNL     1       2.297   4.805  19.832  0.00  0.00    +0.000 N 
ATOM     23  C   UNL     1       2.096   3.669  19.077  0.00  0.00    +0.000 C 
ATOM     24  O   UNL     1       1.386   3.643  18.070  0.00  0.00    +0.000 OA
ATOM     25  H   UNL     1       2.904   4.715  20.643  0.00  0.00    +0.000 HD
BRANCH  22  30
ATOM     26  C   UNL     1       1.246  10.378  18.765  0.00  0.00    +0.000 C 
ATOM     27  C   UNL     1       1.877   9.045  19.164  0.00  0.00    +0.000 C 
ATOM     28  C   UNL     1       1.096   8.394  20.315  0.00  0.00    +0.000 C 
ATOM     29  C   UNL     1       1.664   7.024  20.689  0.00  0.00    +0.000 C 
ATOM     30  C   UNL     1       1.737   6.096  19.473  0.00  0.00    +0.000 C 
ATOM     31  C   UNL     1       2.542   6.743  18.341  0.00  0.00    +0.000 C 
ATOM     32  C   UNL     1       1.955   8.101  17.956  0.00  0.00    +0.000 C 
ENDBRANCH  22  30
ENDBRANCH  21  23
ENDBRANCH  20  21
ENDBRANCH   1  20
TORSDOF 8
ENDMDL
MODEL 6
REMARK VINA RESULT:      -7.7      4.764      7.068
REMARK  Name = 
REMARK  9 active torsions:
REMARK  status: ('A' for Active; 'I' for Inactive)
REMARK    1  A    between atoms: C_1  and  C_2
REMARK    2  A    between atoms: C_5  and  N_6
REMARK    3  A    between atoms: C_7  and  C_9
REMARK    4  A    between atoms: C_9  and  O_10
REMARK    5  A    between atoms: O_10  and  N_11
REMARK    6  A    between atoms: C_12  and  C_14
REMARK    7  A    between atoms: C_17  and  O_18
REMARK    8  A    between atoms: O_18  and  C_19
REMARK    9  A    between atoms: C_19  and  C_20
REMARK                            x       y       z     vdW  Elec       q    Type
REMARK                         _______ _______ _______ _____ _____    ______ ____
ROOT
ATOM      1  N   UNL     1       1.835   3.687  19.178  0.00  0.00    +0.000 NA
ATOM      2  C   UNL     1       2.011   4.591  20.100  0.00  0.00    +0.000 C 
ATOM      3  N   UNL     1       2.229   4.285  21.421  0.00  0.00    +0.000 N 
ATOM      4  H   UNL     1       1.996   3.311  21.606  0.00  0.00    +0.000 HD
ATOM      5  H   UNL     1       1.807   4.915  22.093  0.00  0.00    +0.000 HD
ENDROOT
BRANCH   2   6
ATOM      6  C   UNL     1       1.981   6.020  19.686  0.00  0.00    +0.000 A 
ATOM      7  C   UNL     1       2.391   6.359  18.395  0.00  0.00    +0.000 A 
ATOM      8  C   UNL     1       2.352   7.687  17.979  0.00  0.00    +0.000 A 
ATOM      9  C   UNL     1       1.887   8.681  18.843  0.00  0.00    +0.000 A 
ATOM     10  C   UNL     1       1.524   8.346  20.149  0.00  0.00    +0.000 A 
ATOM     11  C   UNL     1       1.560   7.015  20.572  0.00  0.00    +0.000 A 
BRANCH   9  12
ATOM     12  O   UNL     1       1.748  10.000  18.499  0.00  0.00    +0.000 OA
BRANCH  12  13
ATOM     13  C   UNL     1       0.661  10.670  19.144  0.00  0.00    +0.000 C 
BRANCH  13  14
ATOM     14  C   UNL     1       0.835  12.159  19.020  0.00  0.00    +0.000 A 
ATOM     15  C   UNL     1      -0.248  13.023  19.222  0.00  0.00    +0.000 A 
ATOM     16  C   UNL     1      -0.078  14.403  19.105  0.00  0.00    +0.000 A 
ATOM     17  C   UNL     1       1.176  14.929  18.789  0.00  0.00    +0.000 A 
ATOM     18  C   UNL     1       2.260  14.078  18.596  0.00  0.00    +0.000 A 
ATOM     19  C   UNL     1       2.093  12.699  18.712  0.00  0.00    +0.000 A 
ENDBRANCH  13  14
ENDBRANCH  12  13
ENDBRANCH   9  12
ENDBRANCH   2   6
BRANCH   1  20
ATOM     20  O   UNL     1       1.858   2.398  19.742  0.00  0.00    +0.000 OA
BRANCH  20  21
ATOM     21  C   UNL     1       2.910   1.644  19.153  0.00  0.00    +0.000 C 
BRANCH  21  23
ATOM     22  N   UNL     1       4.366   3.250  18.027  0.00  0.00    +0.000 N 
ATOM     23  C   UNL     1       4.197   2.458  19.142  0.00  0.00    +0.000 C 
ATOM     24  O   UNL     1       5.021   2.391  20.056  0.00  0.00    +0.000 OA
ATOM     25  H   UNL     1       3.623   3.231  17.333  0.00  0.00    +0.000 HD
BRANCH  22  30
ATOM     26  C   UNL     1       8.016   7.688  17.485  0.00  0.00    +0.000 C 
ATOM     27  C   UNL     1       6.782   6.804  17.662  0.00  0.00    +0.000 C 
ATOM     28  C   UNL     1       6.549   5.935  16.418  0.00  0.00    +0.000 C 
ATOM     29  C   UNL     1       5.360   4.990  16.595  0.00  0.00    +0.000 C 
ATOM     30  C   UNL     1       5.509   4.129  17.854  0.00  0.00    +0.000 C 
ATOM     31  C   UNL     1       5.713   5.008  19.093  0.00  0.00    +0.000 C 
ATOM     32  C   UNL     1       6.917   5.933  18.919  0.00  0.00    +0.000 C 
ENDBRANCH  22  30
ENDBRANCH  21  23
ENDBRANCH  20  21
ENDBRANCH   1  20
TORSDOF 8
ENDMDL
MODEL 7
REMARK VINA RESULT:      -7.7      3.075      9.800
REMARK  Name = 
REMARK  9 active torsions:
REMARK  status: ('A' for Active; 'I' for Inactive)
REMARK    1  A    between atoms: C_1  and  C_2
REMARK    2  A    between atoms: C_5  and  N_6
REMARK    3  A    between atoms: C_7  and  C_9
REMARK    4  A    between atoms: C_9  and  O_10
REMARK    5  A    between atoms: O_10  and  N_11
REMARK    6  A    between atoms: C_12  and  C_14
REMARK    7  A    between atoms: C_17  and  O_18
REMARK    8  A    between atoms: O_18  and  C_19
REMARK    9  A    between atoms: C_19  and  C_20
REMARK                            x       y       z     vdW  Elec       q    Type
REMARK                         _______ _______ _______ _____ _____    ______ ____
ROOT
ATOM      1  N   UNL     1       0.401   9.766  20.455  0.00  0.00    +0.000 NA
ATOM      2  C   UNL     1       1.194   8.896  21.013  0.00  0.00    +0.000 C 
ATOM      3  N   UNL     1       1.497   8.906  22.353  0.00  0.00    +0.000 N 
ATOM      4  H   UNL     1       1.228   9.793  22.774  0.00  0.00    +0.000 HD
ATOM      5  H   UNL     1       2.446   8.642  22.589  0.00  0.00    +0.000 HD
ENDROOT
BRANCH   2   6
ATOM      6  C   UNL     1       1.784   7.839  20.148  0.00  0.00    +0.000 A 
ATOM      7  C   UNL     1       2.127   8.157  18.832  0.00  0.00    +0.000 A 
ATOM      8  C   UNL     1       2.700   7.190  18.010  0.00  0.00    +0.000 A 
ATOM      9  C   UNL     1       2.949   5.907  18.502  0.00  0.00    +0.000 A 
ATOM     10  C   UNL     1       2.560   5.578  19.803  0.00  0.00    +0.000 A 
ATOM     11  C   UNL     1       1.985   6.544  20.632  0.00  0.00    +0.000 A 
BRANCH   9  12
ATOM     12  O   UNL     1       3.571   4.914  17.791  0.00  0.00    +0.000 OA
BRANCH  12  13
ATOM     13  C   UNL     1       4.495   5.380  16.804  0.00  0.00    +0.000 C 
BRANCH  13  14
ATOM     14  C   UNL     1       5.755   5.860  17.472  0.00  0.00    +0.000 A 
ATOM     15  C   UNL     1       6.321   5.139  18.531  0.00  0.00    +0.000 A 
ATOM     16  C   UNL     1       7.489   5.592  19.144  0.00  0.00    +0.000 A 
ATOM     17  C   UNL     1       8.102   6.766  18.702  0.00  0.00    +0.000 A 
ATOM     18  C   UNL     1       7.552   7.483  17.644  0.00  0.00    +0.000 A 
ATOM     19  C   UNL     1       6.384   7.034  17.029  0.00  0.00    +0.000 A 
ENDBRANCH  13  14
ENDBRANCH  12  13
ENDBRANCH   9  12
ENDBRANCH   2   6
BRANCH   1  20
ATOM     20  O   UNL     1      -0.039  10.710  21.402  0.00  0.00    +0.000 OA
BRANCH  20  21
ATOM     21  C   UNL     1      -0.403  11.912  20.736  0.00  0.00    +0.000 C 
BRANCH  21  23
ATOM     22  N   UNL     1      -2.048  10.782  19.328  0.00  0.00    +0.000 N 
ATOM     23  C   UNL     1      -0.939  11.601  19.346  0.00  0.00    +0.000 C 
ATOM     24  O   UNL     1      -0.404  12.037  18.325  0.00  0.00    +0.000 OA
ATOM     25  H   UNL     1      -2.410  10.480  20.230  0.00  0.00    +0.000 HD
BRANCH  22  30
ATOM     26  C   UNL     1      -3.958  10.181  13.915  0.00  0.00    +0.000 C 
ATOM     27  C   UNL     1      -3.221  10.616  15.181  0.00  0.00    +0.000 C 
ATOM     28  C   UNL     1      -4.198  11.211  16.206  0.00  0.00    +0.000 C 
ATOM     29  C   UNL     1      -3.498  11.591  17.511  0.00  0.00    +0.000 C 
ATOM     30  C   UNL     1      -2.727  10.406  18.101  0.00  0.00    +0.000 C 
ATOM     31  C   UNL     1      -1.735   9.840  17.080  0.00  0.00    +0.000 C 
ATOM     32  C   UNL     1      -2.445   9.439  15.787  0.00  0.00    +0.000 C 
ENDBRANCH  22  30
ENDBRANCH  21  23
ENDBRANCH  20  21
ENDBRANCH   1  20
TORSDOF 8
ENDMDL
MODEL 8
REMARK VINA RESULT:      -7.7      5.446     11.319
REMARK  Name = 
REMARK  9 active torsions:
REMARK  status: ('A' for Active; 'I' for Inactive)
REMARK    1  A    between atoms: C_1  and  C_2
REMARK    2  A    between atoms: C_5  and  N_6
REMARK    3  A    between atoms: C_7  and  C_9
REMARK    4  A    between atoms: C_9  and  O_10
REMARK    5  A    between atoms: O_10  and  N_11
REMARK    6  A    between atoms: C_12  and  C_14
REMARK    7  A    between atoms: C_17  and  O_18
REMARK    8  A    between atoms: O_18  and  C_19
REMARK    9  A    between atoms: C_19  and  C_20
REMARK                            x       y       z     vdW  Elec       q    Type
REMARK                         _______ _______ _______ _____ _____    ______ ____
ROOT
ATOM      1  N   UNL     1       4.272   4.080  17.535  0.00  0.00    +0.000 NA
ATOM      2  C   UNL     1       5.235   4.284  18.388  0.00  0.00    +0.000 C 
ATOM      3  N   UNL     1       5.454   3.481  19.481  0.00  0.00    +0.000 N 
ATOM      4  H   UNL     1       4.647   2.885  19.655  0.00  0.00    +0.000 HD
ATOM      5  H   UNL     1       5.767   3.957  20.319  0.00  0.00    +0.000 HD
ENDROOT
BRANCH   2   6
ATOM      6  C   UNL     1       6.139   5.442  18.151  0.00  0.00    +0.000 A 
ATOM      7  C   UNL     1       5.804   6.370  17.163  0.00  0.00    +0.000 A 
ATOM      8  C   UNL     1       6.624   7.472  16.937  0.00  0.00    +0.000 A 
ATOM      9  C   UNL     1       7.773   7.663  17.708  0.00  0.00    +0.000 A 
ATOM     10  C   UNL     1       8.132   6.708  18.662  0.00  0.00    +0.000 A 
ATOM     11  C   UNL     1       7.312   5.600  18.893  0.00  0.00    +0.000 A 
BRANCH   9  12
ATOM     12  O   UNL     1       8.601   8.750  17.604  0.00  0.00    +0.000 OA
BRANCH  12  13
ATOM     13  C   UNL     1       8.157   9.904  18.324  0.00  0.00    +0.000 C 
BRANCH  13  14
ATOM     14  C   UNL     1       9.345  10.690  18.810  0.00  0.00    +0.000 A 
ATOM     15  C   UNL     1       9.493  10.993  20.168  0.00  0.00    +0.000 A 
ATOM     16  C   UNL     1      10.597  11.722  20.609  0.00  0.00    +0.000 A 
ATOM     17  C   UNL     1      11.562  12.151  19.697  0.00  0.00    +0.000 A 
ATOM     18  C   UNL     1      11.427  11.847  18.346  0.00  0.00    +0.000 A 
ATOM     19  C   UNL     1      10.325  11.118  17.902  0.00  0.00    +0.000 A 
ENDBRANCH  13  14
ENDBRANCH  12  13
ENDBRANCH   9  12
ENDBRANCH   2   6
BRANCH   1  20
ATOM     20  O   UNL     1       3.496   2.972  17.925  0.00  0.00    +0.000 OA
BRANCH  20  21
ATOM     21  C   UNL     1       2.193   3.414  18.287  0.00  0.00    +0.000 C 
BRANCH  21  23
ATOM     22  N   UNL     1       2.159   5.851  18.448  0.00  0.00    +0.000 N 
ATOM     23  C   UNL     1       2.285   4.668  19.145  0.00  0.00    +0.000 C 
ATOM     24  O   UNL     1       2.473   4.617  20.361  0.00  0.00    +0.000 OA
ATOM     25  H   UNL     1       2.003   5.779  17.445  0.00  0.00    +0.000 HD
BRANCH  22  30
ATOM     26  C   UNL     1       0.948  10.988  20.783  0.00  0.00    +0.000 C 
ATOM     27  C   UNL     1       0.879   9.630  20.086  0.00  0.00    +0.000 C 
ATOM     28  C   UNL     1       1.735   9.626  18.811  0.00  0.00    +0.000 C 
ATOM     29  C   UNL     1       1.741   8.257  18.130  0.00  0.00    +0.000 C 
ATOM     30  C   UNL     1       2.177   7.150  19.096  0.00  0.00    +0.000 C 
ATOM     31  C   UNL     1       1.298   7.146  20.351  0.00  0.00    +0.000 C 
ATOM     32  C   UNL     1       1.316   8.510  21.040  0.00  0.00    +0.000 C 
ENDBRANCH  22  30
ENDBRANCH  21  23
ENDBRANCH  20  21
ENDBRANCH   1  20
TORSDOF 8
ENDMDL
MODEL 9
REMARK VINA RESULT:      -7.7      2.130      9.813
REMARK  Name = 
REMARK  9 active torsions:
REMARK  status: ('A' for Active; 'I' for Inactive)
REMARK    1  A    between atoms: C_1  and  C_2
REMARK    2  A    between atoms: C_5  and  N_6
REMARK    3  A    between atoms: C_7  and  C_9
REMARK    4  A    between atoms: C_9  and  O_10
REMARK    5  A    between atoms: O_10  and  N_11
REMARK    6  A    between atoms: C_12  and  C_14
REMARK    7  A    between atoms: C_17  and  O_18
REMARK    8  A    between atoms: O_18  and  C_19
REMARK    9  A    between atoms: C_19  and  C_20
REMARK                            x       y       z     vdW  Elec       q    Type
REMARK                         _______ _______ _______ _____ _____    ______ ____
ROOT
ATOM      1  N   UNL     1      -1.609  10.683  17.629  0.00  0.00    +0.000 NA
ATOM      2  C   UNL     1      -0.876  10.789  18.701  0.00  0.00    +0.000 C 
ATOM      3  N   UNL     1      -1.067  11.766  19.647  0.00  0.00    +0.000 N 
ATOM      4  H   UNL     1      -1.666  12.504  19.284  0.00  0.00    +0.000 HD
ATOM      5  H   UNL     1      -0.224  12.132  20.075  0.00  0.00    +0.000 HD
ENDROOT
BRANCH   2   6
ATOM      6  C   UNL     1       0.209   9.792  18.902  0.00  0.00    +0.000 A 
ATOM      7  C   UNL     1       0.430   9.282  20.183  0.00  0.00    +0.000 A 
ATOM      8  C   UNL     1       1.426   8.332  20.391  0.00  0.00    +0.000 A 
ATOM      9  C   UNL     1       2.196   7.874  19.320  0.00  0.00    +0.000 A 
ATOM     10  C   UNL     1       2.006   8.421  18.049  0.00  0.00    +0.000 A 
ATOM     11  C   UNL     1       1.007   9.373  17.834  0.00  0.00    +0.000 A 
BRANCH   9  12
ATOM     12  O   UNL     1       3.149   6.894  19.417  0.00  0.00    +0.000 OA
BRANCH  12  13
ATOM     13  C   UNL     1       3.046   5.867  18.426  0.00  0.00    +0.000 C 
BRANCH  13  14
ATOM     14  C   UNL     1       2.256   4.708  18.973  0.00  0.00    +0.000 A 
ATOM     15  C   UNL     1       1.694   3.759  18.111  0.00  0.00    +0.000 A 
ATOM     16  C   UNL     1       0.963   2.688  18.627  0.00  0.00    +0.000 A 
ATOM     17  C   UNL     1       0.793   2.557  20.006  0.00  0.00    +0.000 A 
ATOM     18  C   UNL     1       1.357   3.491  20.870  0.00  0.00    +0.000 A 
ATOM     19  C   UNL     1       2.087   4.562  20.358  0.00  0.00    +0.000 A 
ENDBRANCH  13  14
ENDBRANCH  12  13
ENDBRANCH   9  12
ENDBRANCH   2   6
BRANCH   1  20
ATOM     20  O   UNL     1      -2.560  11.720  17.577  0.00  0.00    +0.000 OA
BRANCH  20  21
ATOM     21  C   UNL     1      -3.793  11.205  17.093  0.00  0.00    +0.000 C 
BRANCH  21  23
ATOM     22  N   UNL     1      -4.659  12.023  19.226  0.00  0.00    +0.000 N 
ATOM     23  C   UNL     1      -4.952  11.771  17.902  0.00  0.00    +0.000 C 
ATOM     24  O   UNL     1      -6.062  11.967  17.406  0.00  0.00    +0.000 OA
ATOM     25  H   UNL     1      -3.709  11.826  19.531  0.00  0.00    +0.000 HD
BRANCH  22  30
ATOM     26  C   UNL     1      -7.917  13.525  23.747  0.00  0.00    +0.000 C 
ATOM     27  C   UNL     1      -6.892  12.879  22.814  0.00  0.00    +0.000 C 
ATOM     28  C   UNL     1      -7.591  12.137  21.666  0.00  0.00    +0.000 C 
ATOM     29  C   UNL     1      -6.588  11.540  20.678  0.00  0.00    +0.000 C 
ATOM     30  C   UNL     1      -5.621  12.603  20.146  0.00  0.00    +0.000 C 
ATOM     31  C   UNL     1      -4.909  13.316  21.300  0.00  0.00    +0.000 C 
ATOM     32  C   UNL     1      -5.917  13.932  22.271  0.00  0.00    +0.000 C 
ENDBRANCH  22  30
ENDBRANCH  21  23
ENDBRANCH  20  21
ENDBRANCH   1  20
TORSDOF 8
ENDMDL
