MODEL 1
REMARK VINA RESULT:      -7.4      0.000      0.000
REMARK  Name = 
REMARK  6 active torsions:
REMARK  status: ('A' for Active; 'I' for Inactive)
REMARK    1  A    between atoms: C_1  and  C_2
REMARK    2  A    between atoms: N_4  and  C_5
REMARK    3  A    between atoms: C_7  and  O_8
REMARK    4  A    between atoms: C_9  and  O_10
REMARK    5  A    between atoms: C_11  and  C_12
REMARK    6  A    between atoms: C_12  and  O_13
REMARK                            x       y       z     vdW  Elec       q    Type
REMARK                         _______ _______ _______ _____ _____    ______ ____
ROOT
ATOM      1  C   UNL     1       5.417   4.133  18.447  0.00  0.00    +0.000 C 
ATOM      2  C   UNL     1       6.092   5.294  19.163  0.00  0.00    +0.000 C 
ATOM      3  C   UNL     1       7.513   5.356  18.628  0.00  0.00    +0.000 C 
ATOM      4  C   UNL     1       7.517   5.501  17.097  0.00  0.00    +0.000 C 
ATOM      5  C   UNL     1       6.580   4.467  16.423  0.00  0.00    +0.000 C 
ATOM      6  O   UNL     1       5.263   4.484  17.053  0.00  0.00    +0.000 OA
ENDROOT
BRANCH   1  10
ATOM      7  C   UNL     1       1.225   5.383  20.620  0.00  0.00    +0.000 C 
ATOM      8  C   UNL     1       2.353   4.443  20.301  0.00  0.00    +0.000 A 
ATOM      9  N   UNL     1       3.183   4.656  19.325  0.00  0.00    +0.000 NA
ATOM     10  N   UNL     1       4.192   3.715  19.128  0.00  0.00    +0.000 N 
ATOM     11  C   UNL     1       4.302   2.546  19.895  0.00  0.00    +0.000 A 
ATOM     12  O   UNL     1       5.282   1.797  19.885  0.00  0.00    +0.000 OA
ATOM     13  N   UNL     1       3.301   2.276  20.763  0.00  0.00    +0.000 N 
ATOM     14  C   UNL     1       2.489   3.256  21.227  0.00  0.00    +0.000 A 
ATOM     15  O   UNL     1       1.952   3.246  22.324  0.00  0.00    +0.000 OA
ATOM     16  H   UNL     1       3.503   1.529  21.411  0.00  0.00    +0.000 HD
ENDBRANCH   1  10
BRANCH   3  17
ATOM     17  O   UNL     1       8.205   6.440  19.241  0.00  0.00    +0.000 OA
ATOM     18  H   UNL     1       7.546   7.155  19.349  0.00  0.00    +0.000 HD
ENDBRANCH   3  17
BRANCH   4  19
ATOM     19  O   UNL     1       7.114   6.846  16.789  0.00  0.00    +0.000 OA
ATOM     20  H   UNL     1       6.174   6.939  17.042  0.00  0.00    +0.000 HD
ENDBRANCH   4  19
BRANCH   5  21
ATOM     21  C   UNL     1       6.502   4.721  14.906  0.00  0.00    +0.000 C 
BRANCH  21  22
ATOM     22  O   UNL     1       7.674   5.351  14.397  0.00  0.00    +0.000 OA
ATOM     23  H   UNL     1       7.445   6.251  14.113  0.00  0.00    +0.000 HD
ENDBRANCH  21  22
ENDBRANCH   5  21
TORSDOF 5
ENDMDL
MODEL 2
REMARK VINA RESULT:      -7.3      1.169      1.169
REMARK  Name = 
REMARK  6 active torsions:
REMARK  status: ('A' for Active; 'I' for Inactive)
REMARK    1  A    between atoms: C_1  and  C_2
REMARK    2  A    between atoms: N_4  and  C_5
REMARK    3  A    between atoms: C_7  and  O_8
REMARK    4  A    between atoms: C_9  and  O_10
REMARK    5  A    between atoms: C_11  and  C_12
REMARK    6  A    between atoms: C_12  and  O_13
REMARK                            x       y       z     vdW  Elec       q    Type
REMARK                         _______ _______ _______ _____ _____    ______ ____
ROOT
ATOM      1  C   UNL     1       4.923   3.985  17.752  0.00  0.00    +0.000 C 
ATOM      2  C   UNL     1       5.806   4.823  18.665  0.00  0.00    +0.000 C 
ATOM      3  C   UNL     1       7.238   4.572  18.220  0.00  0.00    +0.000 C 
ATOM      4  C   UNL     1       7.415   4.905  16.730  0.00  0.00    +0.000 C 
ATOM      5  C   UNL     1       6.309   4.253  15.862  0.00  0.00    +0.000 C 
ATOM      6  O   UNL     1       4.989   4.540  16.418  0.00  0.00    +0.000 OA
ENDROOT
BRANCH   1  10
ATOM      7  C   UNL     1       1.435   5.589  20.772  0.00  0.00    +0.000 C 
ATOM      8  C   UNL     1       2.099   4.561  19.901  0.00  0.00    +0.000 A 
ATOM      9  N   UNL     1       3.032   4.865  19.050  0.00  0.00    +0.000 NA
ATOM     10  N   UNL     1       3.577   3.825  18.298  0.00  0.00    +0.000 N 
ATOM     11  C   UNL     1       3.120   2.502  18.390  0.00  0.00    +0.000 A 
ATOM     12  O   UNL     1       3.700   1.531  17.896  0.00  0.00    +0.000 OA
ATOM     13  N   UNL     1       2.019   2.275  19.141  0.00  0.00    +0.000 N 
ATOM     14  C   UNL     1       1.645   3.136  20.118  0.00  0.00    +0.000 A 
ATOM     15  O   UNL     1       1.050   2.810  21.134  0.00  0.00    +0.000 OA
ATOM     16  H   UNL     1       1.833   1.299  19.320  0.00  0.00    +0.000 HD
ENDBRANCH   1  10
BRANCH   3  17
ATOM     17  O   UNL     1       8.127   5.345  19.021  0.00  0.00    +0.000 OA
ATOM     18  H   UNL     1       8.794   5.712  18.406  0.00  0.00    +0.000 HD
ENDBRANCH   3  17
BRANCH   4  19
ATOM     19  O   UNL     1       7.400   6.337  16.602  0.00  0.00    +0.000 OA
ATOM     20  H   UNL     1       7.133   6.550  15.686  0.00  0.00    +0.000 HD
ENDBRANCH   4  19
BRANCH   5  21
ATOM     21  C   UNL     1       6.434   4.712  14.397  0.00  0.00    +0.000 C 
BRANCH  21  22
ATOM     22  O   UNL     1       7.696   5.313  14.120  0.00  0.00    +0.000 OA
ATOM     23  H   UNL     1       8.308   4.625  13.813  0.00  0.00    +0.000 HD
ENDBRANCH  21  22
ENDBRANCH   5  21
TORSDOF 5
ENDMDL
MODEL 3
REMARK VINA RESULT:      -6.9      2.310      6.438
REMARK  Name = 
REMARK  6 active torsions:
REMARK  status: ('A' for Active; 'I' for Inactive)
REMARK    1  A    between atoms: C_1  and  C_2
REMARK    2  A    between atoms: N_4  and  C_5
REMARK    3  A    between atoms: C_7  and  O_8
REMARK    4  A    between atoms: C_9  and  O_10
REMARK    5  A    between atoms: C_11  and  C_12
REMARK    6  A    between atoms: C_12  and  O_13
REMARK                            x       y       z     vdW  Elec       q    Type
REMARK                         _______ _______ _______ _____ _____    ______ ____
ROOT
ATOM      1  C   UNL     1       4.276   3.930  17.736  0.00  0.00    +0.000 C 
ATOM      2  C   UNL     1       4.261   2.424  17.515  0.00  0.00    +0.000 C 
ATOM      3  C   UNL     1       3.974   1.798  18.870  0.00  0.00    +0.000 C 
ATOM      4  C   UNL     1       2.660   2.340  19.457  0.00  0.00    +0.000 C 
ATOM      5  C   UNL     1       2.602   3.887  19.396  0.00  0.00    +0.000 C 
ATOM      6  O   UNL     1       2.933   4.358  18.054  0.00  0.00    +0.000 OA
ENDROOT
BRANCH   1  10
ATOM      7  C   UNL     1       6.089   3.781  13.202  0.00  0.00    +0.000 C 
ATOM      8  C   UNL     1       5.913   4.384  14.568  0.00  0.00    +0.000 A 
ATOM      9  N   UNL     1       4.975   4.004  15.382  0.00  0.00    +0.000 NA
ATOM     10  N   UNL     1       4.913   4.633  16.623  0.00  0.00    +0.000 N 
ATOM     11  C   UNL     1       5.774   5.679  16.990  0.00  0.00    +0.000 A 
ATOM     12  O   UNL     1       5.881   6.122  18.136  0.00  0.00    +0.000 OA
ATOM     13  N   UNL     1       6.598   6.168  16.036  0.00  0.00    +0.000 N 
ATOM     14  C   UNL     1       6.935   5.429  14.951  0.00  0.00    +0.000 A 
ATOM     15  O   UNL     1       7.995   5.526  14.352  0.00  0.00    +0.000 OA
ATOM     16  H   UNL     1       7.313   6.789  16.384  0.00  0.00    +0.000 HD
ENDBRANCH   1  10
BRANCH   3  17
ATOM     17  O   UNL     1       3.922   0.380  18.738  0.00  0.00    +0.000 OA
ATOM     18  H   UNL     1       3.544   0.205  17.853  0.00  0.00    +0.000 HD
ENDBRANCH   3  17
BRANCH   4  19
ATOM     19  O   UNL     1       1.579   1.750  18.714  0.00  0.00    +0.000 OA
ATOM     20  H   UNL     1       0.817   2.359  18.765  0.00  0.00    +0.000 HD
ENDBRANCH   4  19
BRANCH   5  21
ATOM     21  C   UNL     1       1.225   4.392  19.866  0.00  0.00    +0.000 C 
BRANCH  21  22
ATOM     22  O   UNL     1       0.509   3.412  20.611  0.00  0.00    +0.000 OA
ATOM     23  H   UNL     1       0.083   3.846  21.367  0.00  0.00    +0.000 HD
ENDBRANCH  21  22
ENDBRANCH   5  21
TORSDOF 5
ENDMDL
MODEL 4
REMARK VINA RESULT:      -6.7      2.436      2.915
REMARK  Name = 
REMARK  6 active torsions:
REMARK  status: ('A' for Active; 'I' for Inactive)
REMARK    1  A    between atoms: C_1  and  C_2
REMARK    2  A    between atoms: N_4  and  C_5
REMARK    3  A    between atoms: C_7  and  O_8
REMARK    4  A    between atoms: C_9  and  O_10
REMARK    5  A    between atoms: C_11  and  C_12
REMARK    6  A    between atoms: C_12  and  O_13
REMARK                            x       y       z     vdW  Elec       q    Type
REMARK                         _______ _______ _______ _____ _____    ______ ____
ROOT
ATOM      1  C   UNL     1       4.399   5.247  17.804  0.00  0.00    +0.000 C 
ATOM      2  C   UNL     1       5.713   5.685  18.435  0.00  0.00    +0.000 C 
ATOM      3  C   UNL     1       6.742   4.636  18.046  0.00  0.00    +0.000 C 
ATOM      4  C   UNL     1       6.823   4.488  16.518  0.00  0.00    +0.000 C 
ATOM      5  C   UNL     1       5.417   4.329  15.884  0.00  0.00    +0.000 C 
ATOM      6  O   UNL     1       4.518   5.373  16.368  0.00  0.00    +0.000 OA
ENDROOT
BRANCH   1  10
ATOM      7  C   UNL     1       1.785   9.345  18.280  0.00  0.00    +0.000 C 
ATOM      8  C   UNL     1       2.233   7.973  18.697  0.00  0.00    +0.000 A 
ATOM      9  N   UNL     1       2.891   7.183  17.903  0.00  0.00    +0.000 NA
ATOM     10  N   UNL     1       3.255   5.934  18.401  0.00  0.00    +0.000 N 
ATOM     11  C   UNL     1       2.893   5.491  19.682  0.00  0.00    +0.000 A 
ATOM     12  O   UNL     1       3.357   4.487  20.228  0.00  0.00    +0.000 OA
ATOM     13  N   UNL     1       2.043   6.268  20.391  0.00  0.00    +0.000 N 
ATOM     14  C   UNL     1       1.909   7.590  20.123  0.00  0.00    +0.000 A 
ATOM     15  O   UNL     1       1.621   8.437  20.954  0.00  0.00    +0.000 OA
ATOM     16  H   UNL     1       1.949   6.005  21.360  0.00  0.00    +0.000 HD
ENDBRANCH   1  10
BRANCH   3  17
ATOM     17  O   UNL     1       8.011   4.992  18.587  0.00  0.00    +0.000 OA
ATOM     18  H   UNL     1       8.674   4.481  18.081  0.00  0.00    +0.000 HD
ENDBRANCH   3  17
BRANCH   4  19
ATOM     19  O   UNL     1       7.496   5.650  16.005  0.00  0.00    +0.000 OA
ATOM     20  H   UNL     1       7.680   6.243  16.760  0.00  0.00    +0.000 HD
ENDBRANCH   4  19
BRANCH   5  21
ATOM     21  C   UNL     1       5.519   4.317  14.348  0.00  0.00    +0.000 C 
BRANCH  21  22
ATOM     22  O   UNL     1       6.589   3.502  13.878  0.00  0.00    +0.000 OA
ATOM     23  H   UNL     1       7.255   4.073  13.461  0.00  0.00    +0.000 HD
ENDBRANCH  21  22
ENDBRANCH   5  21
TORSDOF 5
ENDMDL
MODEL 5
REMARK VINA RESULT:      -6.7      2.192      5.969
REMARK  Name = 
REMARK  6 active torsions:
REMARK  status: ('A' for Active; 'I' for Inactive)
REMARK    1  A    between atoms: C_1  and  C_2
REMARK    2  A    between atoms: N_4  and  C_5
REMARK    3  A    between atoms: C_7  and  O_8
REMARK    4  A    between atoms: C_9  and  O_10
REMARK    5  A    between atoms: C_11  and  C_12
REMARK    6  A    between atoms: C_12  and  O_13
REMARK                            x       y       z     vdW  Elec       q    Type
REMARK                         _______ _______ _______ _____ _____    ______ ____
ROOT
ATOM      1  C   UNL     1       4.438   4.088  19.231  0.00  0.00    +0.000 C 
ATOM      2  C   UNL     1       4.423   2.892  18.289  0.00  0.00    +0.000 C 
ATOM      3  C   UNL     1       4.098   1.680  19.145  0.00  0.00    +0.000 C 
ATOM      4  C   UNL     1       2.770   1.878  19.895  0.00  0.00    +0.000 C 
ATOM      5  C   UNL     1       2.719   3.251  20.612  0.00  0.00    +0.000 C 
ATOM      6  O   UNL     1       3.088   4.322  19.691  0.00  0.00    +0.000 OA
ENDROOT
BRANCH   1  10
ATOM      7  C   UNL     1       5.167   6.906  15.309  0.00  0.00    +0.000 C 
ATOM      8  C   UNL     1       5.516   6.364  16.667  0.00  0.00    +0.000 A 
ATOM      9  N   UNL     1       4.668   5.698  17.390  0.00  0.00    +0.000 NA
ATOM     10  N   UNL     1       5.106   5.241  18.632  0.00  0.00    +0.000 N 
ATOM     11  C   UNL     1       6.385   5.522  19.137  0.00  0.00    +0.000 A 
ATOM     12  O   UNL     1       6.875   4.979  20.129  0.00  0.00    +0.000 OA
ATOM     13  N   UNL     1       7.155   6.384  18.434  0.00  0.00    +0.000 N 
ATOM     14  C   UNL     1       6.939   6.603  17.114  0.00  0.00    +0.000 A 
ATOM     15  O   UNL     1       7.812   6.903  16.314  0.00  0.00    +0.000 OA
ATOM     16  H   UNL     1       8.117   6.420  18.734  0.00  0.00    +0.000 HD
ENDBRANCH   1  10
BRANCH   3  17
ATOM     17  O   UNL     1       4.045   0.517  18.323  0.00  0.00    +0.000 OA
ATOM     18  H   UNL     1       3.181   0.096  18.506  0.00  0.00    +0.000 HD
ENDBRANCH   3  17
BRANCH   4  19
ATOM     19  O   UNL     1       1.708   1.754  18.934  0.00  0.00    +0.000 OA
ATOM     20  H   UNL     1       0.888   2.078  19.356  0.00  0.00    +0.000 HD
ENDBRANCH   4  19
BRANCH   5  21
ATOM     21  C   UNL     1       1.332   3.478  21.241  0.00  0.00    +0.000 C 
BRANCH  21  22
ATOM     22  O   UNL     1       0.321   3.710  20.264  0.00  0.00    +0.000 OA
ATOM     23  H   UNL     1       0.611   3.329  19.420  0.00  0.00    +0.000 HD
ENDBRANCH  21  22
ENDBRANCH   5  21
TORSDOF 5
ENDMDL
MODEL 6
REMARK VINA RESULT:      -6.7      2.386      6.322
REMARK  Name = 
REMARK  6 active torsions:
REMARK  status: ('A' for Active; 'I' for Inactive)
REMARK    1  A    between atoms: C_1  and  C_2
REMARK    2  A    between atoms: N_4  and  C_5
REMARK    3  A    between atoms: C_7  and  O_8
REMARK    4  A    between atoms: C_9  and  O_10
REMARK    5  A    between atoms: C_11  and  C_12
REMARK    6  A    between atoms: C_12  and  O_13
REMARK                            x       y       z     vdW  Elec       q    Type
REMARK                         _______ _______ _______ _____ _____    ______ ____
ROOT
ATOM      1  C   UNL     1       4.248   4.338  17.910  0.00  0.00    +0.000 C 
ATOM      2  C   UNL     1       3.669   2.965  17.600  0.00  0.00    +0.000 C 
ATOM      3  C   UNL     1       3.364   2.320  18.941  0.00  0.00    +0.000 C 
ATOM      4  C   UNL     1       2.418   3.203  19.772  0.00  0.00    +0.000 C 
ATOM      5  C   UNL     1       2.905   4.674  19.820  0.00  0.00    +0.000 C 
ATOM      6  O   UNL     1       3.199   5.158  18.474  0.00  0.00    +0.000 OA
ENDROOT
BRANCH   1  10
ATOM      7  C   UNL     1       5.857   3.792  13.331  0.00  0.00    +0.000 C 
ATOM      8  C   UNL     1       5.818   4.456  14.678  0.00  0.00    +0.000 A 
ATOM      9  N   UNL     1       4.865   4.239  15.534  0.00  0.00    +0.000 NA
ATOM     10  N   UNL     1       4.937   4.909  16.754  0.00  0.00    +0.000 N 
ATOM     11  C   UNL     1       5.950   5.832  17.056  0.00  0.00    +0.000 A 
ATOM     12  O   UNL     1       6.159   6.291  18.181  0.00  0.00    +0.000 OA
ATOM     13  N   UNL     1       6.801   6.169  16.060  0.00  0.00    +0.000 N 
ATOM     14  C   UNL     1       6.991   5.356  14.992  0.00  0.00    +0.000 A 
ATOM     15  O   UNL     1       8.032   5.282  14.358  0.00  0.00    +0.000 OA
ATOM     16  H   UNL     1       7.608   6.692  16.363  0.00  0.00    +0.000 HD
ENDBRANCH   1  10
BRANCH   3  17
ATOM     17  O   UNL     1       2.795   1.030  18.730  0.00  0.00    +0.000 OA
ATOM     18  H   UNL     1       1.865   1.185  18.470  0.00  0.00    +0.000 HD
ENDBRANCH   3  17
BRANCH   4  19
ATOM     19  O   UNL     1       1.109   3.108  19.184  0.00  0.00    +0.000 OA
ATOM     20  H   UNL     1       0.671   2.321  19.564  0.00  0.00    +0.000 HD
ENDBRANCH   4  19
BRANCH   5  21
ATOM     21  C   UNL     1       1.873   5.558  20.543  0.00  0.00    +0.000 C 
BRANCH  21  22
ATOM     22  O   UNL     1       2.245   6.934  20.553  0.00  0.00    +0.000 OA
ATOM     23  H   UNL     1       1.755   7.383  21.261  0.00  0.00    +0.000 HD
ENDBRANCH  21  22
ENDBRANCH   5  21
TORSDOF 5
ENDMDL
MODEL 7
REMARK VINA RESULT:      -6.6      1.229      2.600
REMARK  Name = 
REMARK  6 active torsions:
REMARK  status: ('A' for Active; 'I' for Inactive)
REMARK    1  A    between atoms: C_1  and  C_2
REMARK    2  A    between atoms: N_4  and  C_5
REMARK    3  A    between atoms: C_7  and  O_8
REMARK    4  A    between atoms: C_9  and  O_10
REMARK    5  A    between atoms: C_11  and  C_12
REMARK    6  A    between atoms: C_12  and  O_13
REMARK                            x       y       z     vdW  Elec       q    Type
REMARK                         _______ _______ _______ _____ _____    ______ ____
ROOT
ATOM      1  C   UNL     1       4.842   4.418  18.412  0.00  0.00    +0.000 C 
ATOM      2  C   UNL     1       5.209   3.699  17.121  0.00  0.00    +0.000 C 
ATOM      3  C   UNL     1       6.044   4.677  16.312  0.00  0.00    +0.000 C 
ATOM      4  C   UNL     1       7.269   5.147  17.114  0.00  0.00    +0.000 C 
ATOM      5  C   UNL     1       6.876   5.607  18.541  0.00  0.00    +0.000 C 
ATOM      6  O   UNL     1       6.046   4.597  19.192  0.00  0.00    +0.000 OA
ENDROOT
BRANCH   1  10
ATOM      7  C   UNL     1       0.437   4.751  20.495  0.00  0.00    +0.000 C 
ATOM      8  C   UNL     1       1.759   4.088  20.230  0.00  0.00    +0.000 A 
ATOM      9  N   UNL     1       2.533   4.444  19.250  0.00  0.00    +0.000 NA
ATOM     10  N   UNL     1       3.737   3.758  19.105  0.00  0.00    +0.000 N 
ATOM     11  C   UNL     1       4.104   2.684  19.930  0.00  0.00    +0.000 A 
ATOM     12  O   UNL     1       5.232   2.185  19.962  0.00  0.00    +0.000 OA
ATOM     13  N   UNL     1       3.179   2.227  20.803  0.00  0.00    +0.000 N 
ATOM     14  C   UNL     1       2.152   3.011  21.214  0.00  0.00    +0.000 A 
ATOM     15  O   UNL     1       1.614   2.925  22.307  0.00  0.00    +0.000 OA
ATOM     16  H   UNL     1       3.539   1.579  21.488  0.00  0.00    +0.000 HD
ENDBRANCH   1  10
BRANCH   3  17
ATOM     17  O   UNL     1       6.445   4.063  15.090  0.00  0.00    +0.000 OA
ATOM     18  H   UNL     1       6.214   4.696  14.381  0.00  0.00    +0.000 HD
ENDBRANCH   3  17
BRANCH   4  19
ATOM     19  O   UNL     1       8.202   4.054  17.159  0.00  0.00    +0.000 OA
ATOM     20  H   UNL     1       7.941   3.472  17.899  0.00  0.00    +0.000 HD
ENDBRANCH   4  19
BRANCH   5  21
ATOM     21  C   UNL     1       8.133   5.944  19.363  0.00  0.00    +0.000 C 
BRANCH  21  22
ATOM     22  O   UNL     1       8.117   5.346  20.656  0.00  0.00    +0.000 OA
ATOM     23  H   UNL     1       7.204   5.097  20.872  0.00  0.00    +0.000 HD
ENDBRANCH  21  22
ENDBRANCH   5  21
TORSDOF 5
ENDMDL
MODEL 8
REMARK VINA RESULT:      -6.6      2.316      6.231
REMARK  Name = 
REMARK  6 active torsions:
REMARK  status: ('A' for Active; 'I' for Inactive)
REMARK    1  A    between atoms: C_1  and  C_2
REMARK    2  A    between atoms: N_4  and  C_5
REMARK    3  A    between atoms: C_7  and  O_8
REMARK    4  A    between atoms: C_9  and  O_10
REMARK    5  A    between atoms: C_11  and  C_12
REMARK    6  A    between atoms: C_12  and  O_13
REMARK                            x       y       z     vdW  Elec       q    Type
REMARK                         _______ _______ _______ _____ _____    ______ ____
ROOT
ATOM      1  C   UNL     1       4.025   4.101  18.875  0.00  0.00    +0.000 C 
ATOM      2  C   UNL     1       3.100   3.533  17.809  0.00  0.00    +0.000 C 
ATOM      3  C   UNL     1       2.649   2.174  18.317  0.00  0.00    +0.000 C 
ATOM      4  C   UNL     1       1.982   2.298  19.696  0.00  0.00    +0.000 C 
ATOM      5  C   UNL     1       2.842   3.138  20.674  0.00  0.00    +0.000 C 
ATOM      6  O   UNL     1       3.238   4.398  20.051  0.00  0.00    +0.000 OA
ENDROOT
BRANCH   1  10
ATOM      7  C   UNL     1       5.249   6.964  15.112  0.00  0.00    +0.000 C 
ATOM      8  C   UNL     1       5.460   6.352  16.468  0.00  0.00    +0.000 A 
ATOM      9  N   UNL     1       4.512   5.741  17.111  0.00  0.00    +0.000 NA
ATOM     10  N   UNL     1       4.828   5.210  18.361  0.00  0.00    +0.000 N 
ATOM     11  C   UNL     1       6.090   5.361  18.955  0.00  0.00    +0.000 A 
ATOM     12  O   UNL     1       6.466   4.746  19.955  0.00  0.00    +0.000 OA
ATOM     13  N   UNL     1       6.976   6.173  18.333  0.00  0.00    +0.000 N 
ATOM     14  C   UNL     1       6.867   6.451  17.011  0.00  0.00    +0.000 A 
ATOM     15  O   UNL     1       7.812   6.697  16.278  0.00  0.00    +0.000 OA
ATOM     16  H   UNL     1       7.916   6.114  18.694  0.00  0.00    +0.000 HD
ENDBRANCH   1  10
BRANCH   3  17
ATOM     17  O   UNL     1       1.756   1.586  17.374  0.00  0.00    +0.000 OA
ATOM     18  H   UNL     1       2.009   0.643  17.315  0.00  0.00    +0.000 HD
ENDBRANCH   3  17
BRANCH   4  19
ATOM     19  O   UNL     1       0.688   2.893  19.499  0.00  0.00    +0.000 OA
ATOM     20  H   UNL     1       0.748   3.480  18.720  0.00  0.00    +0.000 HD
ENDBRANCH   4  19
BRANCH   5  21
ATOM     21  C   UNL     1       2.090   3.357  22.000  0.00  0.00    +0.000 C 
BRANCH  21  22
ATOM     22  O   UNL     1       1.281   2.241  22.359  0.00  0.00    +0.000 OA
ATOM     23  H   UNL     1       0.353   2.525  22.387  0.00  0.00    +0.000 HD
ENDBRANCH  21  22
ENDBRANCH   5  21
TORSDOF 5
ENDMDL
MODEL 9
REMARK VINA RESULT:      -6.5      3.623      6.011
REMARK  Name = 
REMARK  6 active torsions:
REMARK  status: ('A' for Active; 'I' for Inactive)
REMARK    1  A    between atoms: C_1  and  C_2
REMARK    2  A    between atoms: N_4  and  C_5
REMARK    3  A    between atoms: C_7  and  O_8
REMARK    4  A    between atoms: C_9  and  O_10
REMARK    5  A    between atoms: C_11  and  C_12
REMARK    6  A    between atoms: C_12  and  O_13
REMARK                            x       y       z     vdW  Elec       q    Type
REMARK                         _______ _______ _______ _____ _____    ______ ____
ROOT
ATOM      1  C   UNL     1       2.165   6.179  19.701  0.00  0.00    +0.000 C 
ATOM      2  C   UNL     1       1.266   5.267  20.523  0.00  0.00    +0.000 C 
ATOM      3  C   UNL     1       1.298   3.910  19.840  0.00  0.00    +0.000 C 
ATOM      4  C   UNL     1       2.741   3.392  19.719  0.00  0.00    +0.000 C 
ATOM      5  C   UNL     1       3.689   4.470  19.135  0.00  0.00    +0.000 C 
ATOM      6  O   UNL     1       3.531   5.731  19.854  0.00  0.00    +0.000 OA
ENDROOT
BRANCH   1  10
ATOM      7  C   UNL     1       0.120   9.528  22.611  0.00  0.00    +0.000 C 
ATOM      8  C   UNL     1       0.753   9.055  21.332  0.00  0.00    +0.000 A 
ATOM      9  N   UNL     1       1.387   7.924  21.246  0.00  0.00    +0.000 NA
ATOM     10  N   UNL     1       1.930   7.590  20.006  0.00  0.00    +0.000 N 
ATOM     11  C   UNL     1       1.864   8.441  18.893  0.00  0.00    +0.000 A 
ATOM     12  O   UNL     1       2.153   8.104  17.742  0.00  0.00    +0.000 OA
ATOM     13  N   UNL     1       1.370   9.684  19.089  0.00  0.00    +0.000 N 
ATOM     14  C   UNL     1       0.558   9.961  20.139  0.00  0.00    +0.000 A 
ATOM     15  O   UNL     1      -0.314  10.816  20.129  0.00  0.00    +0.000 OA
ATOM     16  H   UNL     1       1.180  10.194  18.240  0.00  0.00    +0.000 HD
ENDBRANCH   1  10
BRANCH   3  17
ATOM     17  O   UNL     1       0.490   2.991  20.570  0.00  0.00    +0.000 OA
ATOM     18  H   UNL     1       0.973   2.808  21.401  0.00  0.00    +0.000 HD
ENDBRANCH   3  17
BRANCH   4  19
ATOM     19  O   UNL     1       3.165   2.982  21.030  0.00  0.00    +0.000 OA
ATOM     20  H   UNL     1       2.976   3.718  21.646  0.00  0.00    +0.000 HD
ENDBRANCH   4  19
BRANCH   5  21
ATOM     21  C   UNL     1       5.145   3.971  19.150  0.00  0.00    +0.000 C 
BRANCH  21  22
ATOM     22  O   UNL     1       5.238   2.564  19.355  0.00  0.00    +0.000 OA
ATOM     23  H   UNL     1       5.394   2.134  18.498  0.00  0.00    +0.000 HD
ENDBRANCH  21  22
ENDBRANCH   5  21
TORSDOF 5
ENDMDL
