MODEL 1
REMARK VINA RESULT:      -7.9      0.000      0.000
REMARK  Name = 
REMARK  7 active torsions:
REMARK  status: ('A' for Active; 'I' for Inactive)
REMARK    1  A    between atoms: C_1  and  O_2
REMARK    2  A    between atoms: O_2  and  C_3
REMARK    3  A    between atoms: C_3  and  C_5
REMARK    4  A    between atoms: C_9  and  N_10
REMARK    5  A    between atoms: N_10  and  C_11
REMARK    6  A    between atoms: C_11  and  N_13
REMARK    7  A    between atoms: N_16  and  C_17
REMARK                            x       y       z     vdW  Elec       q    Type
REMARK                         _______ _______ _______ _____ _____    ______ ____
ROOT
ATOM      1  C   UNL     1       2.555   3.403  18.858  0.00  0.00    +0.000 C 
ATOM      2  S   UNL     1       1.303   2.288  18.909  0.00  0.00    +0.000 S 
ENDROOT
BRANCH   1   3
ATOM      3  N   UNL     1       2.362   4.781  19.051  0.00  0.00    +0.000 N 
ATOM      4  C   UNL     1       1.761   5.250  20.314  0.00  0.00    +0.000 C 
ATOM      5  C   UNL     1       2.280   6.640  20.702  0.00  0.00    +0.000 C 
ATOM      6  N   UNL     1       2.179   7.593  19.584  0.00  0.00    +0.000 N 
ATOM      7  C   UNL     1       2.672   7.120  18.276  0.00  0.00    +0.000 C 
ATOM      8  C   UNL     1       2.128   5.718  17.939  0.00  0.00    +0.000 C 
BRANCH   6   9
ATOM      9  C   UNL     1       1.328   8.688  19.634  0.00  0.00    +0.000 A 
ATOM     10  C   UNL     1       0.624   8.965  20.822  0.00  0.00    +0.000 A 
ATOM     11  C   UNL     1      -0.273  10.035  20.918  0.00  0.00    +0.000 A 
ATOM     12  C   UNL     1      -0.488  10.865  19.823  0.00  0.00    +0.000 A 
ATOM     13  C   UNL     1       0.193  10.620  18.634  0.00  0.00    +0.000 A 
ATOM     14  C   UNL     1       1.083   9.547  18.549  0.00  0.00    +0.000 A 
ATOM     15  F   UNL     1       1.739   9.381  17.388  0.00  0.00    +0.000 F 
ENDBRANCH   6   9
ENDBRANCH   1   3
BRANCH   1  16
ATOM     16  N   UNL     1       3.886   3.150  18.538  0.00  0.00    +0.000 N 
ATOM     17  H   UNL     1       4.142   2.183  18.691  0.00  0.00    +0.000 HD
BRANCH  16  22
ATOM     18  C   UNL     1       6.475   4.780  16.398  0.00  0.00    +0.000 A 
ATOM     19  C   UNL     1       7.192   5.494  17.363  0.00  0.00    +0.000 A 
ATOM     20  C   UNL     1       6.783   5.448  18.695  0.00  0.00    +0.000 A 
ATOM     21  C   UNL     1       5.662   4.692  19.057  0.00  0.00    +0.000 A 
ATOM     22  C   UNL     1       4.923   3.991  18.092  0.00  0.00    +0.000 A 
ATOM     23  C   UNL     1       5.330   4.058  16.766  0.00  0.00    +0.000 A 
BRANCH  18  24
ATOM     24  C   UNL     1       6.959   4.750  15.002  0.00  0.00    +0.000 C 
ATOM     25  O   UNL     1       7.804   5.504  14.546  0.00  0.00    +0.000 OA
BRANCH  24  27
ATOM     26  C   UNL     1       6.388   3.794  12.930  0.00  0.00    +0.000 C 
ATOM     27  O   UNL     1       6.368   3.710  14.353  0.00  0.00    +0.000 OA
ENDBRANCH  24  27
ENDBRANCH  18  24
ENDBRANCH  16  22
ENDBRANCH   1  16
TORSDOF 6
ENDMDL
MODEL 2
REMARK VINA RESULT:      -7.9      1.000      1.369
REMARK  Name = 
REMARK  7 active torsions:
REMARK  status: ('A' for Active; 'I' for Inactive)
REMARK    1  A    between atoms: C_1  and  O_2
REMARK    2  A    between atoms: O_2  and  C_3
REMARK    3  A    between atoms: C_3  and  C_5
REMARK    4  A    between atoms: C_9  and  N_10
REMARK    5  A    between atoms: N_10  and  C_11
REMARK    6  A    between atoms: C_11  and  N_13
REMARK    7  A    between atoms: N_16  and  C_17
REMARK                            x       y       z     vdW  Elec       q    Type
REMARK                         _______ _______ _______ _____ _____    ______ ____
ROOT
ATOM      1  C   UNL     1       2.591   3.587  18.976  0.00  0.00    +0.000 C 
ATOM      2  S   UNL     1       1.368   2.455  18.790  0.00  0.00    +0.000 S 
ENDROOT
BRANCH   1   3
ATOM      3  N   UNL     1       2.345   4.953  19.196  0.00  0.00    +0.000 N 
ATOM      4  C   UNL     1       1.587   5.360  20.394  0.00  0.00    +0.000 C 
ATOM      5  C   UNL     1       2.024   6.743  20.892  0.00  0.00    +0.000 C 
ATOM      6  N   UNL     1       2.034   7.738  19.807  0.00  0.00    +0.000 N 
ATOM      7  C   UNL     1       2.690   7.326  18.550  0.00  0.00    +0.000 C 
ATOM      8  C   UNL     1       2.223   5.928  18.099  0.00  0.00    +0.000 C 
BRANCH   6   9
ATOM      9  C   UNL     1       1.158   8.813  19.796  0.00  0.00    +0.000 A 
ATOM     10  C   UNL     1       0.943   9.521  18.598  0.00  0.00    +0.000 A 
ATOM     11  C   UNL     1       0.098  10.634  18.537  0.00  0.00    +0.000 A 
ATOM     12  C   UNL     1      -0.566  11.069  19.678  0.00  0.00    +0.000 A 
ATOM     13  C   UNL     1      -0.378  10.391  20.879  0.00  0.00    +0.000 A 
ATOM     14  C   UNL     1       0.471   9.284  20.929  0.00  0.00    +0.000 A 
ATOM     15  F   UNL     1       0.586   8.647  22.108  0.00  0.00    +0.000 F 
ENDBRANCH   6   9
ENDBRANCH   1   3
BRANCH   1  16
ATOM     16  N   UNL     1       3.960   3.366  18.851  0.00  0.00    +0.000 N 
ATOM     17  H   UNL     1       4.245   2.480  19.249  0.00  0.00    +0.000 HD
BRANCH  16  22
ATOM     18  C   UNL     1       6.504   4.813  16.533  0.00  0.00    +0.000 A 
ATOM     19  C   UNL     1       7.268   5.567  17.430  0.00  0.00    +0.000 A 
ATOM     20  C   UNL     1       6.905   5.607  18.775  0.00  0.00    +0.000 A 
ATOM     21  C   UNL     1       5.782   4.898  19.219  0.00  0.00    +0.000 A 
ATOM     22  C   UNL     1       4.997   4.158  18.322  0.00  0.00    +0.000 A 
ATOM     23  C   UNL     1       5.359   4.139  16.982  0.00  0.00    +0.000 A 
BRANCH  18  24
ATOM     24  C   UNL     1       6.938   4.692  15.126  0.00  0.00    +0.000 C 
ATOM     25  O   UNL     1       7.762   5.418  14.591  0.00  0.00    +0.000 OA
BRANCH  24  27
ATOM     26  C   UNL     1       5.967   3.756  13.200  0.00  0.00    +0.000 C 
ATOM     27  O   UNL     1       6.333   3.608  14.570  0.00  0.00    +0.000 OA
ENDBRANCH  24  27
ENDBRANCH  18  24
ENDBRANCH  16  22
ENDBRANCH   1  16
TORSDOF 6
ENDMDL
MODEL 3
REMARK VINA RESULT:      -7.7      1.528      2.037
REMARK  Name = 
REMARK  7 active torsions:
REMARK  status: ('A' for Active; 'I' for Inactive)
REMARK    1  A    between atoms: C_1  and  O_2
REMARK    2  A    between atoms: O_2  and  C_3
REMARK    3  A    between atoms: C_3  and  C_5
REMARK    4  A    between atoms: C_9  and  N_10
REMARK    5  A    between atoms: N_10  and  C_11
REMARK    6  A    between atoms: C_11  and  N_13
REMARK    7  A    between atoms: N_16  and  C_17
REMARK                            x       y       z     vdW  Elec       q    Type
REMARK                         _______ _______ _______ _____ _____    ______ ____
ROOT
ATOM      1  C   UNL     1       2.762   5.490  19.597  0.00  0.00    +0.000 C 
ATOM      2  S   UNL     1       2.446   4.619  20.996  0.00  0.00    +0.000 S 
ENDROOT
BRANCH   1   3
ATOM      3  N   UNL     1       2.270   6.787  19.374  0.00  0.00    +0.000 N 
ATOM      4  C   UNL     1       1.405   7.409  20.393  0.00  0.00    +0.000 C 
ATOM      5  C   UNL     1       1.570   8.934  20.416  0.00  0.00    +0.000 C 
ATOM      6  N   UNL     1       1.448   9.517  19.070  0.00  0.00    +0.000 N 
ATOM      7  C   UNL     1       2.217   8.854  17.998  0.00  0.00    +0.000 C 
ATOM      8  C   UNL     1       2.022   7.325  18.026  0.00  0.00    +0.000 C 
BRANCH   6   9
ATOM      9  C   UNL     1       0.397  10.358  18.732  0.00  0.00    +0.000 A 
ATOM     10  C   UNL     1      -0.689   9.848  17.995  0.00  0.00    +0.000 A 
ATOM     11  C   UNL     1      -1.759  10.657  17.597  0.00  0.00    +0.000 A 
ATOM     12  C   UNL     1      -1.775  12.006  17.933  0.00  0.00    +0.000 A 
ATOM     13  C   UNL     1      -0.718  12.542  18.662  0.00  0.00    +0.000 A 
ATOM     14  C   UNL     1       0.346  11.726  19.050  0.00  0.00    +0.000 A 
ATOM     15  F   UNL     1       1.321  12.291  19.784  0.00  0.00    +0.000 F 
ENDBRANCH   6   9
ENDBRANCH   1   3
BRANCH   1  16
ATOM     16  N   UNL     1       3.443   5.040  18.469  0.00  0.00    +0.000 N 
ATOM     17  H   UNL     1       2.851   4.497  17.853  0.00  0.00    +0.000 HD
BRANCH  16  22
ATOM     18  C   UNL     1       6.558   5.029  16.410  0.00  0.00    +0.000 A 
ATOM     19  C   UNL     1       7.526   5.158  17.411  0.00  0.00    +0.000 A 
ATOM     20  C   UNL     1       7.126   5.280  18.741  0.00  0.00    +0.000 A 
ATOM     21  C   UNL     1       5.764   5.274  19.066  0.00  0.00    +0.000 A 
ATOM     22  C   UNL     1       4.786   5.168  18.067  0.00  0.00    +0.000 A 
ATOM     23  C   UNL     1       5.195   5.065  16.744  0.00  0.00    +0.000 A 
BRANCH  18  24
ATOM     24  C   UNL     1       6.977   4.807  15.011  0.00  0.00    +0.000 C 
ATOM     25  O   UNL     1       7.828   5.463  14.432  0.00  0.00    +0.000 OA
BRANCH  24  27
ATOM     26  C   UNL     1       6.153   3.700  13.107  0.00  0.00    +0.000 C 
ATOM     27  O   UNL     1       6.322   3.720  14.522  0.00  0.00    +0.000 OA
ENDBRANCH  24  27
ENDBRANCH  18  24
ENDBRANCH  16  22
ENDBRANCH   1  16
TORSDOF 6
ENDMDL
MODEL 4
REMARK VINA RESULT:      -7.6      2.320      3.547
REMARK  Name = 
REMARK  7 active torsions:
REMARK  status: ('A' for Active; 'I' for Inactive)
REMARK    1  A    between atoms: C_1  and  O_2
REMARK    2  A    between atoms: O_2  and  C_3
REMARK    3  A    between atoms: C_3  and  C_5
REMARK    4  A    between atoms: C_9  and  N_10
REMARK    5  A    between atoms: N_10  and  C_11
REMARK    6  A    between atoms: C_11  and  N_13
REMARK    7  A    between atoms: N_16  and  C_17
REMARK                            x       y       z     vdW  Elec       q    Type
REMARK                         _______ _______ _______ _____ _____    ______ ____
ROOT
ATOM      1  C   UNL     1       6.255   4.952  17.607  0.00  0.00    +0.000 C 
ATOM      2  S   UNL     1       7.696   5.092  18.455  0.00  0.00    +0.000 S 
ENDROOT
BRANCH   1   3
ATOM      3  N   UNL     1       5.081   5.630  17.973  0.00  0.00    +0.000 N 
ATOM      4  C   UNL     1       4.860   6.999  17.472  0.00  0.00    +0.000 C 
ATOM      5  C   UNL     1       3.366   7.298  17.292  0.00  0.00    +0.000 C 
ATOM      6  N   UNL     1       2.591   6.953  18.495  0.00  0.00    +0.000 N 
ATOM      7  C   UNL     1       2.863   5.631  19.092  0.00  0.00    +0.000 C 
ATOM      8  C   UNL     1       4.377   5.379  19.242  0.00  0.00    +0.000 C 
BRANCH   6   9
ATOM      9  C   UNL     1       1.957   7.924  19.257  0.00  0.00    +0.000 A 
ATOM     10  C   UNL     1       1.719   7.688  20.625  0.00  0.00    +0.000 A 
ATOM     11  C   UNL     1       1.055   8.617  21.432  0.00  0.00    +0.000 A 
ATOM     12  C   UNL     1       0.611   9.819  20.892  0.00  0.00    +0.000 A 
ATOM     13  C   UNL     1       0.831  10.085  19.544  0.00  0.00    +0.000 A 
ATOM     14  C   UNL     1       1.492   9.149  18.747  0.00  0.00    +0.000 A 
ATOM     15  F   UNL     1       1.708   9.477  17.461  0.00  0.00    +0.000 F 
ENDBRANCH   6   9
ENDBRANCH   1   3
BRANCH   1  16
ATOM     16  N   UNL     1       6.000   4.111  16.527  0.00  0.00    +0.000 N 
ATOM     17  H   UNL     1       5.589   3.231  16.813  0.00  0.00    +0.000 HD
BRANCH  16  22
ATOM     18  C   UNL     1       5.901   3.617  12.827  0.00  0.00    +0.000 A 
ATOM     19  C   UNL     1       7.007   4.379  12.438  0.00  0.00    +0.000 A 
ATOM     20  C   UNL     1       7.741   5.066  13.403  0.00  0.00    +0.000 A 
ATOM     21  C   UNL     1       7.368   4.992  14.751  0.00  0.00    +0.000 A 
ATOM     22  C   UNL     1       6.246   4.249  15.147  0.00  0.00    +0.000 A 
ATOM     23  C   UNL     1       5.512   3.582  14.175  0.00  0.00    +0.000 A 
BRANCH  18  24
ATOM     24  C   UNL     1       5.176   2.813  11.821  0.00  0.00    +0.000 C 
ATOM     25  O   UNL     1       5.631   1.824  11.268  0.00  0.00    +0.000 OA
BRANCH  24  27
ATOM     26  C   UNL     1       3.451   3.414  10.340  0.00  0.00    +0.000 C 
ATOM     27  O   UNL     1       3.917   3.310  11.684  0.00  0.00    +0.000 OA
ENDBRANCH  24  27
ENDBRANCH  18  24
ENDBRANCH  16  22
ENDBRANCH   1  16
TORSDOF 6
ENDMDL
MODEL 5
REMARK VINA RESULT:      -7.6      1.720      2.687
REMARK  Name = 
REMARK  7 active torsions:
REMARK  status: ('A' for Active; 'I' for Inactive)
REMARK    1  A    between atoms: C_1  and  O_2
REMARK    2  A    between atoms: O_2  and  C_3
REMARK    3  A    between atoms: C_3  and  C_5
REMARK    4  A    between atoms: C_9  and  N_10
REMARK    5  A    between atoms: N_10  and  C_11
REMARK    6  A    between atoms: C_11  and  N_13
REMARK    7  A    between atoms: N_16  and  C_17
REMARK                            x       y       z     vdW  Elec       q    Type
REMARK                         _______ _______ _______ _____ _____    ______ ____
ROOT
ATOM      1  C   UNL     1       2.590   3.639  18.869  0.00  0.00    +0.000 C 
ATOM      2  S   UNL     1       1.361   2.517  18.662  0.00  0.00    +0.000 S 
ENDROOT
BRANCH   1   3
ATOM      3  N   UNL     1       2.352   5.001  19.118  0.00  0.00    +0.000 N 
ATOM      4  C   UNL     1       1.627   5.389  20.342  0.00  0.00    +0.000 C 
ATOM      5  C   UNL     1       2.079   6.763  20.851  0.00  0.00    +0.000 C 
ATOM      6  N   UNL     1       2.061   7.776  19.782  0.00  0.00    +0.000 N 
ATOM      7  C   UNL     1       2.683   7.384  18.502  0.00  0.00    +0.000 C 
ATOM      8  C   UNL     1       2.202   5.994  18.040  0.00  0.00    +0.000 C 
BRANCH   6   9
ATOM      9  C   UNL     1       1.186   8.852  19.812  0.00  0.00    +0.000 A 
ATOM     10  C   UNL     1       0.853   9.508  18.611  0.00  0.00    +0.000 A 
ATOM     11  C   UNL     1       0.003  10.619  18.586  0.00  0.00    +0.000 A 
ATOM     12  C   UNL     1      -0.544  11.105  19.769  0.00  0.00    +0.000 A 
ATOM     13  C   UNL     1      -0.237  10.479  20.973  0.00  0.00    +0.000 A 
ATOM     14  C   UNL     1       0.615   9.373  20.986  0.00  0.00    +0.000 A 
ATOM     15  F   UNL     1       0.847   8.787  22.174  0.00  0.00    +0.000 F 
ENDBRANCH   6   9
ENDBRANCH   1   3
BRANCH   1  16
ATOM     16  N   UNL     1       3.958   3.413  18.738  0.00  0.00    +0.000 N 
ATOM     17  H   UNL     1       4.293   2.699  19.373  0.00  0.00    +0.000 HD
BRANCH  16  22
ATOM     18  C   UNL     1       6.711   5.634  17.541  0.00  0.00    +0.000 A 
ATOM     19  C   UNL     1       6.670   5.374  16.168  0.00  0.00    +0.000 A 
ATOM     20  C   UNL     1       5.757   4.445  15.672  0.00  0.00    +0.000 A 
ATOM     21  C   UNL     1       4.890   3.779  16.548  0.00  0.00    +0.000 A 
ATOM     22  C   UNL     1       4.939   4.018  17.929  0.00  0.00    +0.000 A 
ATOM     23  C   UNL     1       5.864   4.932  18.414  0.00  0.00    +0.000 A 
BRANCH  18  24
ATOM     24  C   UNL     1       7.611   6.685  18.060  0.00  0.00    +0.000 C 
ATOM     25  O   UNL     1       8.240   6.603  19.104  0.00  0.00    +0.000 OA
BRANCH  24  27
ATOM     26  C   UNL     1       7.969   8.981  17.701  0.00  0.00    +0.000 C 
ATOM     27  O   UNL     1       7.674   7.698  17.155  0.00  0.00    +0.000 OA
ENDBRANCH  24  27
ENDBRANCH  18  24
ENDBRANCH  16  22
ENDBRANCH   1  16
TORSDOF 6
ENDMDL
MODEL 6
REMARK VINA RESULT:      -7.6      2.018      2.881
REMARK  Name = 
REMARK  7 active torsions:
REMARK  status: ('A' for Active; 'I' for Inactive)
REMARK    1  A    between atoms: C_1  and  O_2
REMARK    2  A    between atoms: O_2  and  C_3
REMARK    3  A    between atoms: C_3  and  C_5
REMARK    4  A    between atoms: C_9  and  N_10
REMARK    5  A    between atoms: N_10  and  C_11
REMARK    6  A    between atoms: C_11  and  N_13
REMARK    7  A    between atoms: N_16  and  C_17
REMARK                            x       y       z     vdW  Elec       q    Type
REMARK                         _______ _______ _______ _____ _____    ______ ____
ROOT
ATOM      1  C   UNL     1       2.528   6.121  19.274  0.00  0.00    +0.000 C 
ATOM      2  S   UNL     1       2.229   5.116  20.584  0.00  0.00    +0.000 S 
ENDROOT
BRANCH   1   3
ATOM      3  N   UNL     1       2.065   7.445  19.202  0.00  0.00    +0.000 N 
ATOM      4  C   UNL     1       2.402   8.258  18.018  0.00  0.00    +0.000 C 
ATOM      5  C   UNL     1       1.306   9.285  17.711  0.00  0.00    +0.000 C 
ATOM      6  N   UNL     1       0.937  10.065  18.904  0.00  0.00    +0.000 N 
ATOM      7  C   UNL     1       0.697   9.294  20.140  0.00  0.00    +0.000 C 
ATOM      8  C   UNL     1       1.822   8.272  20.397  0.00  0.00    +0.000 C 
BRANCH   6   9
ATOM      9  C   UNL     1       1.187  11.427  18.991  0.00  0.00    +0.000 A 
ATOM     10  C   UNL     1       2.292  11.975  18.312  0.00  0.00    +0.000 A 
ATOM     11  C   UNL     1       2.611  13.334  18.392  0.00  0.00    +0.000 A 
ATOM     12  C   UNL     1       1.825  14.191  19.155  0.00  0.00    +0.000 A 
ATOM     13  C   UNL     1       0.724  13.683  19.838  0.00  0.00    +0.000 A 
ATOM     14  C   UNL     1       0.418  12.324  19.753  0.00  0.00    +0.000 A 
ATOM     15  F   UNL     1      -0.678  11.897  20.405  0.00  0.00    +0.000 F 
ENDBRANCH   6   9
ENDBRANCH   1   3
BRANCH   1  16
ATOM     16  N   UNL     1       3.165   5.776  18.085  0.00  0.00    +0.000 N 
ATOM     17  H   UNL     1       2.509   5.609  17.332  0.00  0.00    +0.000 HD
BRANCH  16  22
ATOM     18  C   UNL     1       6.317   5.106  16.198  0.00  0.00    +0.000 A 
ATOM     19  C   UNL     1       7.211   4.915  17.255  0.00  0.00    +0.000 A 
ATOM     20  C   UNL     1       6.761   5.045  18.568  0.00  0.00    +0.000 A 
ATOM     21  C   UNL     1       5.422   5.367  18.820  0.00  0.00    +0.000 A 
ATOM     22  C   UNL     1       4.522   5.582  17.765  0.00  0.00    +0.000 A 
ATOM     23  C   UNL     1       4.986   5.467  16.462  0.00  0.00    +0.000 A 
BRANCH  18  24
ATOM     24  C   UNL     1       6.766   4.878  14.809  0.00  0.00    +0.000 C 
ATOM     25  O   UNL     1       7.785   5.346  14.326  0.00  0.00    +0.000 OA
BRANCH  24  27
ATOM     26  C   UNL     1       6.266   3.633  12.878  0.00  0.00    +0.000 C 
ATOM     27  O   UNL     1       5.908   4.013  14.205  0.00  0.00    +0.000 OA
ENDBRANCH  24  27
ENDBRANCH  18  24
ENDBRANCH  16  22
ENDBRANCH   1  16
TORSDOF 6
ENDMDL
MODEL 7
REMARK VINA RESULT:      -7.5      3.967      8.124
REMARK  Name = 
REMARK  7 active torsions:
REMARK  status: ('A' for Active; 'I' for Inactive)
REMARK    1  A    between atoms: C_1  and  O_2
REMARK    2  A    between atoms: O_2  and  C_3
REMARK    3  A    between atoms: C_3  and  C_5
REMARK    4  A    between atoms: C_9  and  N_10
REMARK    5  A    between atoms: N_10  and  C_11
REMARK    6  A    between atoms: C_11  and  N_13
REMARK    7  A    between atoms: N_16  and  C_17
REMARK                            x       y       z     vdW  Elec       q    Type
REMARK                         _______ _______ _______ _____ _____    ______ ____
ROOT
ATOM      1  C   UNL     1       2.254   5.207  19.968  0.00  0.00    +0.000 C 
ATOM      2  S   UNL     1       1.042   4.182  20.510  0.00  0.00    +0.000 S 
ENDROOT
BRANCH   1   3
ATOM      3  N   UNL     1       3.180   4.842  18.976  0.00  0.00    +0.000 N 
ATOM      4  C   UNL     1       4.486   5.525  18.932  0.00  0.00    +0.000 C 
ATOM      5  C   UNL     1       5.585   4.602  18.390  0.00  0.00    +0.000 C 
ATOM      6  N   UNL     1       5.186   3.960  17.127  0.00  0.00    +0.000 N 
ATOM      7  C   UNL     1       3.839   3.358  17.097  0.00  0.00    +0.000 C 
ATOM      8  C   UNL     1       2.775   4.322  17.659  0.00  0.00    +0.000 C 
BRANCH   6   9
ATOM      9  C   UNL     1       5.832   4.239  15.931  0.00  0.00    +0.000 A 
ATOM     10  C   UNL     1       5.364   3.658  14.738  0.00  0.00    +0.000 A 
ATOM     11  C   UNL     1       5.997   3.878  13.509  0.00  0.00    +0.000 A 
ATOM     12  C   UNL     1       7.120   4.694  13.440  0.00  0.00    +0.000 A 
ATOM     13  C   UNL     1       7.609   5.286  14.601  0.00  0.00    +0.000 A 
ATOM     14  C   UNL     1       6.971   5.056  15.822  0.00  0.00    +0.000 A 
ATOM     15  F   UNL     1       7.466   5.683  16.903  0.00  0.00    +0.000 F 
ENDBRANCH   6   9
ENDBRANCH   1   3
BRANCH   1  16
ATOM     16  N   UNL     1       2.563   6.470  20.464  0.00  0.00    +0.000 N 
ATOM     17  H   UNL     1       3.369   6.457  21.077  0.00  0.00    +0.000 HD
BRANCH  16  22
ATOM     18  C   UNL     1       0.572   9.564  21.098  0.00  0.00    +0.000 A 
ATOM     19  C   UNL     1       0.492  10.087  19.804  0.00  0.00    +0.000 A 
ATOM     20  C   UNL     1       1.126   9.422  18.755  0.00  0.00    +0.000 A 
ATOM     21  C   UNL     1       1.838   8.242  19.003  0.00  0.00    +0.000 A 
ATOM     22  C   UNL     1       1.943   7.724  20.302  0.00  0.00    +0.000 A 
ATOM     23  C   UNL     1       1.321   8.403  21.341  0.00  0.00    +0.000 A 
BRANCH  18  24
ATOM     24  C   UNL     1      -0.176  10.213  22.196  0.00  0.00    +0.000 C 
ATOM     25  O   UNL     1      -0.816   9.613  23.045  0.00  0.00    +0.000 OA
BRANCH  24  27
ATOM     26  C   UNL     1      -1.013  12.356  22.679  0.00  0.00    +0.000 C 
ATOM     27  O   UNL     1       0.035  11.555  22.140  0.00  0.00    +0.000 OA
ENDBRANCH  24  27
ENDBRANCH  18  24
ENDBRANCH  16  22
ENDBRANCH   1  16
TORSDOF 6
ENDMDL
MODEL 8
REMARK VINA RESULT:      -7.5      1.814      2.512
REMARK  Name = 
REMARK  7 active torsions:
REMARK  status: ('A' for Active; 'I' for Inactive)
REMARK    1  A    between atoms: C_1  and  O_2
REMARK    2  A    between atoms: O_2  and  C_3
REMARK    3  A    between atoms: C_3  and  C_5
REMARK    4  A    between atoms: C_9  and  N_10
REMARK    5  A    between atoms: N_10  and  C_11
REMARK    6  A    between atoms: C_11  and  N_13
REMARK    7  A    between atoms: N_16  and  C_17
REMARK                            x       y       z     vdW  Elec       q    Type
REMARK                         _______ _______ _______ _____ _____    ______ ____
ROOT
ATOM      1  C   UNL     1       2.935   6.677  18.538  0.00  0.00    +0.000 C 
ATOM      2  S   UNL     1       2.447   5.147  19.023  0.00  0.00    +0.000 S 
ENDROOT
BRANCH   1   3
ATOM      3  N   UNL     1       2.207   7.843  18.830  0.00  0.00    +0.000 N 
ATOM      4  C   UNL     1       1.329   7.860  20.015  0.00  0.00    +0.000 C 
ATOM      5  C   UNL     1       1.226   9.267  20.617  0.00  0.00    +0.000 C 
ATOM      6  N   UNL     1       0.897  10.276  19.596  0.00  0.00    +0.000 N 
ATOM      7  C   UNL     1       1.683  10.222  18.348  0.00  0.00    +0.000 C 
ATOM      8  C   UNL     1       1.763   8.787  17.790  0.00  0.00    +0.000 C 
BRANCH   6   9
ATOM      9  C   UNL     1      -0.309  10.962  19.611  0.00  0.00    +0.000 A 
ATOM     10  C   UNL     1      -0.534  11.947  20.591  0.00  0.00    +0.000 A 
ATOM     11  C   UNL     1      -1.744  12.646  20.674  0.00  0.00    +0.000 A 
ATOM     12  C   UNL     1      -2.766  12.380  19.770  0.00  0.00    +0.000 A 
ATOM     13  C   UNL     1      -2.575  11.413  18.787  0.00  0.00    +0.000 A 
ATOM     14  C   UNL     1      -1.365  10.720  18.716  0.00  0.00    +0.000 A 
ATOM     15  F   UNL     1      -1.225   9.824  17.723  0.00  0.00    +0.000 F 
ENDBRANCH   6   9
ENDBRANCH   1   3
BRANCH   1  16
ATOM     16  N   UNL     1       4.028   6.989  17.733  0.00  0.00    +0.000 N 
ATOM     17  H   UNL     1       3.931   7.893  17.287  0.00  0.00    +0.000 HD
BRANCH  16  22
ATOM     18  C   UNL     1       6.666   5.170  15.818  0.00  0.00    +0.000 A 
ATOM     19  C   UNL     1       7.382   4.582  16.865  0.00  0.00    +0.000 A 
ATOM     20  C   UNL     1       6.998   4.827  18.182  0.00  0.00    +0.000 A 
ATOM     21  C   UNL     1       5.903   5.658  18.449  0.00  0.00    +0.000 A 
ATOM     22  C   UNL     1       5.193   6.270  17.405  0.00  0.00    +0.000 A 
ATOM     23  C   UNL     1       5.595   6.032  16.098  0.00  0.00    +0.000 A 
BRANCH  18  24
ATOM     24  C   UNL     1       7.011   4.839  14.420  0.00  0.00    +0.000 C 
ATOM     25  O   UNL     1       7.865   5.414  13.764  0.00  0.00    +0.000 OA
BRANCH  24  27
ATOM     26  C   UNL     1       6.250   3.525  12.624  0.00  0.00    +0.000 C 
ATOM     27  O   UNL     1       6.284   3.757  14.030  0.00  0.00    +0.000 OA
ENDBRANCH  24  27
ENDBRANCH  18  24
ENDBRANCH  16  22
ENDBRANCH   1  16
TORSDOF 6
ENDMDL
MODEL 9
REMARK VINA RESULT:      -7.5      3.476      5.110
REMARK  Name = 
REMARK  7 active torsions:
REMARK  status: ('A' for Active; 'I' for Inactive)
REMARK    1  A    between atoms: C_1  and  O_2
REMARK    2  A    between atoms: O_2  and  C_3
REMARK    3  A    between atoms: C_3  and  C_5
REMARK    4  A    between atoms: C_9  and  N_10
REMARK    5  A    between atoms: N_10  and  C_11
REMARK    6  A    between atoms: C_11  and  N_13
REMARK    7  A    between atoms: N_16  and  C_17
REMARK                            x       y       z     vdW  Elec       q    Type
REMARK                         _______ _______ _______ _____ _____    ______ ____
ROOT
ATOM      1  C   UNL     1       2.133   7.737  19.485  0.00  0.00    +0.000 C 
ATOM      2  S   UNL     1       2.645   7.927  17.899  0.00  0.00    +0.000 S 
ENDROOT
BRANCH   1   3
ATOM      3  N   UNL     1       1.278   8.647  20.129  0.00  0.00    +0.000 N 
ATOM      4  C   UNL     1       0.814   9.837  19.392  0.00  0.00    +0.000 C 
ATOM      5  C   UNL     1      -0.579  10.277  19.857  0.00  0.00    +0.000 C 
ATOM      6  N   UNL     1      -0.657  10.395  21.322  0.00  0.00    +0.000 N 
ATOM      7  C   UNL     1      -0.102   9.269  22.098  0.00  0.00    +0.000 C 
ATOM      8  C   UNL     1       1.294   8.861  21.586  0.00  0.00    +0.000 C 
BRANCH   6   9
ATOM      9  C   UNL     1      -0.851  11.619  21.946  0.00  0.00    +0.000 A 
ATOM     10  C   UNL     1      -1.961  11.797  22.794  0.00  0.00    +0.000 A 
ATOM     11  C   UNL     1      -2.225  13.019  23.422  0.00  0.00    +0.000 A 
ATOM     12  C   UNL     1      -1.377  14.103  23.222  0.00  0.00    +0.000 A 
ATOM     13  C   UNL     1      -0.269  13.961  22.390  0.00  0.00    +0.000 A 
ATOM     14  C   UNL     1      -0.019  12.738  21.767  0.00  0.00    +0.000 A 
ATOM     15  F   UNL     1       1.086  12.649  21.005  0.00  0.00    +0.000 F 
ENDBRANCH   6   9
ENDBRANCH   1   3
BRANCH   1  16
ATOM     16  N   UNL     1       2.536   6.750  20.380  0.00  0.00    +0.000 N 
ATOM     17  H   UNL     1       3.113   7.119  21.126  0.00  0.00    +0.000 HD
BRANCH  16  22
ATOM     18  C   UNL     1       3.054   3.065  20.069  0.00  0.00    +0.000 A 
ATOM     19  C   UNL     1       1.738   2.611  20.199  0.00  0.00    +0.000 A 
ATOM     20  C   UNL     1       0.713   3.529  20.421  0.00  0.00    +0.000 A 
ATOM     21  C   UNL     1       1.006   4.895  20.513  0.00  0.00    +0.000 A 
ATOM     22  C   UNL     1       2.325   5.358  20.406  0.00  0.00    +0.000 A 
ATOM     23  C   UNL     1       3.340   4.432  20.203  0.00  0.00    +0.000 A 
BRANCH  18  24
ATOM     24  C   UNL     1       4.130   2.107  19.742  0.00  0.00    +0.000 C 
ATOM     25  O   UNL     1       5.149   1.960  20.398  0.00  0.00    +0.000 OA
BRANCH  24  27
ATOM     26  C   UNL     1       3.608   2.127  17.449  0.00  0.00    +0.000 C 
ATOM     27  O   UNL     1       3.757   1.380  18.654  0.00  0.00    +0.000 OA
ENDBRANCH  24  27
ENDBRANCH  18  24
ENDBRANCH  16  22
ENDBRANCH   1  16
TORSDOF 6
ENDMDL
