MODEL 1
REMARK VINA RESULT:      -6.5      0.000      0.000
REMARK  Name = 
REMARK  5 active torsions:
REMARK  status: ('A' for Active; 'I' for Inactive)
REMARK    1  A    between atoms: C_1  and  C_2
REMARK    2  A    between atoms: C_2  and  N_3
REMARK    3  A    between atoms: C_5  and  C_6
REMARK    4  A    between atoms: C_6  and  O_8
REMARK    5  A    between atoms: C_14  and  N_15
REMARK                            x       y       z     vdW  Elec       q    Type
REMARK                         _______ _______ _______ _____ _____    ______ ____
ROOT
ATOM      1  N   UNL     1       6.971   5.423  16.791  0.00  0.00    +0.000 N 
ATOM      2  C   UNL     1       7.554   5.502  15.524  0.00  0.00    +0.000 A 
ATOM      3  C   UNL     1       7.065   5.023  14.375  0.00  0.00    +0.000 A 
ATOM      4  C   UNL     1       5.755   4.369  14.447  0.00  0.00    +0.000 A 
ATOM      5  O   UNL     1       5.224   3.955  13.417  0.00  0.00    +0.000 OA
ATOM      6  C   UNL     1       5.112   4.222  15.773  0.00  0.00    +0.000 A 
ATOM      7  C   UNL     1       3.887   3.541  15.790  0.00  0.00    +0.000 A 
ATOM      8  C   UNL     1       3.204   3.365  16.982  0.00  0.00    +0.000 A 
ATOM      9  C   UNL     1       3.739   3.815  18.191  0.00  0.00    +0.000 A 
ATOM     10  C   UNL     1       5.042   4.432  18.160  0.00  0.00    +0.000 A 
ATOM     11 CL   UNL     1       5.849   4.537  19.713  0.00  0.00    +0.000 Cl
ATOM     12  C   UNL     1       5.733   4.727  16.946  0.00  0.00    +0.000 A 
ENDROOT
BRANCH   9  13
ATOM     13  N   UNL     1       3.041   3.603  19.377  0.00  0.00    +0.000 N 
ATOM     14  C   UNL     1       2.802   2.261  19.932  0.00  0.00    +0.000 C 
ATOM     15  C   UNL     1       2.787   2.366  21.477  0.00  0.00    +0.000 C 
ATOM     16  N   UNL     1       1.827   3.359  22.009  0.00  0.00    +0.000 NA
ATOM     17  C   UNL     1       2.027   4.663  21.339  0.00  0.00    +0.000 C 
ATOM     18  C   UNL     1       2.001   4.565  19.796  0.00  0.00    +0.000 C 
ATOM     19  H   UNL     1       2.005   3.479  23.005  0.00  0.00    +0.000 HD
ENDBRANCH   9  13
BRANCH   1  21
ATOM     20  C   UNL     1       7.558   7.759  17.426  0.00  0.00    +0.000 C 
ATOM     21  C   UNL     1       7.542   6.296  17.844  0.00  0.00    +0.000 C 
ENDBRANCH   1  21
BRANCH   3  22
ATOM     22  C   UNL     1       7.828   5.196  13.121  0.00  0.00    +0.000 C 
ATOM     23  O   UNL     1       8.762   5.977  13.005  0.00  0.00    +0.000 OA
BRANCH  22  24
ATOM     24  O   UNL     1       7.416   4.412  12.100  0.00  0.00    +0.000 OA
ATOM     25  H   UNL     1       6.446   4.218  12.109  0.00  0.00    +0.000 HD
ENDBRANCH  22  24
ENDBRANCH   3  22
TORSDOF 4
ENDMDL
MODEL 2
REMARK VINA RESULT:      -6.5      5.314      7.101
REMARK  Name = 
REMARK  5 active torsions:
REMARK  status: ('A' for Active; 'I' for Inactive)
REMARK    1  A    between atoms: C_1  and  C_2
REMARK    2  A    between atoms: C_2  and  N_3
REMARK    3  A    between atoms: C_5  and  C_6
REMARK    4  A    between atoms: C_6  and  O_8
REMARK    5  A    between atoms: C_14  and  N_15
REMARK                            x       y       z     vdW  Elec       q    Type
REMARK                         _______ _______ _______ _____ _____    ______ ____
ROOT
ATOM      1  N   UNL     1       1.038   8.537  20.476  0.00  0.00    +0.000 N 
ATOM      2  C   UNL     1       0.813   9.905  20.308  0.00  0.00    +0.000 A 
ATOM      3  C   UNL     1       1.254  10.683  19.314  0.00  0.00    +0.000 A 
ATOM      4  C   UNL     1       2.032  10.020  18.264  0.00  0.00    +0.000 A 
ATOM      5  O   UNL     1       2.420  10.667  17.292  0.00  0.00    +0.000 OA
ATOM      6  C   UNL     1       2.333   8.578  18.414  0.00  0.00    +0.000 A 
ATOM      7  C   UNL     1       3.127   8.007  17.409  0.00  0.00    +0.000 A 
ATOM      8  C   UNL     1       3.451   6.661  17.456  0.00  0.00    +0.000 A 
ATOM      9  C   UNL     1       3.040   5.859  18.523  0.00  0.00    +0.000 A 
ATOM     10  C   UNL     1       2.302   6.489  19.590  0.00  0.00    +0.000 A 
ATOM     11 CL   UNL     1       2.232   5.572  21.084  0.00  0.00    +0.000 Cl
ATOM     12  C   UNL     1       1.857   7.845  19.533  0.00  0.00    +0.000 A 
ENDROOT
BRANCH   9  13
ATOM     13  N   UNL     1       3.402   4.515  18.557  0.00  0.00    +0.000 N 
ATOM     14  C   UNL     1       4.648   4.040  19.178  0.00  0.00    +0.000 C 
ATOM     15  C   UNL     1       4.394   2.632  19.770  0.00  0.00    +0.000 C 
ATOM     16  N   UNL     1       3.857   1.653  18.798  0.00  0.00    +0.000 NA
ATOM     17  C   UNL     1       2.674   2.219  18.113  0.00  0.00    +0.000 C 
ATOM     18  C   UNL     1       2.939   3.607  17.487  0.00  0.00    +0.000 C 
ATOM     19  H   UNL     1       3.565   0.819  19.308  0.00  0.00    +0.000 HD
ENDBRANCH   9  13
BRANCH   1  21
ATOM     20  C   UNL     1      -0.478   8.811  22.434  0.00  0.00    +0.000 C 
ATOM     21  C   UNL     1       0.192   7.839  21.474  0.00  0.00    +0.000 C 
ENDBRANCH   1  21
BRANCH   3  22
ATOM     22  C   UNL     1       0.920  12.123  19.302  0.00  0.00    +0.000 C 
ATOM     23  O   UNL     1       1.065  12.854  20.272  0.00  0.00    +0.000 OA
BRANCH  22  24
ATOM     24  O   UNL     1       0.441  12.579  18.124  0.00  0.00    +0.000 OA
ATOM     25  H   UNL     1       0.773  12.082  17.336  0.00  0.00    +0.000 HD
ENDBRANCH  22  24
ENDBRANCH   3  22
TORSDOF 4
ENDMDL
MODEL 3
REMARK VINA RESULT:      -6.4      4.578      7.636
REMARK  Name = 
REMARK  5 active torsions:
REMARK  status: ('A' for Active; 'I' for Inactive)
REMARK    1  A    between atoms: C_1  and  C_2
REMARK    2  A    between atoms: C_2  and  N_3
REMARK    3  A    between atoms: C_5  and  C_6
REMARK    4  A    between atoms: C_6  and  O_8
REMARK    5  A    between atoms: C_14  and  N_15
REMARK                            x       y       z     vdW  Elec       q    Type
REMARK                         _______ _______ _______ _____ _____    ______ ____
ROOT
ATOM      1  N   UNL     1       2.155   5.888  20.630  0.00  0.00    +0.000 N 
ATOM      2  C   UNL     1       1.344   6.782  21.332  0.00  0.00    +0.000 A 
ATOM      3  C   UNL     1       1.035   8.037  20.990  0.00  0.00    +0.000 A 
ATOM      4  C   UNL     1       1.580   8.518  19.718  0.00  0.00    +0.000 A 
ATOM      5  O   UNL     1       1.289   9.644  19.317  0.00  0.00    +0.000 OA
ATOM      6  C   UNL     1       2.479   7.624  18.952  0.00  0.00    +0.000 A 
ATOM      7  C   UNL     1       3.016   8.155  17.771  0.00  0.00    +0.000 A 
ATOM      8  C   UNL     1       3.857   7.389  16.981  0.00  0.00    +0.000 A 
ATOM      9  C   UNL     1       4.227   6.098  17.365  0.00  0.00    +0.000 A 
ATOM     10  C   UNL     1       3.735   5.608  18.629  0.00  0.00    +0.000 A 
ATOM     11 CL   UNL     1       4.592   4.217  19.267  0.00  0.00    +0.000 Cl
ATOM     12  C   UNL     1       2.785   6.320  19.422  0.00  0.00    +0.000 A 
ENDROOT
BRANCH   9  13
ATOM     13  N   UNL     1       5.094   5.361  16.563  0.00  0.00    +0.000 N 
ATOM     14  C   UNL     1       4.699   4.104  15.908  0.00  0.00    +0.000 C 
ATOM     15  C   UNL     1       5.462   3.992  14.565  0.00  0.00    +0.000 C 
ATOM     16  N   UNL     1       6.932   4.108  14.690  0.00  0.00    +0.000 NA
ATOM     17  C   UNL     1       7.279   5.324  15.457  0.00  0.00    +0.000 C 
ATOM     18  C   UNL     1       6.549   5.416  16.817  0.00  0.00    +0.000 C 
ATOM     19  H   UNL     1       7.330   4.193  13.755  0.00  0.00    +0.000 HD
ENDBRANCH   9  13
BRANCH   1  21
ATOM     20  C   UNL     1       0.948   3.724  20.367  0.00  0.00    +0.000 C 
ATOM     21  C   UNL     1       2.093   4.465  21.042  0.00  0.00    +0.000 C 
ENDBRANCH   1  21
BRANCH   3  22
ATOM     22  C   UNL     1       0.160   8.844  21.866  0.00  0.00    +0.000 C 
ATOM     23  O   UNL     1      -0.936   8.466  22.253  0.00  0.00    +0.000 OA
BRANCH  22  24
ATOM     24  O   UNL     1       0.670  10.046  22.215  0.00  0.00    +0.000 OA
ATOM     25  H   UNL     1       0.769  10.172  23.192  0.00  0.00    +0.000 HD
ENDBRANCH  22  24
ENDBRANCH   3  22
TORSDOF 4
ENDMDL
MODEL 4
REMARK VINA RESULT:      -6.4      3.672      4.880
REMARK  Name = 
REMARK  5 active torsions:
REMARK  status: ('A' for Active; 'I' for Inactive)
REMARK    1  A    between atoms: C_1  and  C_2
REMARK    2  A    between atoms: C_2  and  N_3
REMARK    3  A    between atoms: C_5  and  C_6
REMARK    4  A    between atoms: C_6  and  O_8
REMARK    5  A    between atoms: C_14  and  N_15
REMARK                            x       y       z     vdW  Elec       q    Type
REMARK                         _______ _______ _______ _____ _____    ______ ____
ROOT
ATOM      1  N   UNL     1       4.093   4.710  18.749  0.00  0.00    +0.000 N 
ATOM      2  C   UNL     1       4.968   4.195  17.791  0.00  0.00    +0.000 A 
ATOM      3  C   UNL     1       5.422   4.809  16.694  0.00  0.00    +0.000 A 
ATOM      4  C   UNL     1       4.980   6.191  16.490  0.00  0.00    +0.000 A 
ATOM      5  O   UNL     1       5.404   6.832  15.530  0.00  0.00    +0.000 OA
ATOM      6  C   UNL     1       4.019   6.773  17.456  0.00  0.00    +0.000 A 
ATOM      7  C   UNL     1       3.586   8.078  17.183  0.00  0.00    +0.000 A 
ATOM      8  C   UNL     1       2.698   8.712  18.037  0.00  0.00    +0.000 A 
ATOM      9  C   UNL     1       2.178   8.052  19.152  0.00  0.00    +0.000 A 
ATOM     10  C   UNL     1       2.567   6.679  19.361  0.00  0.00    +0.000 A 
ATOM     11 CL   UNL     1       1.544   5.779  20.465  0.00  0.00    +0.000 Cl
ATOM     12  C   UNL     1       3.558   6.023  18.570  0.00  0.00    +0.000 A 
ENDROOT
BRANCH   9  13
ATOM     13  N   UNL     1       1.268   8.705  19.979  0.00  0.00    +0.000 N 
ATOM     14  C   UNL     1       0.620   9.973  19.607  0.00  0.00    +0.000 C 
ATOM     15  C   UNL     1      -0.799   9.997  20.227  0.00  0.00    +0.000 C 
ATOM     16  N   UNL     1      -0.826   9.775  21.690  0.00  0.00    +0.000 NA
ATOM     17  C   UNL     1      -0.064   8.554  22.029  0.00  0.00    +0.000 C 
ATOM     18  C   UNL     1       1.367   8.547  21.445  0.00  0.00    +0.000 C 
ATOM     19  H   UNL     1      -1.795   9.641  21.978  0.00  0.00    +0.000 HD
ENDBRANCH   9  13
BRANCH   1  21
ATOM     20  C   UNL     1       4.197   2.470  19.834  0.00  0.00    +0.000 C 
ATOM     21  C   UNL     1       3.987   3.965  20.027  0.00  0.00    +0.000 C 
ENDBRANCH   1  21
BRANCH   3  22
ATOM     22  C   UNL     1       6.346   4.101  15.782  0.00  0.00    +0.000 C 
ATOM     23  O   UNL     1       5.977   3.267  14.968  0.00  0.00    +0.000 OA
BRANCH  22  24
ATOM     24  O   UNL     1       7.644   4.452  15.913  0.00  0.00    +0.000 OA
ATOM     25  H   UNL     1       8.279   3.709  15.760  0.00  0.00    +0.000 HD
ENDBRANCH  22  24
ENDBRANCH   3  22
TORSDOF 4
ENDMDL
MODEL 5
REMARK VINA RESULT:      -6.3      6.324      8.400
REMARK  Name = 
REMARK  5 active torsions:
REMARK  status: ('A' for Active; 'I' for Inactive)
REMARK    1  A    between atoms: C_1  and  C_2
REMARK    2  A    between atoms: C_2  and  N_3
REMARK    3  A    between atoms: C_5  and  C_6
REMARK    4  A    between atoms: C_6  and  O_8
REMARK    5  A    between atoms: C_14  and  N_15
REMARK                            x       y       z     vdW  Elec       q    Type
REMARK                         _______ _______ _______ _____ _____    ______ ____
ROOT
ATOM      1  N   UNL     1       1.372  10.185  19.180  0.00  0.00    +0.000 N 
ATOM      2  C   UNL     1       0.519  11.013  19.914  0.00  0.00    +0.000 A 
ATOM      3  C   UNL     1      -0.144  10.706  21.033  0.00  0.00    +0.000 A 
ATOM      4  C   UNL     1       0.073   9.359  21.570  0.00  0.00    +0.000 A 
ATOM      5  O   UNL     1      -0.464   9.031  22.627  0.00  0.00    +0.000 OA
ATOM      6  C   UNL     1       0.936   8.427  20.808  0.00  0.00    +0.000 A 
ATOM      7  C   UNL     1       1.064   7.136  21.338  0.00  0.00    +0.000 A 
ATOM      8  C   UNL     1       1.862   6.198  20.703  0.00  0.00    +0.000 A 
ATOM      9  C   UNL     1       2.510   6.499  19.503  0.00  0.00    +0.000 A 
ATOM     10  C   UNL     1       2.290   7.804  18.931  0.00  0.00    +0.000 A 
ATOM     11 CL   UNL     1       2.725   7.953  17.238  0.00  0.00    +0.000 Cl
ATOM     12  C   UNL     1       1.564   8.834  19.601  0.00  0.00    +0.000 A 
ENDROOT
BRANCH   9  13
ATOM     13  N   UNL     1       3.285   5.528  18.874  0.00  0.00    +0.000 N 
ATOM     14  C   UNL     1       2.723   4.269  18.360  0.00  0.00    +0.000 C 
ATOM     15  C   UNL     1       3.528   3.849  17.106  0.00  0.00    +0.000 C 
ATOM     16  N   UNL     1       4.988   3.748  17.328  0.00  0.00    +0.000 NA
ATOM     17  C   UNL     1       5.491   4.991  17.953  0.00  0.00    +0.000 C 
ATOM     18  C   UNL     1       4.713   5.389  19.229  0.00  0.00    +0.000 C 
ATOM     19  H   UNL     1       5.445   3.636  16.424  0.00  0.00    +0.000 HD
ENDBRANCH   9  13
BRANCH   1  21
ATOM     20  C   UNL     1       2.286  12.351  18.355  0.00  0.00    +0.000 C 
ATOM     21  C   UNL     1       2.230  10.843  18.165  0.00  0.00    +0.000 C 
ENDBRANCH   1  21
BRANCH   3  22
ATOM     22  C   UNL     1      -1.013  11.715  21.675  0.00  0.00    +0.000 C 
ATOM     23  O   UNL     1      -1.969  12.231  21.115  0.00  0.00    +0.000 OA
BRANCH  22  24
ATOM     24  O   UNL     1      -0.671  12.024  22.945  0.00  0.00    +0.000 OA
ATOM     25  H   UNL     1      -0.438  12.976  23.078  0.00  0.00    +0.000 HD
ENDBRANCH  22  24
ENDBRANCH   3  22
TORSDOF 4
ENDMDL
MODEL 6
REMARK VINA RESULT:      -6.3      8.684     10.632
REMARK  Name = 
REMARK  5 active torsions:
REMARK  status: ('A' for Active; 'I' for Inactive)
REMARK    1  A    between atoms: C_1  and  C_2
REMARK    2  A    between atoms: C_2  and  N_3
REMARK    3  A    between atoms: C_5  and  C_6
REMARK    4  A    between atoms: C_6  and  O_8
REMARK    5  A    between atoms: C_14  and  N_15
REMARK                            x       y       z     vdW  Elec       q    Type
REMARK                         _______ _______ _______ _____ _____    ______ ____
ROOT
ATOM      1  N   UNL     1      -0.621  11.158  18.944  0.00  0.00    +0.000 N 
ATOM      2  C   UNL     1       0.308  10.266  18.403  0.00  0.00    +0.000 A 
ATOM      3  C   UNL     1       1.051   9.371  19.062  0.00  0.00    +0.000 A 
ATOM      4  C   UNL     1       0.846   9.294  20.511  0.00  0.00    +0.000 A 
ATOM      5  O   UNL     1       1.458   8.454  21.170  0.00  0.00    +0.000 OA
ATOM      6  C   UNL     1      -0.099  10.245  21.141  0.00  0.00    +0.000 A 
ATOM      7  C   UNL     1      -0.216  10.164  22.536  0.00  0.00    +0.000 A 
ATOM      8  C   UNL     1      -1.084  11.004  23.213  0.00  0.00    +0.000 A 
ATOM      9  C   UNL     1      -1.820  11.978  22.533  0.00  0.00    +0.000 A 
ATOM     10  C   UNL     1      -1.614  12.103  21.111  0.00  0.00    +0.000 A 
ATOM     11 CL   UNL     1      -2.180  13.608  20.410  0.00  0.00    +0.000 Cl
ATOM     12  C   UNL     1      -0.811  11.193  20.359  0.00  0.00    +0.000 A 
ENDROOT
BRANCH   9  13
ATOM     13  N   UNL     1      -2.666  12.825  23.243  0.00  0.00    +0.000 N 
ATOM     14  C   UNL     1      -2.209  14.088  23.844  0.00  0.00    +0.000 C 
ATOM     15  C   UNL     1      -3.380  15.101  23.803  0.00  0.00    +0.000 C 
ATOM     16  N   UNL     1      -4.627  14.613  24.434  0.00  0.00    +0.000 NA
ATOM     17  C   UNL     1      -4.985  13.287  23.884  0.00  0.00    +0.000 C 
ATOM     18  C   UNL     1      -3.829  12.263  23.961  0.00  0.00    +0.000 C 
ATOM     19  H   UNL     1      -5.378  15.266  24.213  0.00  0.00    +0.000 HD
ENDBRANCH   9  13
BRANCH   1  21
ATOM     20  C   UNL     1      -2.639  10.885  17.508  0.00  0.00    +0.000 C 
ATOM     21  C   UNL     1      -1.541  11.822  17.990  0.00  0.00    +0.000 C 
ENDBRANCH   1  21
BRANCH   3  22
ATOM     22  C   UNL     1       1.994   8.507  18.320  0.00  0.00    +0.000 C 
ATOM     23  O   UNL     1       2.527   8.840  17.272  0.00  0.00    +0.000 OA
BRANCH  22  24
ATOM     24  O   UNL     1       2.230   7.308  18.898  0.00  0.00    +0.000 OA
ATOM     25  H   UNL     1       1.476   6.672  18.825  0.00  0.00    +0.000 HD
ENDBRANCH  22  24
ENDBRANCH   3  22
TORSDOF 4
ENDMDL
MODEL 7
REMARK VINA RESULT:      -6.2      4.696      7.698
REMARK  Name = 
REMARK  5 active torsions:
REMARK  status: ('A' for Active; 'I' for Inactive)
REMARK    1  A    between atoms: C_1  and  C_2
REMARK    2  A    between atoms: C_2  and  N_3
REMARK    3  A    between atoms: C_5  and  C_6
REMARK    4  A    between atoms: C_6  and  O_8
REMARK    5  A    between atoms: C_14  and  N_15
REMARK                            x       y       z     vdW  Elec       q    Type
REMARK                         _______ _______ _______ _____ _____    ______ ____
ROOT
ATOM      1  N   UNL     1       2.046   6.195  20.571  0.00  0.00    +0.000 N 
ATOM      2  C   UNL     1       1.101   7.021  21.184  0.00  0.00    +0.000 A 
ATOM      3  C   UNL     1       0.709   8.237  20.789  0.00  0.00    +0.000 A 
ATOM      4  C   UNL     1       1.314   8.748  19.556  0.00  0.00    +0.000 A 
ATOM      5  O   UNL     1       0.957   9.836  19.108  0.00  0.00    +0.000 OA
ATOM      6  C   UNL     1       2.352   7.929  18.888  0.00  0.00    +0.000 A 
ATOM      7  C   UNL     1       2.937   8.490  17.744  0.00  0.00    +0.000 A 
ATOM      8  C   UNL     1       3.907   7.793  17.043  0.00  0.00    +0.000 A 
ATOM      9  C   UNL     1       4.359   6.547  17.486  0.00  0.00    +0.000 A 
ATOM     10  C   UNL     1       3.808   6.033  18.715  0.00  0.00    +0.000 A 
ATOM     11 CL   UNL     1       4.730   4.736  19.453  0.00  0.00    +0.000 Cl
ATOM     12  C   UNL     1       2.734   6.665  19.411  0.00  0.00    +0.000 A 
ENDROOT
BRANCH   9  13
ATOM     13  N   UNL     1       5.354   5.881  16.776  0.00  0.00    +0.000 N 
ATOM     14  C   UNL     1       6.778   5.955  17.138  0.00  0.00    +0.000 C 
ATOM     15  C   UNL     1       7.445   4.605  16.776  0.00  0.00    +0.000 C 
ATOM     16  N   UNL     1       7.258   4.194  15.367  0.00  0.00    +0.000 NA
ATOM     17  C   UNL     1       5.823   4.247  15.012  0.00  0.00    +0.000 C 
ATOM     18  C   UNL     1       5.166   5.609  15.335  0.00  0.00    +0.000 C 
ATOM     19  H   UNL     1       7.579   3.232  15.266  0.00  0.00    +0.000 HD
ENDBRANCH   9  13
BRANCH   1  21
ATOM     20  C   UNL     1       1.000   3.947  20.330  0.00  0.00    +0.000 C 
ATOM     21  C   UNL     1       2.078   4.779  21.009  0.00  0.00    +0.000 C 
ENDBRANCH   1  21
BRANCH   3  22
ATOM     22  C   UNL     1      -0.306   8.974  21.571  0.00  0.00    +0.000 C 
ATOM     23  O   UNL     1      -0.869   8.506  22.551  0.00  0.00    +0.000 OA
BRANCH  22  24
ATOM     24  O   UNL     1      -0.566  10.221  21.121  0.00  0.00    +0.000 OA
ATOM     25  H   UNL     1      -1.519  10.478  21.177  0.00  0.00    +0.000 HD
ENDBRANCH  22  24
ENDBRANCH   3  22
TORSDOF 4
ENDMDL
MODEL 8
REMARK VINA RESULT:      -6.2      6.362      8.422
REMARK  Name = 
REMARK  5 active torsions:
REMARK  status: ('A' for Active; 'I' for Inactive)
REMARK    1  A    between atoms: C_1  and  C_2
REMARK    2  A    between atoms: C_2  and  N_3
REMARK    3  A    between atoms: C_5  and  C_6
REMARK    4  A    between atoms: C_6  and  O_8
REMARK    5  A    between atoms: C_14  and  N_15
REMARK                            x       y       z     vdW  Elec       q    Type
REMARK                         _______ _______ _______ _____ _____    ______ ____
ROOT
ATOM      1  N   UNL     1       1.315  10.230  19.210  0.00  0.00    +0.000 N 
ATOM      2  C   UNL     1       0.480  11.046  19.977  0.00  0.00    +0.000 A 
ATOM      3  C   UNL     1      -0.155  10.721  21.108  0.00  0.00    +0.000 A 
ATOM      4  C   UNL     1       0.078   9.368  21.621  0.00  0.00    +0.000 A 
ATOM      5  O   UNL     1      -0.433   9.024  22.686  0.00  0.00    +0.000 OA
ATOM      6  C   UNL     1       0.923   8.448  20.825  0.00  0.00    +0.000 A 
ATOM      7  C   UNL     1       1.068   7.150  21.334  0.00  0.00    +0.000 A 
ATOM      8  C   UNL     1       1.851   6.223  20.667  0.00  0.00    +0.000 A 
ATOM      9  C   UNL     1       2.469   6.542  19.456  0.00  0.00    +0.000 A 
ATOM     10  C   UNL     1       2.231   7.854  18.906  0.00  0.00    +0.000 A 
ATOM     11 CL   UNL     1       2.624   8.027  17.206  0.00  0.00    +0.000 Cl
ATOM     12  C   UNL     1       1.520   8.873  19.609  0.00  0.00    +0.000 A 
ENDROOT
BRANCH   9  13
ATOM     13  N   UNL     1       3.230   5.581  18.794  0.00  0.00    +0.000 N 
ATOM     14  C   UNL     1       4.672   5.738  18.547  0.00  0.00    +0.000 C 
ATOM     15  C   UNL     1       5.330   4.336  18.587  0.00  0.00    +0.000 C 
ATOM     16  N   UNL     1       4.718   3.352  17.665  0.00  0.00    +0.000 NA
ATOM     17  C   UNL     1       3.253   3.313  17.868  0.00  0.00    +0.000 C 
ATOM     18  C   UNL     1       2.590   4.708  17.788  0.00  0.00    +0.000 C 
ATOM     19  H   UNL     1       5.097   2.430  17.880  0.00  0.00    +0.000 HD
ENDBRANCH   9  13
BRANCH   1  21
ATOM     20  C   UNL     1       2.236  12.404  18.415  0.00  0.00    +0.000 C 
ATOM     21  C   UNL     1       2.146  10.902  18.184  0.00  0.00    +0.000 C 
ENDBRANCH   1  21
BRANCH   3  22
ATOM     22  C   UNL     1      -1.010  11.719  21.785  0.00  0.00    +0.000 C 
ATOM     23  O   UNL     1      -1.951  12.278  21.240  0.00  0.00    +0.000 OA
BRANCH  22  24
ATOM     24  O   UNL     1      -0.673  11.968  23.069  0.00  0.00    +0.000 OA
ATOM     25  H   UNL     1      -0.287  12.868  23.217  0.00  0.00    +0.000 HD
ENDBRANCH  22  24
ENDBRANCH   3  22
TORSDOF 4
ENDMDL
MODEL 9
REMARK VINA RESULT:      -6.2      3.667      4.837
REMARK  Name = 
REMARK  5 active torsions:
REMARK  status: ('A' for Active; 'I' for Inactive)
REMARK    1  A    between atoms: C_1  and  C_2
REMARK    2  A    between atoms: C_2  and  N_3
REMARK    3  A    between atoms: C_5  and  C_6
REMARK    4  A    between atoms: C_6  and  O_8
REMARK    5  A    between atoms: C_14  and  N_15
REMARK                            x       y       z     vdW  Elec       q    Type
REMARK                         _______ _______ _______ _____ _____    ______ ____
ROOT
ATOM      1  N   UNL     1       4.087   4.703  18.719  0.00  0.00    +0.000 N 
ATOM      2  C   UNL     1       4.938   4.233  17.716  0.00  0.00    +0.000 A 
ATOM      3  C   UNL     1       5.345   4.889  16.625  0.00  0.00    +0.000 A 
ATOM      4  C   UNL     1       4.874   6.269  16.481  0.00  0.00    +0.000 A 
ATOM      5  O   UNL     1       5.256   6.947  15.528  0.00  0.00    +0.000 OA
ATOM      6  C   UNL     1       3.937   6.804  17.496  0.00  0.00    +0.000 A 
ATOM      7  C   UNL     1       3.475   8.110  17.280  0.00  0.00    +0.000 A 
ATOM      8  C   UNL     1       2.607   8.701  18.182  0.00  0.00    +0.000 A 
ATOM      9  C   UNL     1       2.135   7.997  19.293  0.00  0.00    +0.000 A 
ATOM     10  C   UNL     1       2.552   6.626  19.444  0.00  0.00    +0.000 A 
ATOM     11 CL   UNL     1       1.581   5.674  20.552  0.00  0.00    +0.000 Cl
ATOM     12  C   UNL     1       3.526   6.012  18.600  0.00  0.00    +0.000 A 
ENDROOT
BRANCH   9  13
ATOM     13  N   UNL     1       1.243   8.609  20.170  0.00  0.00    +0.000 N 
ATOM     14  C   UNL     1       0.989   8.105  21.529  0.00  0.00    +0.000 C 
ATOM     15  C   UNL     1       0.679   9.313  22.448  0.00  0.00    +0.000 C 
ATOM     16  N   UNL     1      -0.425  10.174  21.966  0.00  0.00    +0.000 NA
ATOM     17  C   UNL     1      -0.187  10.560  20.558  0.00  0.00    +0.000 C 
ATOM     18  C   UNL     1       0.083   9.351  19.633  0.00  0.00    +0.000 C 
ATOM     19  H   UNL     1      -0.444  11.021  22.533  0.00  0.00    +0.000 HD
ENDBRANCH   9  13
BRANCH   1  21
ATOM     20  C   UNL     1       3.507   2.508  19.745  0.00  0.00    +0.000 C 
ATOM     21  C   UNL     1       4.036   3.916  19.975  0.00  0.00    +0.000 C 
ENDBRANCH   1  21
BRANCH   3  22
ATOM     22  C   UNL     1       6.248   4.225  15.661  0.00  0.00    +0.000 C 
ATOM     23  O   UNL     1       5.903   3.292  14.951  0.00  0.00    +0.000 OA
BRANCH  22  24
ATOM     24  O   UNL     1       7.497   4.737  15.618  0.00  0.00    +0.000 OA
ATOM     25  H   UNL     1       8.154   4.242  16.167  0.00  0.00    +0.000 HD
ENDBRANCH  22  24
ENDBRANCH   3  22
TORSDOF 4
ENDMDL
