MODEL 1
REMARK VINA RESULT:      -8.5      0.000      0.000
REMARK  Name = 
REMARK  5 active torsions:
REMARK  status: ('A' for Active; 'I' for Inactive)
REMARK    1  A    between atoms: C_1  and  C_2
REMARK    2  A    between atoms: C_7  and  C_8
REMARK    3  A    between atoms: C_12  and  C_13
REMARK    4  A    between atoms: C_17  and  N_18
REMARK    5  A    between atoms: N_21  and  C_22
REMARK                            x       y       z     vdW  Elec       q    Type
REMARK                         _______ _______ _______ _____ _____    ______ ____
ROOT
ATOM      1  C   UNL     1       4.358   5.973  17.332  0.00  0.00    +0.000 A 
ATOM      2  N   UNL     1       3.836   7.186  17.348  0.00  0.00    +0.000 NA
ATOM      3  C   UNL     1       3.017   7.231  18.444  0.00  0.00    +0.000 A 
ATOM      4  C   UNL     1       2.209   8.277  18.903  0.00  0.00    +0.000 A 
ATOM      5  C   UNL     1       1.442   8.083  20.064  0.00  0.00    +0.000 A 
ATOM      6  C   UNL     1       1.484   6.849  20.731  0.00  0.00    +0.000 A 
ATOM      7  C   UNL     1       2.295   5.794  20.291  0.00  0.00    +0.000 A 
ATOM      8  C   UNL     1       3.045   6.035  19.141  0.00  0.00    +0.000 A 
ATOM      9  N   UNL     1       3.924   5.260  18.433  0.00  0.00    +0.000 N 
ATOM     10  H   UNL     1       4.203   4.322  18.666  0.00  0.00    +0.000 HD
ENDROOT
BRANCH   5  11
ATOM     11  C   UNL     1       0.601   9.152  20.594  0.00  0.00    +0.000 A 
ATOM     12  N   UNL     1       0.036  10.125  19.903  0.00  0.00    +0.000 NA
ATOM     13  C   UNL     1      -0.678  10.867  20.812  0.00  0.00    +0.000 A 
ATOM     14  C   UNL     1      -1.455  12.020  20.626  0.00  0.00    +0.000 A 
ATOM     15  C   UNL     1      -2.121  12.606  21.715  0.00  0.00    +0.000 A 
ATOM     16  C   UNL     1      -1.973  12.001  22.978  0.00  0.00    +0.000 A 
ATOM     17  C   UNL     1      -1.201  10.855  23.198  0.00  0.00    +0.000 A 
ATOM     18  C   UNL     1      -0.567  10.325  22.084  0.00  0.00    +0.000 A 
ATOM     19  N   UNL     1       0.254   9.246  21.921  0.00  0.00    +0.000 N 
ATOM     20  H   UNL     1       0.533   8.604  22.647  0.00  0.00    +0.000 HD
BRANCH  15  21
ATOM     21  N   UNL     1      -2.853  13.773  21.593  0.00  0.00    +0.000 N 
ATOM     22  C   UNL     1      -2.308  14.984  20.968  0.00  0.00    +0.000 C 
ATOM     23  C   UNL     1      -2.822  16.222  21.745  0.00  0.00    +0.000 C 
ATOM     24  N   UNL     1      -4.301  16.274  21.841  0.00  0.00    +0.000 NA
ATOM     25  C   UNL     1      -4.721  17.424  22.637  0.00  0.00    +0.000 C 
ATOM     26  C   UNL     1      -4.796  15.015  22.447  0.00  0.00    +0.000 C 
ATOM     27  C   UNL     1      -4.322  13.761  21.680  0.00  0.00    +0.000 C 
ENDBRANCH  15  21
ENDBRANCH   5  11
BRANCH   1  34
ATOM     28  C   UNL     1       7.306   6.517  17.396  0.00  0.00    +0.000 C 
ATOM     29  C   UNL     1       6.654   5.668  16.336  0.00  0.00    +0.000 A 
ATOM     30  C   UNL     1       7.463   5.116  15.326  0.00  0.00    +0.000 A 
ATOM     31  C   UNL     1       6.916   4.318  14.323  0.00  0.00    +0.000 A 
ATOM     32  C   UNL     1       5.551   4.065  14.306  0.00  0.00    +0.000 A 
ATOM     33  C   UNL     1       4.731   4.612  15.294  0.00  0.00    +0.000 A 
ATOM     34  C   UNL     1       5.265   5.413  16.323  0.00  0.00    +0.000 A 
ENDBRANCH   1  34
TORSDOF 3
ENDMDL
MODEL 2
REMARK VINA RESULT:      -8.5      0.634      1.054
REMARK  Name = 
REMARK  5 active torsions:
REMARK  status: ('A' for Active; 'I' for Inactive)
REMARK    1  A    between atoms: C_1  and  C_2
REMARK    2  A    between atoms: C_7  and  C_8
REMARK    3  A    between atoms: C_12  and  C_13
REMARK    4  A    between atoms: C_17  and  N_18
REMARK    5  A    between atoms: N_21  and  C_22
REMARK                            x       y       z     vdW  Elec       q    Type
REMARK                         _______ _______ _______ _____ _____    ______ ____
ROOT
ATOM      1  C   UNL     1       4.361   5.976  17.324  0.00  0.00    +0.000 A 
ATOM      2  N   UNL     1       3.840   7.190  17.349  0.00  0.00    +0.000 NA
ATOM      3  C   UNL     1       3.018   7.226  18.444  0.00  0.00    +0.000 A 
ATOM      4  C   UNL     1       2.209   8.268  18.910  0.00  0.00    +0.000 A 
ATOM      5  C   UNL     1       1.439   8.064  20.067  0.00  0.00    +0.000 A 
ATOM      6  C   UNL     1       1.479   6.824  20.723  0.00  0.00    +0.000 A 
ATOM      7  C   UNL     1       2.289   5.773  20.275  0.00  0.00    +0.000 A 
ATOM      8  C   UNL     1       3.043   6.023  19.130  0.00  0.00    +0.000 A 
ATOM      9  N   UNL     1       3.923   5.254  18.417  0.00  0.00    +0.000 N 
ATOM     10  H   UNL     1       4.201   4.314  18.642  0.00  0.00    +0.000 HD
ENDROOT
BRANCH   5  11
ATOM     11  C   UNL     1       0.598   9.129  20.604  0.00  0.00    +0.000 A 
ATOM     12  N   UNL     1       0.016  10.095  19.917  0.00  0.00    +0.000 NA
ATOM     13  C   UNL     1      -0.692  10.835  20.833  0.00  0.00    +0.000 A 
ATOM     14  C   UNL     1      -1.480  11.982  20.653  0.00  0.00    +0.000 A 
ATOM     15  C   UNL     1      -2.135  12.567  21.749  0.00  0.00    +0.000 A 
ATOM     16  C   UNL     1      -1.965  11.969  23.012  0.00  0.00    +0.000 A 
ATOM     17  C   UNL     1      -1.181  10.830  23.227  0.00  0.00    +0.000 A 
ATOM     18  C   UNL     1      -0.559  10.300  22.106  0.00  0.00    +0.000 A 
ATOM     19  N   UNL     1       0.269   9.226  21.936  0.00  0.00    +0.000 N 
ATOM     20  H   UNL     1       0.563   8.589  22.660  0.00  0.00    +0.000 HD
BRANCH  15  21
ATOM     21  N   UNL     1      -2.878  13.728  21.632  0.00  0.00    +0.000 N 
ATOM     22  C   UNL     1      -4.346  13.729  21.635  0.00  0.00    +0.000 C 
ATOM     23  C   UNL     1      -4.846  14.793  20.627  0.00  0.00    +0.000 C 
ATOM     24  N   UNL     1      -4.298  16.146  20.891  0.00  0.00    +0.000 NA
ATOM     25  C   UNL     1      -4.753  17.090  19.874  0.00  0.00    +0.000 C 
ATOM     26  C   UNL     1      -2.817  16.078  20.910  0.00  0.00    +0.000 C 
ATOM     27  C   UNL     1      -2.284  15.042  21.924  0.00  0.00    +0.000 C 
ENDBRANCH  15  21
ENDBRANCH   5  11
BRANCH   1  34
ATOM     28  C   UNL     1       7.309   6.522  17.398  0.00  0.00    +0.000 C 
ATOM     29  C   UNL     1       6.659   5.681  16.330  0.00  0.00    +0.000 A 
ATOM     30  C   UNL     1       7.470   5.137  15.318  0.00  0.00    +0.000 A 
ATOM     31  C   UNL     1       6.926   4.346  14.308  0.00  0.00    +0.000 A 
ATOM     32  C   UNL     1       5.561   4.093  14.286  0.00  0.00    +0.000 A 
ATOM     33  C   UNL     1       4.739   4.631  15.277  0.00  0.00    +0.000 A 
ATOM     34  C   UNL     1       5.271   5.425  16.313  0.00  0.00    +0.000 A 
ENDBRANCH   1  34
TORSDOF 3
ENDMDL
MODEL 3
REMARK VINA RESULT:      -8.4      1.135      1.715
REMARK  Name = 
REMARK  5 active torsions:
REMARK  status: ('A' for Active; 'I' for Inactive)
REMARK    1  A    between atoms: C_1  and  C_2
REMARK    2  A    between atoms: C_7  and  C_8
REMARK    3  A    between atoms: C_12  and  C_13
REMARK    4  A    between atoms: C_17  and  N_18
REMARK    5  A    between atoms: N_21  and  C_22
REMARK                            x       y       z     vdW  Elec       q    Type
REMARK                         _______ _______ _______ _____ _____    ______ ____
ROOT
ATOM      1  C   UNL     1       4.264   6.271  17.468  0.00  0.00    +0.000 A 
ATOM      2  N   UNL     1       3.654   7.430  17.296  0.00  0.00    +0.000 NA
ATOM      3  C   UNL     1       2.831   7.589  18.378  0.00  0.00    +0.000 A 
ATOM      4  C   UNL     1       1.947   8.632  18.674  0.00  0.00    +0.000 A 
ATOM      5  C   UNL     1       1.193   8.569  19.857  0.00  0.00    +0.000 A 
ATOM      6  C   UNL     1       1.325   7.462  20.711  0.00  0.00    +0.000 A 
ATOM      7  C   UNL     1       2.211   6.414  20.435  0.00  0.00    +0.000 A 
ATOM      8  C   UNL     1       2.945   6.523  19.256  0.00  0.00    +0.000 A 
ATOM      9  N   UNL     1       3.881   5.712  18.671  0.00  0.00    +0.000 N 
ATOM     10  H   UNL     1       4.227   4.846  19.047  0.00  0.00    +0.000 HD
ENDROOT
BRANCH   5  11
ATOM     11  C   UNL     1       0.275   9.644  20.219  0.00  0.00    +0.000 A 
ATOM     12  N   UNL     1      -0.013  10.057  21.439  0.00  0.00    +0.000 NA
ATOM     13  C   UNL     1      -0.893  11.101  21.286  0.00  0.00    +0.000 A 
ATOM     14  C   UNL     1      -1.530  11.894  22.252  0.00  0.00    +0.000 A 
ATOM     15  C   UNL     1      -2.388  12.935  21.857  0.00  0.00    +0.000 A 
ATOM     16  C   UNL     1      -2.581  13.139  20.477  0.00  0.00    +0.000 A 
ATOM     17  C   UNL     1      -1.965  12.361  19.489  0.00  0.00    +0.000 A 
ATOM     18  C   UNL     1      -1.132  11.349  19.943  0.00  0.00    +0.000 A 
ATOM     19  N   UNL     1      -0.388  10.409  19.288  0.00  0.00    +0.000 N 
ATOM     20  H   UNL     1      -0.311  10.312  18.287  0.00  0.00    +0.000 HD
BRANCH  15  21
ATOM     21  N   UNL     1      -3.081  13.708  22.770  0.00  0.00    +0.000 N 
ATOM     22  C   UNL     1      -4.469  14.133  22.551  0.00  0.00    +0.000 C 
ATOM     23  C   UNL     1      -4.640  15.576  23.088  0.00  0.00    +0.000 C 
ATOM     24  N   UNL     1      -4.242  15.717  24.510  0.00  0.00    +0.000 NA
ATOM     25  C   UNL     1      -4.364  17.107  24.940  0.00  0.00    +0.000 C 
ATOM     26  C   UNL     1      -2.848  15.243  24.677  0.00  0.00    +0.000 C 
ATOM     27  C   UNL     1      -2.649  13.796  24.174  0.00  0.00    +0.000 C 
ENDBRANCH  15  21
ENDBRANCH   5  11
BRANCH   1  34
ATOM     28  C   UNL     1       7.219   6.738  17.683  0.00  0.00    +0.000 C 
ATOM     29  C   UNL     1       6.606   5.844  16.636  0.00  0.00    +0.000 A 
ATOM     30  C   UNL     1       7.456   5.210  15.713  0.00  0.00    +0.000 A 
ATOM     31  C   UNL     1       6.947   4.367  14.727  0.00  0.00    +0.000 A 
ATOM     32  C   UNL     1       5.578   4.151  14.640  0.00  0.00    +0.000 A 
ATOM     33  C   UNL     1       4.718   4.779  15.541  0.00  0.00    +0.000 A 
ATOM     34  C   UNL     1       5.213   5.627  16.552  0.00  0.00    +0.000 A 
ENDBRANCH   1  34
TORSDOF 3
ENDMDL
MODEL 4
REMARK VINA RESULT:      -8.3      0.895      1.033
REMARK  Name = 
REMARK  5 active torsions:
REMARK  status: ('A' for Active; 'I' for Inactive)
REMARK    1  A    between atoms: C_1  and  C_2
REMARK    2  A    between atoms: C_7  and  C_8
REMARK    3  A    between atoms: C_12  and  C_13
REMARK    4  A    between atoms: C_17  and  N_18
REMARK    5  A    between atoms: N_21  and  C_22
REMARK                            x       y       z     vdW  Elec       q    Type
REMARK                         _______ _______ _______ _____ _____    ______ ____
ROOT
ATOM      1  C   UNL     1       4.420   5.802  17.114  0.00  0.00    +0.000 A 
ATOM      2  N   UNL     1       3.965   7.038  17.214  0.00  0.00    +0.000 NA
ATOM      3  C   UNL     1       3.164   7.057  18.324  0.00  0.00    +0.000 A 
ATOM      4  C   UNL     1       2.419   8.113  18.861  0.00  0.00    +0.000 A 
ATOM      5  C   UNL     1       1.657   7.887  20.020  0.00  0.00    +0.000 A 
ATOM      6  C   UNL     1       1.641   6.611  20.607  0.00  0.00    +0.000 A 
ATOM      7  C   UNL     1       2.387   5.546  20.087  0.00  0.00    +0.000 A 
ATOM      8  C   UNL     1       3.135   5.818  18.944  0.00  0.00    +0.000 A 
ATOM      9  N   UNL     1       3.961   5.045  18.174  0.00  0.00    +0.000 N 
ATOM     10  H   UNL     1       4.192   4.080  18.343  0.00  0.00    +0.000 HD
ENDROOT
BRANCH   5  11
ATOM     11  C   UNL     1       0.883   8.963  20.629  0.00  0.00    +0.000 A 
ATOM     12  N   UNL     1       0.578  10.123  20.078  0.00  0.00    +0.000 NA
ATOM     13  C   UNL     1      -0.182  10.793  21.006  0.00  0.00    +0.000 A 
ATOM     14  C   UNL     1      -0.759  12.071  20.948  0.00  0.00    +0.000 A 
ATOM     15  C   UNL     1      -1.524  12.549  22.025  0.00  0.00    +0.000 A 
ATOM     16  C   UNL     1      -1.678  11.709  23.145  0.00  0.00    +0.000 A 
ATOM     17  C   UNL     1      -1.111  10.433  23.236  0.00  0.00    +0.000 A 
ATOM     18  C   UNL     1      -0.367  10.019  22.141  0.00  0.00    +0.000 A 
ATOM     19  N   UNL     1       0.324   8.869  21.882  0.00  0.00    +0.000 N 
ATOM     20  H   UNL     1       0.386   8.069  22.493  0.00  0.00    +0.000 HD
BRANCH  15  21
ATOM     21  N   UNL     1      -2.066  13.821  22.040  0.00  0.00    +0.000 N 
ATOM     22  C   UNL     1      -2.903  14.334  20.948  0.00  0.00    +0.000 C 
ATOM     23  C   UNL     1      -2.575  15.832  20.729  0.00  0.00    +0.000 C 
ATOM     24  N   UNL     1      -2.724  16.645  21.962  0.00  0.00    +0.000 NA
ATOM     25  C   UNL     1      -2.340  18.031  21.709  0.00  0.00    +0.000 C 
ATOM     26  C   UNL     1      -1.884  16.063  23.035  0.00  0.00    +0.000 C 
ATOM     27  C   UNL     1      -2.204  14.574  23.296  0.00  0.00    +0.000 C 
ENDBRANCH  15  21
ENDBRANCH   5  11
BRANCH   1  34
ATOM     28  C   UNL     1       7.383   6.266  17.114  0.00  0.00    +0.000 C 
ATOM     29  C   UNL     1       6.678   5.478  16.040  0.00  0.00    +0.000 A 
ATOM     30  C   UNL     1       7.442   4.946  14.986  0.00  0.00    +0.000 A 
ATOM     31  C   UNL     1       6.846   4.204  13.968  0.00  0.00    +0.000 A 
ATOM     32  C   UNL     1       5.474   3.988  13.980  0.00  0.00    +0.000 A 
ATOM     33  C   UNL     1       4.699   4.516  15.013  0.00  0.00    +0.000 A 
ATOM     34  C   UNL     1       5.283   5.260  16.058  0.00  0.00    +0.000 A 
ENDBRANCH   1  34
TORSDOF 3
ENDMDL
MODEL 5
REMARK VINA RESULT:      -8.3      1.466      2.275
REMARK  Name = 
REMARK  5 active torsions:
REMARK  status: ('A' for Active; 'I' for Inactive)
REMARK    1  A    between atoms: C_1  and  C_2
REMARK    2  A    between atoms: C_7  and  C_8
REMARK    3  A    between atoms: C_12  and  C_13
REMARK    4  A    between atoms: C_17  and  N_18
REMARK    5  A    between atoms: N_21  and  C_22
REMARK                            x       y       z     vdW  Elec       q    Type
REMARK                         _______ _______ _______ _____ _____    ______ ____
ROOT
ATOM      1  C   UNL     1       3.892   6.206  17.871  0.00  0.00    +0.000 A 
ATOM      2  N   UNL     1       3.393   7.423  17.748  0.00  0.00    +0.000 NA
ATOM      3  C   UNL     1       2.565   7.603  18.823  0.00  0.00    +0.000 A 
ATOM      4  C   UNL     1       1.773   8.707  19.157  0.00  0.00    +0.000 A 
ATOM      5  C   UNL     1       0.991   8.654  20.323  0.00  0.00    +0.000 A 
ATOM      6  C   UNL     1       1.003   7.499  21.120  0.00  0.00    +0.000 A 
ATOM      7  C   UNL     1       1.797   6.388  20.806  0.00  0.00    +0.000 A 
ATOM      8  C   UNL     1       2.563   6.489  19.647  0.00  0.00    +0.000 A 
ATOM      9  N   UNL     1       3.433   5.626  19.037  0.00  0.00    +0.000 N 
ATOM     10  H   UNL     1       3.692   4.713  19.373  0.00  0.00    +0.000 HD
ENDROOT
BRANCH   5  11
ATOM     11  C   UNL     1       0.166   9.790  20.724  0.00  0.00    +0.000 A 
ATOM     12  N   UNL     1      -0.003  10.245  21.951  0.00  0.00    +0.000 NA
ATOM     13  C   UNL     1      -0.831  11.336  21.836  0.00  0.00    +0.000 A 
ATOM     14  C   UNL     1      -1.345  12.187  22.827  0.00  0.00    +0.000 A 
ATOM     15  C   UNL     1      -2.169  13.268  22.469  0.00  0.00    +0.000 A 
ATOM     16  C   UNL     1      -2.455  13.452  21.103  0.00  0.00    +0.000 A 
ATOM     17  C   UNL     1      -1.963  12.618  20.093  0.00  0.00    +0.000 A 
ATOM     18  C   UNL     1      -1.157  11.568  20.509  0.00  0.00    +0.000 A 
ATOM     19  N   UNL     1      -0.521  10.571  19.825  0.00  0.00    +0.000 N 
ATOM     20  H   UNL     1      -0.526  10.448  18.824  0.00  0.00    +0.000 HD
BRANCH  15  21
ATOM     21  N   UNL     1      -2.745  14.101  23.411  0.00  0.00    +0.000 N 
ATOM     22  C   UNL     1      -4.168  14.028  23.764  0.00  0.00    +0.000 C 
ATOM     23  C   UNL     1      -4.698  15.464  24.001  0.00  0.00    +0.000 C 
ATOM     24  N   UNL     1      -3.918  16.209  25.020  0.00  0.00    +0.000 NA
ATOM     25  C   UNL     1      -4.423  17.573  25.153  0.00  0.00    +0.000 C 
ATOM     26  C   UNL     1      -2.489  16.222  24.630  0.00  0.00    +0.000 C 
ATOM     27  C   UNL     1      -1.922  14.801  24.410  0.00  0.00    +0.000 C 
ENDBRANCH  15  21
ENDBRANCH   5  11
BRANCH   1  34
ATOM     28  C   UNL     1       3.405   3.381  16.990  0.00  0.00    +0.000 C 
ATOM     29  C   UNL     1       4.585   4.192  16.522  0.00  0.00    +0.000 A 
ATOM     30  C   UNL     1       5.505   3.593  15.643  0.00  0.00    +0.000 A 
ATOM     31  C   UNL     1       6.613   4.295  15.173  0.00  0.00    +0.000 A 
ATOM     32  C   UNL     1       6.827   5.605  15.580  0.00  0.00    +0.000 A 
ATOM     33  C   UNL     1       5.930   6.213  16.459  0.00  0.00    +0.000 A 
ATOM     34  C   UNL     1       4.798   5.524  16.939  0.00  0.00    +0.000 A 
ENDBRANCH   1  34
TORSDOF 3
ENDMDL
MODEL 6
REMARK VINA RESULT:      -8.2      1.297      1.772
REMARK  Name = 
REMARK  5 active torsions:
REMARK  status: ('A' for Active; 'I' for Inactive)
REMARK    1  A    between atoms: C_1  and  C_2
REMARK    2  A    between atoms: C_7  and  C_8
REMARK    3  A    between atoms: C_12  and  C_13
REMARK    4  A    between atoms: C_17  and  N_18
REMARK    5  A    between atoms: N_21  and  C_22
REMARK                            x       y       z     vdW  Elec       q    Type
REMARK                         _______ _______ _______ _____ _____    ______ ____
ROOT
ATOM      1  C   UNL     1       4.049   6.221  17.722  0.00  0.00    +0.000 A 
ATOM      2  N   UNL     1       3.548   7.428  17.530  0.00  0.00    +0.000 NA
ATOM      3  C   UNL     1       2.713   7.664  18.589  0.00  0.00    +0.000 A 
ATOM      4  C   UNL     1       1.916   8.782  18.857  0.00  0.00    +0.000 A 
ATOM      5  C   UNL     1       1.128   8.792  20.020  0.00  0.00    +0.000 A 
ATOM      6  C   UNL     1       1.139   7.682  20.881  0.00  0.00    +0.000 A 
ATOM      7  C   UNL     1       1.937   6.558  20.632  0.00  0.00    +0.000 A 
ATOM      8  C   UNL     1       2.709   6.597  19.473  0.00  0.00    +0.000 A 
ATOM      9  N   UNL     1       3.585   5.704  18.916  0.00  0.00    +0.000 N 
ATOM     10  H   UNL     1       3.844   4.812  19.304  0.00  0.00    +0.000 HD
ENDROOT
BRANCH   5  11
ATOM     11  C   UNL     1       0.298   9.945  20.353  0.00  0.00    +0.000 A 
ATOM     12  N   UNL     1       0.420  10.723  21.413  0.00  0.00    +0.000 NA
ATOM     13  C   UNL     1      -0.551  11.686  21.287  0.00  0.00    +0.000 A 
ATOM     14  C   UNL     1      -0.880  12.754  22.136  0.00  0.00    +0.000 A 
ATOM     15  C   UNL     1      -1.916  13.638  21.789  0.00  0.00    +0.000 A 
ATOM     16  C   UNL     1      -2.600  13.407  20.580  0.00  0.00    +0.000 A 
ATOM     17  C   UNL     1      -2.300  12.348  19.715  0.00  0.00    +0.000 A 
ATOM     18  C   UNL     1      -1.269  11.510  20.114  0.00  0.00    +0.000 A 
ATOM     19  N   UNL     1      -0.718  10.396  19.545  0.00  0.00    +0.000 N 
ATOM     20  H   UNL     1      -0.989   9.992  18.662  0.00  0.00    +0.000 HD
BRANCH  15  21
ATOM     21  N   UNL     1      -2.313  14.672  22.617  0.00  0.00    +0.000 N 
ATOM     22  C   UNL     1      -1.935  14.737  24.034  0.00  0.00    +0.000 C 
ATOM     23  C   UNL     1      -3.131  15.296  24.845  0.00  0.00    +0.000 C 
ATOM     24  N   UNL     1      -3.608  16.609  24.344  0.00  0.00    +0.000 NA
ATOM     25  C   UNL     1      -4.773  17.053  25.104  0.00  0.00    +0.000 C 
ATOM     26  C   UNL     1      -3.942  16.492  22.905  0.00  0.00    +0.000 C 
ATOM     27  C   UNL     1      -2.761  15.960  22.063  0.00  0.00    +0.000 C 
ENDBRANCH  15  21
ENDBRANCH   5  11
BRANCH   1  34
ATOM     28  C   UNL     1       6.919   7.032  17.409  0.00  0.00    +0.000 C 
ATOM     29  C   UNL     1       6.313   5.866  16.671  0.00  0.00    +0.000 A 
ATOM     30  C   UNL     1       7.127   5.134  15.788  0.00  0.00    +0.000 A 
ATOM     31  C   UNL     1       6.623   4.043  15.083  0.00  0.00    +0.000 A 
ATOM     32  C   UNL     1       5.294   3.670  15.240  0.00  0.00    +0.000 A 
ATOM     33  C   UNL     1       4.470   4.390  16.104  0.00  0.00    +0.000 A 
ATOM     34  C   UNL     1       4.962   5.491  16.835  0.00  0.00    +0.000 A 
ENDBRANCH   1  34
TORSDOF 3
ENDMDL
MODEL 7
REMARK VINA RESULT:      -8.2      1.615     11.558
REMARK  Name = 
REMARK  5 active torsions:
REMARK  status: ('A' for Active; 'I' for Inactive)
REMARK    1  A    between atoms: C_1  and  C_2
REMARK    2  A    between atoms: C_7  and  C_8
REMARK    3  A    between atoms: C_12  and  C_13
REMARK    4  A    between atoms: C_17  and  N_18
REMARK    5  A    between atoms: N_21  and  C_22
REMARK                            x       y       z     vdW  Elec       q    Type
REMARK                         _______ _______ _______ _____ _____    ______ ____
ROOT
ATOM      1  C   UNL     1      -1.979  12.730  21.462  0.00  0.00    +0.000 A 
ATOM      2  N   UNL     1      -1.394  12.126  20.443  0.00  0.00    +0.000 NA
ATOM      3  C   UNL     1      -0.736  11.047  20.971  0.00  0.00    +0.000 A 
ATOM      4  C   UNL     1       0.059  10.093  20.328  0.00  0.00    +0.000 A 
ATOM      5  C   UNL     1       0.643   9.068  21.092  0.00  0.00    +0.000 A 
ATOM      6  C   UNL     1       0.435   9.027  22.480  0.00  0.00    +0.000 A 
ATOM      7  C   UNL     1      -0.366   9.968  23.138  0.00  0.00    +0.000 A 
ATOM      8  C   UNL     1      -0.932  10.960  22.340  0.00  0.00    +0.000 A 
ATOM      9  N   UNL     1      -1.746  12.023  22.625  0.00  0.00    +0.000 N 
ATOM     10  H   UNL     1      -2.110  12.261  23.533  0.00  0.00    +0.000 HD
ENDROOT
BRANCH   5  11
ATOM     11  C   UNL     1       1.462   8.038  20.461  0.00  0.00    +0.000 A 
ATOM     12  N   UNL     1       2.211   8.178  19.384  0.00  0.00    +0.000 NA
ATOM     13  C   UNL     1       2.816   6.960  19.185  0.00  0.00    +0.000 A 
ATOM     14  C   UNL     1       3.701   6.545  18.178  0.00  0.00    +0.000 A 
ATOM     15  C   UNL     1       4.216   5.237  18.187  0.00  0.00    +0.000 A 
ATOM     16  C   UNL     1       3.808   4.377  19.224  0.00  0.00    +0.000 A 
ATOM     17  C   UNL     1       2.922   4.759  20.238  0.00  0.00    +0.000 A 
ATOM     18  C   UNL     1       2.448   6.061  20.174  0.00  0.00    +0.000 A 
ATOM     19  N   UNL     1       1.584   6.764  20.965  0.00  0.00    +0.000 N 
ATOM     20  H   UNL     1       1.136   6.418  21.800  0.00  0.00    +0.000 HD
BRANCH  15  21
ATOM     21  N   UNL     1       5.047   4.764  17.188  0.00  0.00    +0.000 N 
ATOM     22  C   UNL     1       6.507   4.717  17.334  0.00  0.00    +0.000 C 
ATOM     23  C   UNL     1       7.157   5.080  15.975  0.00  0.00    +0.000 C 
ATOM     24  N   UNL     1       6.689   4.219  14.860  0.00  0.00    +0.000 NA
ATOM     25  C   UNL     1       7.285   4.649  13.599  0.00  0.00    +0.000 C 
ATOM     26  C   UNL     1       5.211   4.280  14.782  0.00  0.00    +0.000 C 
ATOM     27  C   UNL     1       4.530   3.899  16.116  0.00  0.00    +0.000 C 
ENDBRANCH  15  21
ENDBRANCH   5  11
BRANCH   1  34
ATOM     28  C   UNL     1      -4.976  12.689  21.564  0.00  0.00    +0.000 C 
ATOM     29  C   UNL     1      -4.178  13.963  21.460  0.00  0.00    +0.000 A 
ATOM     30  C   UNL     1      -4.871  15.186  21.397  0.00  0.00    +0.000 A 
ATOM     31  C   UNL     1      -4.186  16.396  21.306  0.00  0.00    +0.000 A 
ATOM     32  C   UNL     1      -2.798  16.406  21.266  0.00  0.00    +0.000 A 
ATOM     33  C   UNL     1      -2.094  15.202  21.319  0.00  0.00    +0.000 A 
ATOM     34  C   UNL     1      -2.767  13.968  21.421  0.00  0.00    +0.000 A 
ENDBRANCH   1  34
TORSDOF 3
ENDMDL
MODEL 8
REMARK VINA RESULT:      -8.2      1.233      1.753
REMARK  Name = 
REMARK  5 active torsions:
REMARK  status: ('A' for Active; 'I' for Inactive)
REMARK    1  A    between atoms: C_1  and  C_2
REMARK    2  A    between atoms: C_7  and  C_8
REMARK    3  A    between atoms: C_12  and  C_13
REMARK    4  A    between atoms: C_17  and  N_18
REMARK    5  A    between atoms: N_21  and  C_22
REMARK                            x       y       z     vdW  Elec       q    Type
REMARK                         _______ _______ _______ _____ _____    ______ ____
ROOT
ATOM      1  C   UNL     1       4.818   5.250  16.183  0.00  0.00    +0.000 A 
ATOM      2  N   UNL     1       4.340   6.463  16.400  0.00  0.00    +0.000 NA
ATOM      3  C   UNL     1       3.660   6.394  17.586  0.00  0.00    +0.000 A 
ATOM      4  C   UNL     1       2.946   7.393  18.256  0.00  0.00    +0.000 A 
ATOM      5  C   UNL     1       2.316   7.079  19.472  0.00  0.00    +0.000 A 
ATOM      6  C   UNL     1       2.398   5.774  19.984  0.00  0.00    +0.000 A 
ATOM      7  C   UNL     1       3.116   4.764  19.330  0.00  0.00    +0.000 A 
ATOM      8  C   UNL     1       3.732   5.124  18.133  0.00  0.00    +0.000 A 
ATOM      9  N   UNL     1       4.495   4.422  17.239  0.00  0.00    +0.000 N 
ATOM     10  H   UNL     1       4.769   3.458  17.328  0.00  0.00    +0.000 HD
ENDROOT
BRANCH   5  11
ATOM     11  C   UNL     1       1.579   8.093  20.219  0.00  0.00    +0.000 A 
ATOM     12  N   UNL     1       1.099   9.227  19.743  0.00  0.00    +0.000 NA
ATOM     13  C   UNL     1       0.461   9.837  20.795  0.00  0.00    +0.000 A 
ATOM     14  C   UNL     1      -0.210  11.068  20.854  0.00  0.00    +0.000 A 
ATOM     15  C   UNL     1      -0.813  11.487  22.052  0.00  0.00    +0.000 A 
ATOM     16  C   UNL     1      -0.711  10.637  23.170  0.00  0.00    +0.000 A 
ATOM     17  C   UNL     1      -0.043   9.407  23.146  0.00  0.00    +0.000 A 
ATOM     18  C   UNL     1       0.532   9.051  21.935  0.00  0.00    +0.000 A 
ATOM     19  N   UNL     1       1.252   7.957  21.547  0.00  0.00    +0.000 N 
ATOM     20  H   UNL     1       1.477   7.164  22.128  0.00  0.00    +0.000 HD
BRANCH  15  21
ATOM     21  N   UNL     1      -1.438  12.714  22.175  0.00  0.00    +0.000 N 
ATOM     22  C   UNL     1      -1.205  13.606  23.318  0.00  0.00    +0.000 C 
ATOM     23  C   UNL     1      -2.542  14.293  23.695  0.00  0.00    +0.000 C 
ATOM     24  N   UNL     1      -3.165  15.013  22.556  0.00  0.00    +0.000 NA
ATOM     25  C   UNL     1      -4.449  15.584  22.954  0.00  0.00    +0.000 C 
ATOM     26  C   UNL     1      -3.344  14.074  21.424  0.00  0.00    +0.000 C 
ATOM     27  C   UNL     1      -2.024  13.389  21.007  0.00  0.00    +0.000 C 
ENDBRANCH  15  21
ENDBRANCH   5  11
BRANCH   1  34
ATOM     28  C   UNL     1       7.743   5.842  15.888  0.00  0.00    +0.000 C 
ATOM     29  C   UNL     1       6.956   5.075  14.858  0.00  0.00    +0.000 A 
ATOM     30  C   UNL     1       7.620   4.627  13.702  0.00  0.00    +0.000 A 
ATOM     31  C   UNL     1       6.945   3.908  12.717  0.00  0.00    +0.000 A 
ATOM     32  C   UNL     1       5.592   3.633  12.865  0.00  0.00    +0.000 A 
ATOM     33  C   UNL     1       4.914   4.077  14.001  0.00  0.00    +0.000 A 
ATOM     34  C   UNL     1       5.580   4.797  15.013  0.00  0.00    +0.000 A 
ENDBRANCH   1  34
TORSDOF 3
ENDMDL
MODEL 9
REMARK VINA RESULT:      -8.1      1.593     11.480
REMARK  Name = 
REMARK  5 active torsions:
REMARK  status: ('A' for Active; 'I' for Inactive)
REMARK    1  A    between atoms: C_1  and  C_2
REMARK    2  A    between atoms: C_7  and  C_8
REMARK    3  A    between atoms: C_12  and  C_13
REMARK    4  A    between atoms: C_17  and  N_18
REMARK    5  A    between atoms: N_21  and  C_22
REMARK                            x       y       z     vdW  Elec       q    Type
REMARK                         _______ _______ _______ _____ _____    ______ ____
ROOT
ATOM      1  C   UNL     1      -2.275  12.751  21.270  0.00  0.00    +0.000 A 
ATOM      2  N   UNL     1      -1.696  12.112  20.269  0.00  0.00    +0.000 NA
ATOM      3  C   UNL     1      -0.980  11.092  20.835  0.00  0.00    +0.000 A 
ATOM      4  C   UNL     1      -0.166  10.134  20.221  0.00  0.00    +0.000 A 
ATOM      5  C   UNL     1       0.480   9.177  21.023  0.00  0.00    +0.000 A 
ATOM      6  C   UNL     1       0.314   9.207  22.417  0.00  0.00    +0.000 A 
ATOM      7  C   UNL     1      -0.504  10.154  23.047  0.00  0.00    +0.000 A 
ATOM      8  C   UNL     1      -1.132  11.076  22.212  0.00  0.00    +0.000 A 
ATOM      9  N   UNL     1      -1.980  12.121  22.463  0.00  0.00    +0.000 N 
ATOM     10  H   UNL     1      -2.326  12.396  23.367  0.00  0.00    +0.000 HD
ENDROOT
BRANCH   5  11
ATOM     11  C   UNL     1       1.321   8.145  20.426  0.00  0.00    +0.000 A 
ATOM     12  N   UNL     1       2.078   8.270  19.352  0.00  0.00    +0.000 NA
ATOM     13  C   UNL     1       2.704   7.057  19.189  0.00  0.00    +0.000 A 
ATOM     14  C   UNL     1       3.605   6.632  18.201  0.00  0.00    +0.000 A 
ATOM     15  C   UNL     1       4.140   5.333  18.246  0.00  0.00    +0.000 A 
ATOM     16  C   UNL     1       3.735   4.493  19.301  0.00  0.00    +0.000 A 
ATOM     17  C   UNL     1       2.834   4.885  20.297  0.00  0.00    +0.000 A 
ATOM     18  C   UNL     1       2.340   6.177  20.197  0.00  0.00    +0.000 A 
ATOM     19  N   UNL     1       1.458   6.886  20.962  0.00  0.00    +0.000 N 
ATOM     20  H   UNL     1       1.008   6.554  21.801  0.00  0.00    +0.000 HD
BRANCH  15  21
ATOM     21  N   UNL     1       4.988   4.849  17.268  0.00  0.00    +0.000 N 
ATOM     22  C   UNL     1       6.442   4.765  17.454  0.00  0.00    +0.000 C 
ATOM     23  C   UNL     1       7.138   5.124  16.117  0.00  0.00    +0.000 C 
ATOM     24  N   UNL     1       6.682   4.284  14.982  0.00  0.00    +0.000 NA
ATOM     25  C   UNL     1       7.324   4.711  13.742  0.00  0.00    +0.000 C 
ATOM     26  C   UNL     1       5.208   4.381  14.863  0.00  0.00    +0.000 C 
ATOM     27  C   UNL     1       4.481   4.005  16.174  0.00  0.00    +0.000 C 
ENDBRANCH  15  21
ENDBRANCH   5  11
BRANCH   1  34
ATOM     28  C   UNL     1      -1.085  15.503  21.346  0.00  0.00    +0.000 C 
ATOM     29  C   UNL     1      -2.567  15.255  21.228  0.00  0.00    +0.000 A 
ATOM     30  C   UNL     1      -3.430  16.363  21.162  0.00  0.00    +0.000 A 
ATOM     31  C   UNL     1      -4.809  16.195  21.046  0.00  0.00    +0.000 A 
ATOM     32  C   UNL     1      -5.350  14.917  21.004  0.00  0.00    +0.000 A 
ATOM     33  C   UNL     1      -4.510  13.806  21.077  0.00  0.00    +0.000 A 
ATOM     34  C   UNL     1      -3.112  13.953  21.185  0.00  0.00    +0.000 A 
ENDBRANCH   1  34
TORSDOF 3
ENDMDL
