MODEL 1
REMARK VINA RESULT:      -8.7      0.000      0.000
REMARK  Name = 
REMARK  5 active torsions:
REMARK  status: ('A' for Active; 'I' for Inactive)
REMARK    1  A    between atoms: C_2  and  C_22
REMARK    2  A    between atoms: N_3  and  C_4
REMARK    3  A    between atoms: C_7  and  C_8
REMARK    4  A    between atoms: C_8  and  N_9
REMARK    5  A    between atoms: C_24  and  C_25
REMARK                            x       y       z     vdW  Elec       q    Type
REMARK                         _______ _______ _______ _____ _____    ______ ____
ROOT
ATOM      1  C   UNL     1       2.202   7.648  18.858  0.00  0.00    +0.000 A 
ATOM      2  C   UNL     1       2.509   6.586  19.707  0.00  0.00    +0.000 A 
ATOM      3  C   UNL     1       3.605   5.751  19.470  0.00  0.00    +0.000 A 
ATOM      4  C   UNL     1       4.464   5.970  18.388  0.00  0.00    +0.000 A 
ATOM      5  C   UNL     1       4.245   7.144  17.645  0.00  0.00    +0.000 A 
ATOM      6  C   UNL     1       3.098   7.935  17.823  0.00  0.00    +0.000 A 
ENDROOT
BRANCH   1   9
ATOM      7  O   UNL     1       1.451   9.360  21.146  0.00  0.00    +0.000 OA
ATOM      8  C   UNL     1       0.779   9.248  20.134  0.00  0.00    +0.000 C 
ATOM      9  N   UNL     1       1.057   8.456  19.018  0.00  0.00    +0.000 N 
ATOM     10  H   UNL     1       0.401   8.477  18.246  0.00  0.00    +0.000 HD
BRANCH   8  11
ATOM     11  C   UNL     1      -0.475  10.014  20.007  0.00  0.00    +0.000 C 
ATOM     12  C   UNL     1      -0.461  11.508  20.272  0.00  0.00    +0.000 C 
ATOM     13  C   UNL     1      -0.631  11.017  18.856  0.00  0.00    +0.000 C 
BRANCH  13  14
ATOM     14  C   UNL     1      -1.964  10.995  18.143  0.00  0.00    +0.000 A 
ATOM     15  C   UNL     1      -2.194  10.321  16.937  0.00  0.00    +0.000 A 
ATOM     16  C   UNL     1      -3.428  10.412  16.291  0.00  0.00    +0.000 A 
ATOM     17  C   UNL     1      -4.425  11.169  16.880  0.00  0.00    +0.000 A 
ATOM     18  N   UNL     1      -4.270  11.814  18.053  0.00  0.00    +0.000 NA
ATOM     19  C   UNL     1      -3.058  11.705  18.649  0.00  0.00    +0.000 A 
ENDBRANCH  13  14
ENDBRANCH   8  11
ENDBRANCH   1   9
BRANCH   4  20
ATOM     20  C   UNL     1       5.619   5.008  18.114  0.00  0.00    +0.000 C 
BRANCH  20  21
ATOM     21  N   UNL     1       6.024   4.826  16.694  0.00  0.00    +0.000 N 
ATOM     22  C   UNL     1       5.306   3.988  15.903  0.00  0.00    +0.000 C 
ATOM     23  O   UNL     1       4.410   3.203  16.225  0.00  0.00    +0.000 OA
ATOM     24  C   UNL     1       5.802   4.078  14.544  0.00  0.00    +0.000 A 
ATOM     25  C   UNL     1       5.335   3.512  13.372  0.00  0.00    +0.000 A 
ATOM     26  C   UNL     1       6.120   3.680  12.230  0.00  0.00    +0.000 A 
ATOM     27  C   UNL     1       7.353   4.359  12.298  0.00  0.00    +0.000 A 
ATOM     28  C   UNL     1       7.761   4.981  13.486  0.00  0.00    +0.000 A 
ATOM     29  C   UNL     1       6.924   4.863  14.587  0.00  0.00    +0.000 A 
ATOM     30  C   UNL     1       6.954   5.483  15.920  0.00  0.00    +0.000 C 
ATOM     31  O   UNL     1       7.647   6.465  16.128  0.00  0.00    +0.000 OA
ENDBRANCH  20  21
ENDBRANCH   4  20
TORSDOF 5
ENDMDL
MODEL 2
REMARK VINA RESULT:      -8.5      0.558      1.041
REMARK  Name = 
REMARK  5 active torsions:
REMARK  status: ('A' for Active; 'I' for Inactive)
REMARK    1  A    between atoms: C_2  and  C_22
REMARK    2  A    between atoms: N_3  and  C_4
REMARK    3  A    between atoms: C_7  and  C_8
REMARK    4  A    between atoms: C_8  and  N_9
REMARK    5  A    between atoms: C_24  and  C_25
REMARK                            x       y       z     vdW  Elec       q    Type
REMARK                         _______ _______ _______ _____ _____    ______ ____
ROOT
ATOM      1  C   UNL     1       2.219   7.682  18.963  0.00  0.00    +0.000 A 
ATOM      2  C   UNL     1       3.045   7.877  17.858  0.00  0.00    +0.000 A 
ATOM      3  C   UNL     1       4.138   7.042  17.603  0.00  0.00    +0.000 A 
ATOM      4  C   UNL     1       4.424   5.949  18.427  0.00  0.00    +0.000 A 
ATOM      5  C   UNL     1       3.482   5.662  19.432  0.00  0.00    +0.000 A 
ATOM      6  C   UNL     1       2.437   6.544  19.748  0.00  0.00    +0.000 A 
ENDROOT
BRANCH   1   9
ATOM      7  O   UNL     1       1.635   8.964  21.561  0.00  0.00    +0.000 OA
ATOM      8  C   UNL     1       0.961   9.128  20.557  0.00  0.00    +0.000 C 
ATOM      9  N   UNL     1       1.162   8.554  19.300  0.00  0.00    +0.000 N 
ATOM     10  H   UNL     1       0.517   8.797  18.558  0.00  0.00    +0.000 HD
BRANCH   8  11
ATOM     11  C   UNL     1      -0.206  10.029  20.606  0.00  0.00    +0.000 C 
ATOM     12  C   UNL     1       0.016  11.521  20.774  0.00  0.00    +0.000 C 
ATOM     13  C   UNL     1      -0.459  10.996  19.442  0.00  0.00    +0.000 C 
BRANCH  13  14
ATOM     14  C   UNL     1      -1.895  11.100  18.976  0.00  0.00    +0.000 A 
ATOM     15  C   UNL     1      -2.451  10.297  17.973  0.00  0.00    +0.000 A 
ATOM     16  C   UNL     1      -3.759  10.503  17.535  0.00  0.00    +0.000 A 
ATOM     17  C   UNL     1      -4.501  11.509  18.128  0.00  0.00    +0.000 A 
ATOM     18  N   UNL     1      -4.029  12.293  19.118  0.00  0.00    +0.000 NA
ATOM     19  C   UNL     1      -2.753  12.065  19.514  0.00  0.00    +0.000 A 
ENDBRANCH  13  14
ENDBRANCH   8  11
ENDBRANCH   1   9
BRANCH   4  20
ATOM     20  C   UNL     1       5.658   5.088  18.163  0.00  0.00    +0.000 C 
BRANCH  20  21
ATOM     21  N   UNL     1       6.044   4.880  16.742  0.00  0.00    +0.000 N 
ATOM     22  C   UNL     1       5.303   4.044  15.970  0.00  0.00    +0.000 C 
ATOM     23  O   UNL     1       4.397   3.278  16.313  0.00  0.00    +0.000 OA
ATOM     24  C   UNL     1       5.786   4.106  14.604  0.00  0.00    +0.000 A 
ATOM     25  C   UNL     1       5.296   3.532  13.446  0.00  0.00    +0.000 A 
ATOM     26  C   UNL     1       6.071   3.671  12.293  0.00  0.00    +0.000 A 
ATOM     27  C   UNL     1       7.316   4.329  12.338  0.00  0.00    +0.000 A 
ATOM     28  C   UNL     1       7.747   4.960  13.513  0.00  0.00    +0.000 A 
ATOM     29  C   UNL     1       6.921   4.872  14.624  0.00  0.00    +0.000 A 
ATOM     30  C   UNL     1       6.976   5.509  15.949  0.00  0.00    +0.000 C 
ATOM     31  O   UNL     1       7.688   6.482  16.135  0.00  0.00    +0.000 OA
ENDBRANCH  20  21
ENDBRANCH   4  20
TORSDOF 5
ENDMDL
MODEL 3
REMARK VINA RESULT:      -8.4      5.752      8.914
REMARK  Name = 
REMARK  5 active torsions:
REMARK  status: ('A' for Active; 'I' for Inactive)
REMARK    1  A    between atoms: C_2  and  C_22
REMARK    2  A    between atoms: N_3  and  C_4
REMARK    3  A    between atoms: C_7  and  C_8
REMARK    4  A    between atoms: C_8  and  N_9
REMARK    5  A    between atoms: C_24  and  C_25
REMARK                            x       y       z     vdW  Elec       q    Type
REMARK                         _______ _______ _______ _____ _____    ______ ____
ROOT
ATOM      1  C   UNL     1       8.253   7.591  18.535  0.00  0.00    +0.000 A 
ATOM      2  C   UNL     1       8.244   6.460  19.349  0.00  0.00    +0.000 A 
ATOM      3  C   UNL     1       7.480   5.333  19.030  0.00  0.00    +0.000 A 
ATOM      4  C   UNL     1       6.719   5.280  17.857  0.00  0.00    +0.000 A 
ATOM      5  C   UNL     1       6.875   6.354  16.963  0.00  0.00    +0.000 A 
ATOM      6  C   UNL     1       7.569   7.523  17.316  0.00  0.00    +0.000 A 
ENDROOT
BRANCH   1   9
ATOM      7  O   UNL     1       7.783  10.341  17.561  0.00  0.00    +0.000 OA
ATOM      8  C   UNL     1       8.649  10.047  18.367  0.00  0.00    +0.000 C 
ATOM      9  N   UNL     1       8.942   8.776  18.868  0.00  0.00    +0.000 N 
ATOM     10  H   UNL     1       9.692   8.693  19.544  0.00  0.00    +0.000 HD
BRANCH   8  11
ATOM     11  C   UNL     1       9.515  11.105  18.921  0.00  0.00    +0.000 C 
ATOM     12  C   UNL     1      10.998  11.093  18.600  0.00  0.00    +0.000 C 
ATOM     13  C   UNL     1      10.122  12.151  17.978  0.00  0.00    +0.000 C 
BRANCH  13  14
ATOM     14  C   UNL     1      10.078  13.581  18.470  0.00  0.00    +0.000 A 
ATOM     15  C   UNL     1       8.933  14.191  18.998  0.00  0.00    +0.000 A 
ATOM     16  C   UNL     1       8.942  15.540  19.356  0.00  0.00    +0.000 A 
ATOM     17  C   UNL     1      10.114  16.256  19.193  0.00  0.00    +0.000 A 
ATOM     18  N   UNL     1      11.254  15.715  18.719  0.00  0.00    +0.000 NA
ATOM     19  C   UNL     1      11.205  14.404  18.379  0.00  0.00    +0.000 A 
ENDBRANCH  13  14
ENDBRANCH   8  11
ENDBRANCH   1   9
BRANCH   4  20
ATOM     20  C   UNL     1       5.844   4.063  17.562  0.00  0.00    +0.000 C 
BRANCH  20  21
ATOM     21  N   UNL     1       4.715   3.801  18.494  0.00  0.00    +0.000 N 
ATOM     22  C   UNL     1       3.518   4.401  18.268  0.00  0.00    +0.000 C 
ATOM     23  O   UNL     1       3.241   5.286  17.454  0.00  0.00    +0.000 OA
ATOM     24  C   UNL     1       2.546   3.893  19.217  0.00  0.00    +0.000 A 
ATOM     25  C   UNL     1       1.185   4.111  19.320  0.00  0.00    +0.000 A 
ATOM     26  C   UNL     1       0.541   3.578  20.439  0.00  0.00    +0.000 A 
ATOM     27  C   UNL     1       1.271   2.895  21.431  0.00  0.00    +0.000 A 
ATOM     28  C   UNL     1       2.636   2.631  21.259  0.00  0.00    +0.000 A 
ATOM     29  C   UNL     1       3.236   3.105  20.101  0.00  0.00    +0.000 A 
ATOM     30  C   UNL     1       4.576   2.904  19.529  0.00  0.00    +0.000 C 
ATOM     31  O   UNL     1       5.286   1.996  19.927  0.00  0.00    +0.000 OA
ENDBRANCH  20  21
ENDBRANCH   4  20
TORSDOF 5
ENDMDL
MODEL 4
REMARK VINA RESULT:      -8.4      0.885      1.490
REMARK  Name = 
REMARK  5 active torsions:
REMARK  status: ('A' for Active; 'I' for Inactive)
REMARK    1  A    between atoms: C_2  and  C_22
REMARK    2  A    between atoms: N_3  and  C_4
REMARK    3  A    between atoms: C_7  and  C_8
REMARK    4  A    between atoms: C_8  and  N_9
REMARK    5  A    between atoms: C_24  and  C_25
REMARK                            x       y       z     vdW  Elec       q    Type
REMARK                         _______ _______ _______ _____ _____    ______ ____
ROOT
ATOM      1  C   UNL     1       2.215   7.743  18.954  0.00  0.00    +0.000 A 
ATOM      2  C   UNL     1       3.000   7.870  17.810  0.00  0.00    +0.000 A 
ATOM      3  C   UNL     1       4.076   7.012  17.559  0.00  0.00    +0.000 A 
ATOM      4  C   UNL     1       4.387   5.964  18.432  0.00  0.00    +0.000 A 
ATOM      5  C   UNL     1       3.483   5.741  19.486  0.00  0.00    +0.000 A 
ATOM      6  C   UNL     1       2.456   6.649  19.792  0.00  0.00    +0.000 A 
ENDROOT
BRANCH   1   9
ATOM      7  O   UNL     1       1.924  10.585  18.200  0.00  0.00    +0.000 OA
ATOM      8  C   UNL     1       1.111   9.976  18.875  0.00  0.00    +0.000 C 
ATOM      9  N   UNL     1       1.178   8.641  19.282  0.00  0.00    +0.000 N 
ATOM     10  H   UNL     1       0.414   8.275  19.836  0.00  0.00    +0.000 HD
BRANCH   8  11
ATOM     11  C   UNL     1      -0.109  10.665  19.339  0.00  0.00    +0.000 C 
ATOM     12  C   UNL     1      -0.015  12.108  19.799  0.00  0.00    +0.000 C 
ATOM     13  C   UNL     1      -0.701  11.798  18.492  0.00  0.00    +0.000 C 
BRANCH  13  14
ATOM     14  C   UNL     1      -2.205  11.781  18.331  0.00  0.00    +0.000 A 
ATOM     15  C   UNL     1      -3.102  12.189  19.326  0.00  0.00    +0.000 A 
ATOM     16  C   UNL     1      -4.479  12.069  19.141  0.00  0.00    +0.000 A 
ATOM     17  C   UNL     1      -4.939  11.553  17.942  0.00  0.00    +0.000 A 
ATOM     18  N   UNL     1      -4.125  11.172  16.938  0.00  0.00    +0.000 NA
ATOM     19  C   UNL     1      -2.793  11.301  17.157  0.00  0.00    +0.000 A 
ENDBRANCH  13  14
ENDBRANCH   8  11
ENDBRANCH   1   9
BRANCH   4  20
ATOM     20  C   UNL     1       5.604   5.079  18.169  0.00  0.00    +0.000 C 
BRANCH  20  21
ATOM     21  N   UNL     1       5.998   4.877  16.749  0.00  0.00    +0.000 N 
ATOM     22  C   UNL     1       5.267   4.038  15.972  0.00  0.00    +0.000 C 
ATOM     23  O   UNL     1       4.365   3.265  16.309  0.00  0.00    +0.000 OA
ATOM     24  C   UNL     1       5.755   4.108  14.609  0.00  0.00    +0.000 A 
ATOM     25  C   UNL     1       5.275   3.533  13.446  0.00  0.00    +0.000 A 
ATOM     26  C   UNL     1       6.055   3.681  12.297  0.00  0.00    +0.000 A 
ATOM     27  C   UNL     1       7.294   4.348  12.350  0.00  0.00    +0.000 A 
ATOM     28  C   UNL     1       7.716   4.979  13.528  0.00  0.00    +0.000 A 
ATOM     29  C   UNL     1       6.885   4.882  14.636  0.00  0.00    +0.000 A 
ATOM     30  C   UNL     1       6.930   5.516  15.962  0.00  0.00    +0.000 C 
ATOM     31  O   UNL     1       7.634   6.494  16.154  0.00  0.00    +0.000 OA
ENDBRANCH  20  21
ENDBRANCH   4  20
TORSDOF 5
ENDMDL
MODEL 5
REMARK VINA RESULT:      -8.3      5.833      8.969
REMARK  Name = 
REMARK  5 active torsions:
REMARK  status: ('A' for Active; 'I' for Inactive)
REMARK    1  A    between atoms: C_2  and  C_22
REMARK    2  A    between atoms: N_3  and  C_4
REMARK    3  A    between atoms: C_7  and  C_8
REMARK    4  A    between atoms: C_8  and  N_9
REMARK    5  A    between atoms: C_24  and  C_25
REMARK                            x       y       z     vdW  Elec       q    Type
REMARK                         _______ _______ _______ _____ _____    ______ ____
ROOT
ATOM      1  C   UNL     1       8.276   7.789  18.550  0.00  0.00    +0.000 A 
ATOM      2  C   UNL     1       8.300   6.588  19.257  0.00  0.00    +0.000 A 
ATOM      3  C   UNL     1       7.521   5.493  18.869  0.00  0.00    +0.000 A 
ATOM      4  C   UNL     1       6.712   5.546  17.729  0.00  0.00    +0.000 A 
ATOM      5  C   UNL     1       6.832   6.697  16.930  0.00  0.00    +0.000 A 
ATOM      6  C   UNL     1       7.541   7.831  17.360  0.00  0.00    +0.000 A 
ENDROOT
BRANCH   1   9
ATOM      7  O   UNL     1       8.012  10.566  17.575  0.00  0.00    +0.000 OA
ATOM      8  C   UNL     1       8.788  10.227  18.453  0.00  0.00    +0.000 C 
ATOM      9  N   UNL     1       8.980   8.940  18.961  0.00  0.00    +0.000 N 
ATOM     10  H   UNL     1       9.661   8.819  19.702  0.00  0.00    +0.000 HD
BRANCH   8  11
ATOM     11  C   UNL     1       9.642  11.241  19.099  0.00  0.00    +0.000 C 
ATOM     12  C   UNL     1      11.150  11.128  18.975  0.00  0.00    +0.000 C 
ATOM     13  C   UNL     1      10.434  12.224  18.226  0.00  0.00    +0.000 C 
BRANCH  13  14
ATOM     14  C   UNL     1      10.421  13.665  18.684  0.00  0.00    +0.000 A 
ATOM     15  C   UNL     1      11.371  14.218  19.552  0.00  0.00    +0.000 A 
ATOM     16  C   UNL     1      11.252  15.535  19.998  0.00  0.00    +0.000 A 
ATOM     17  C   UNL     1      10.182  16.287  19.548  0.00  0.00    +0.000 A 
ATOM     18  N   UNL     1       9.255  15.818  18.689  0.00  0.00    +0.000 NA
ATOM     19  C   UNL     1       9.402  14.535  18.281  0.00  0.00    +0.000 A 
ENDBRANCH  13  14
ENDBRANCH   8  11
ENDBRANCH   1   9
BRANCH   4  20
ATOM     20  C   UNL     1       5.824   4.359  17.360  0.00  0.00    +0.000 C 
BRANCH  20  21
ATOM     21  N   UNL     1       4.568   4.188  18.138  0.00  0.00    +0.000 N 
ATOM     22  C   UNL     1       4.539   3.296  19.162  0.00  0.00    +0.000 C 
ATOM     23  O   UNL     1       5.388   2.458  19.477  0.00  0.00    +0.000 OA
ATOM     24  C   UNL     1       3.266   3.403  19.848  0.00  0.00    +0.000 A 
ATOM     25  C   UNL     1       2.808   2.795  21.002  0.00  0.00    +0.000 A 
ATOM     26  C   UNL     1       1.469   3.001  21.339  0.00  0.00    +0.000 A 
ATOM     27  C   UNL     1       0.626   3.759  20.503  0.00  0.00    +0.000 A 
ATOM     28  C   UNL     1       1.141   4.420  19.379  0.00  0.00    +0.000 A 
ATOM     29  C   UNL     1       2.493   4.260  19.110  0.00  0.00    +0.000 A 
ATOM     30  C   UNL     1       3.387   4.895  18.129  0.00  0.00    +0.000 C 
ATOM     31  O   UNL     1       3.050   5.923  17.565  0.00  0.00    +0.000 OA
ENDBRANCH  20  21
ENDBRANCH   4  20
TORSDOF 5
ENDMDL
MODEL 6
REMARK VINA RESULT:      -8.2      3.382     11.810
REMARK  Name = 
REMARK  5 active torsions:
REMARK  status: ('A' for Active; 'I' for Inactive)
REMARK    1  A    between atoms: C_2  and  C_22
REMARK    2  A    between atoms: N_3  and  C_4
REMARK    3  A    between atoms: C_7  and  C_8
REMARK    4  A    between atoms: C_8  and  N_9
REMARK    5  A    between atoms: C_24  and  C_25
REMARK                            x       y       z     vdW  Elec       q    Type
REMARK                         _______ _______ _______ _____ _____    ______ ____
ROOT
ATOM      1  C   UNL     1       0.498   9.984  19.807  0.00  0.00    +0.000 A 
ATOM      2  C   UNL     1      -0.568  10.224  18.943  0.00  0.00    +0.000 A 
ATOM      3  C   UNL     1      -1.435  11.306  19.130  0.00  0.00    +0.000 A 
ATOM      4  C   UNL     1      -1.244  12.216  20.175  0.00  0.00    +0.000 A 
ATOM      5  C   UNL     1      -0.068  12.062  20.930  0.00  0.00    +0.000 A 
ATOM      6  C   UNL     1       0.756  10.931  20.804  0.00  0.00    +0.000 A 
ENDROOT
BRANCH   1   9
ATOM      7  O   UNL     1       1.969   8.992  17.444  0.00  0.00    +0.000 OA
ATOM      8  C   UNL     1       2.009   8.459  18.540  0.00  0.00    +0.000 C 
ATOM      9  N   UNL     1       1.339   8.856  19.700  0.00  0.00    +0.000 N 
ATOM     10  H   UNL     1       1.482   8.311  20.541  0.00  0.00    +0.000 HD
BRANCH   8  11
ATOM     11  C   UNL     1       2.846   7.260  18.734  0.00  0.00    +0.000 C 
ATOM     12  C   UNL     1       2.413   5.945  18.112  0.00  0.00    +0.000 C 
ATOM     13  C   UNL     1       3.604   6.670  17.537  0.00  0.00    +0.000 C 
BRANCH  13  14
ATOM     14  C   UNL     1       5.034   6.255  17.806  0.00  0.00    +0.000 A 
ATOM     15  C   UNL     1       6.149   6.866  17.218  0.00  0.00    +0.000 A 
ATOM     16  C   UNL     1       7.435   6.378  17.447  0.00  0.00    +0.000 A 
ATOM     17  C   UNL     1       7.585   5.287  18.285  0.00  0.00    +0.000 A 
ATOM     18  N   UNL     1       6.553   4.678  18.902  0.00  0.00    +0.000 NA
ATOM     19  C   UNL     1       5.319   5.178  18.652  0.00  0.00    +0.000 A 
ENDBRANCH  13  14
ENDBRANCH   8  11
ENDBRANCH   1   9
BRANCH   4  20
ATOM     20  C   UNL     1      -2.239  13.354  20.396  0.00  0.00    +0.000 C 
BRANCH  20  21
ATOM     21  N   UNL     1      -3.615  12.975  20.816  0.00  0.00    +0.000 N 
ATOM     22  C   UNL     1      -3.986  13.159  22.110  0.00  0.00    +0.000 C 
ATOM     23  O   UNL     1      -3.285  13.472  23.076  0.00  0.00    +0.000 OA
ATOM     24  C   UNL     1      -5.396  12.848  22.247  0.00  0.00    +0.000 A 
ATOM     25  C   UNL     1      -6.250  12.983  23.326  0.00  0.00    +0.000 A 
ATOM     26  C   UNL     1      -7.538  12.463  23.184  0.00  0.00    +0.000 A 
ATOM     27  C   UNL     1      -7.917  11.792  22.004  0.00  0.00    +0.000 A 
ATOM     28  C   UNL     1      -7.049  11.736  20.905  0.00  0.00    +0.000 A 
ATOM     29  C   UNL     1      -5.802  12.328  21.046  0.00  0.00    +0.000 A 
ATOM     30  C   UNL     1      -4.715  12.582  20.088  0.00  0.00    +0.000 C 
ATOM     31  O   UNL     1      -4.926  12.523  18.888  0.00  0.00    +0.000 OA
ENDBRANCH  20  21
ENDBRANCH   4  20
TORSDOF 5
ENDMDL
MODEL 7
REMARK VINA RESULT:      -8.2      3.704     11.774
REMARK  Name = 
REMARK  5 active torsions:
REMARK  status: ('A' for Active; 'I' for Inactive)
REMARK    1  A    between atoms: C_2  and  C_22
REMARK    2  A    between atoms: N_3  and  C_4
REMARK    3  A    between atoms: C_7  and  C_8
REMARK    4  A    between atoms: C_8  and  N_9
REMARK    5  A    between atoms: C_24  and  C_25
REMARK                            x       y       z     vdW  Elec       q    Type
REMARK                         _______ _______ _______ _____ _____    ______ ____
ROOT
ATOM      1  C   UNL     1       0.586   9.431  21.766  0.00  0.00    +0.000 A 
ATOM      2  C   UNL     1       0.774  10.687  21.192  0.00  0.00    +0.000 A 
ATOM      3  C   UNL     1      -0.002  11.788  21.567  0.00  0.00    +0.000 A 
ATOM      4  C   UNL     1      -0.977  11.683  22.566  0.00  0.00    +0.000 A 
ATOM      5  C   UNL     1      -1.033  10.458  23.256  0.00  0.00    +0.000 A 
ATOM      6  C   UNL     1      -0.322   9.327  22.825  0.00  0.00    +0.000 A 
ENDROOT
BRANCH   1   9
ATOM      7  O   UNL     1       1.622   8.765  19.080  0.00  0.00    +0.000 OA
ATOM      8  C   UNL     1       1.756   8.045  20.055  0.00  0.00    +0.000 C 
ATOM      9  N   UNL     1       1.290   8.281  21.351  0.00  0.00    +0.000 N 
ATOM     10  H   UNL     1       1.490   7.587  22.061  0.00  0.00    +0.000 HD
BRANCH   8  11
ATOM     11  C   UNL     1       2.490   6.773  19.923  0.00  0.00    +0.000 C 
ATOM     12  C   UNL     1       1.865   5.498  20.460  0.00  0.00    +0.000 C 
ATOM     13  C   UNL     1       1.962   5.695  18.968  0.00  0.00    +0.000 C 
BRANCH  13  14
ATOM     14  C   UNL     1       3.002   5.012  18.109  0.00  0.00    +0.000 A 
ATOM     15  C   UNL     1       3.170   3.623  18.040  0.00  0.00    +0.000 A 
ATOM     16  C   UNL     1       4.205   3.063  17.290  0.00  0.00    +0.000 A 
ATOM     17  C   UNL     1       5.051   3.913  16.601  0.00  0.00    +0.000 A 
ATOM     18  N   UNL     1       4.920   5.254  16.605  0.00  0.00    +0.000 NA
ATOM     19  C   UNL     1       3.905   5.761  17.348  0.00  0.00    +0.000 A 
ENDBRANCH  13  14
ENDBRANCH   8  11
ENDBRANCH   1   9
BRANCH   4  20
ATOM     20  C   UNL     1      -1.853  12.884  22.915  0.00  0.00    +0.000 C 
BRANCH  20  21
ATOM     21  N   UNL     1      -3.311  12.757  22.646  0.00  0.00    +0.000 N 
ATOM     22  C   UNL     1      -4.180  12.767  23.690  0.00  0.00    +0.000 C 
ATOM     23  O   UNL     1      -3.933  12.718  24.898  0.00  0.00    +0.000 OA
ATOM     24  C   UNL     1      -5.536  12.767  23.177  0.00  0.00    +0.000 A 
ATOM     25  C   UNL     1      -6.749  12.883  23.831  0.00  0.00    +0.000 A 
ATOM     26  C   UNL     1      -7.902  12.711  23.063  0.00  0.00    +0.000 A 
ATOM     27  C   UNL     1      -7.813  12.386  21.695  0.00  0.00    +0.000 A 
ATOM     28  C   UNL     1      -6.570  12.346  21.050  0.00  0.00    +0.000 A 
ATOM     29  C   UNL     1      -5.443  12.597  21.821  0.00  0.00    +0.000 A 
ATOM     30  C   UNL     1      -4.026  12.776  21.470  0.00  0.00    +0.000 C 
ATOM     31  O   UNL     1      -3.701  13.000  20.316  0.00  0.00    +0.000 OA
ENDBRANCH  20  21
ENDBRANCH   4  20
TORSDOF 5
ENDMDL
MODEL 8
REMARK VINA RESULT:      -8.2      3.524     11.794
REMARK  Name = 
REMARK  5 active torsions:
REMARK  status: ('A' for Active; 'I' for Inactive)
REMARK    1  A    between atoms: C_2  and  C_22
REMARK    2  A    between atoms: N_3  and  C_4
REMARK    3  A    between atoms: C_7  and  C_8
REMARK    4  A    between atoms: C_8  and  N_9
REMARK    5  A    between atoms: C_24  and  C_25
REMARK                            x       y       z     vdW  Elec       q    Type
REMARK                         _______ _______ _______ _____ _____    ______ ____
ROOT
ATOM      1  C   UNL     1       0.720   9.097  21.459  0.00  0.00    +0.000 A 
ATOM      2  C   UNL     1      -0.035   9.009  22.627  0.00  0.00    +0.000 A 
ATOM      3  C   UNL     1      -0.782  10.092  23.100  0.00  0.00    +0.000 A 
ATOM      4  C   UNL     1      -0.834  11.300  22.398  0.00  0.00    +0.000 A 
ATOM      5  C   UNL     1      -0.212  11.316  21.136  0.00  0.00    +0.000 A 
ATOM      6  C   UNL     1       0.611  10.266  20.698  0.00  0.00    +0.000 A 
ENDROOT
BRANCH   1   9
ATOM      7  O   UNL     1       1.670   8.564  18.712  0.00  0.00    +0.000 OA
ATOM      8  C   UNL     1       1.966   7.878  19.676  0.00  0.00    +0.000 C 
ATOM      9  N   UNL     1       1.553   8.055  20.999  0.00  0.00    +0.000 N 
ATOM     10  H   UNL     1       1.894   7.402  21.694  0.00  0.00    +0.000 HD
BRANCH   8  11
ATOM     11  C   UNL     1       2.864   6.722  19.496  0.00  0.00    +0.000 C 
ATOM     12  C   UNL     1       2.353   5.494  18.765  0.00  0.00    +0.000 C 
ATOM     13  C   UNL     1       3.374   6.377  18.092  0.00  0.00    +0.000 C 
BRANCH  13  14
ATOM     14  C   UNL     1       4.841   6.020  17.995  0.00  0.00    +0.000 A 
ATOM     15  C   UNL     1       5.776   6.752  17.253  0.00  0.00    +0.000 A 
ATOM     16  C   UNL     1       7.098   6.319  17.141  0.00  0.00    +0.000 A 
ATOM     17  C   UNL     1       7.467   5.158  17.797  0.00  0.00    +0.000 A 
ATOM     18  N   UNL     1       6.619   4.429  18.549  0.00  0.00    +0.000 NA
ATOM     19  C   UNL     1       5.343   4.880  18.630  0.00  0.00    +0.000 A 
ENDBRANCH  13  14
ENDBRANCH   8  11
ENDBRANCH   1   9
BRANCH   4  20
ATOM     20  C   UNL     1      -1.608  12.489  22.966  0.00  0.00    +0.000 C 
BRANCH  20  21
ATOM     21  N   UNL     1      -3.051  12.583  22.620  0.00  0.00    +0.000 N 
ATOM     22  C   UNL     1      -3.964  12.706  23.618  0.00  0.00    +0.000 C 
ATOM     23  O   UNL     1      -3.793  12.605  24.836  0.00  0.00    +0.000 OA
ATOM     24  C   UNL     1      -5.276  12.914  23.036  0.00  0.00    +0.000 A 
ATOM     25  C   UNL     1      -6.492  13.199  23.629  0.00  0.00    +0.000 A 
ATOM     26  C   UNL     1      -7.615  13.210  22.800  0.00  0.00    +0.000 A 
ATOM     27  C   UNL     1      -7.501  12.895  21.431  0.00  0.00    +0.000 A 
ATOM     28  C   UNL     1      -6.244  12.681  20.850  0.00  0.00    +0.000 A 
ATOM     29  C   UNL     1      -5.136  12.752  21.683  0.00  0.00    +0.000 A 
ATOM     30  C   UNL     1      -3.691  12.723  21.409  0.00  0.00    +0.000 C 
ATOM     31  O   UNL     1      -3.275  12.913  20.279  0.00  0.00    +0.000 OA
ENDBRANCH  20  21
ENDBRANCH   4  20
TORSDOF 5
ENDMDL
MODEL 9
REMARK VINA RESULT:      -8.2      3.817      4.871
REMARK  Name = 
REMARK  5 active torsions:
REMARK  status: ('A' for Active; 'I' for Inactive)
REMARK    1  A    between atoms: C_2  and  C_22
REMARK    2  A    between atoms: N_3  and  C_4
REMARK    3  A    between atoms: C_7  and  C_8
REMARK    4  A    between atoms: C_8  and  N_9
REMARK    5  A    between atoms: C_24  and  C_25
REMARK                            x       y       z     vdW  Elec       q    Type
REMARK                         _______ _______ _______ _____ _____    ______ ____
ROOT
ATOM      1  C   UNL     1       0.349   9.541  20.622  0.00  0.00    +0.000 A 
ATOM      2  C   UNL     1       1.136   8.464  21.026  0.00  0.00    +0.000 A 
ATOM      3  C   UNL     1       1.907   7.736  20.115  0.00  0.00    +0.000 A 
ATOM      4  C   UNL     1       1.951   8.083  18.760  0.00  0.00    +0.000 A 
ATOM      5  C   UNL     1       1.294   9.273  18.400  0.00  0.00    +0.000 A 
ATOM      6  C   UNL     1       0.448   9.956  19.289  0.00  0.00    +0.000 A 
ENDROOT
BRANCH   1   9
ATOM      7  O   UNL     1       0.674  12.254  21.747  0.00  0.00    +0.000 OA
ATOM      8  C   UNL     1      -0.283  11.534  21.978  0.00  0.00    +0.000 C 
ATOM      9  N   UNL     1      -0.506  10.242  21.497  0.00  0.00    +0.000 N 
ATOM     10  H   UNL     1      -1.360   9.773  21.774  0.00  0.00    +0.000 HD
BRANCH   8  11
ATOM     11  C   UNL     1      -1.367  12.026  22.849  0.00  0.00    +0.000 C 
ATOM     12  C   UNL     1      -1.317  13.454  23.361  0.00  0.00    +0.000 C 
ATOM     13  C   UNL     1      -2.340  13.086  22.315  0.00  0.00    +0.000 C 
BRANCH  13  14
ATOM     14  C   UNL     1      -3.800  12.855  22.632  0.00  0.00    +0.000 A 
ATOM     15  C   UNL     1      -4.826  12.918  21.681  0.00  0.00    +0.000 A 
ATOM     16  C   UNL     1      -6.162  12.777  22.058  0.00  0.00    +0.000 A 
ATOM     17  C   UNL     1      -6.448  12.555  23.394  0.00  0.00    +0.000 A 
ATOM     18  N   UNL     1      -5.502  12.455  24.348  0.00  0.00    +0.000 NA
ATOM     19  C   UNL     1      -4.216  12.601  23.943  0.00  0.00    +0.000 A 
ENDBRANCH  13  14
ENDBRANCH   8  11
ENDBRANCH   1   9
BRANCH   4  20
ATOM     20  C   UNL     1       2.752   7.236  17.774  0.00  0.00    +0.000 C 
BRANCH  20  21
ATOM     21  N   UNL     1       3.100   5.854  18.198  0.00  0.00    +0.000 N 
ATOM     22  C   UNL     1       2.299   4.824  17.823  0.00  0.00    +0.000 C 
ATOM     23  O   UNL     1       1.192   4.868  17.277  0.00  0.00    +0.000 OA
ATOM     24  C   UNL     1       2.908   3.574  18.235  0.00  0.00    +0.000 A 
ATOM     25  C   UNL     1       2.538   2.265  17.989  0.00  0.00    +0.000 A 
ATOM     26  C   UNL     1       3.263   1.268  18.645  0.00  0.00    +0.000 A 
ATOM     27  C   UNL     1       4.291   1.602  19.548  0.00  0.00    +0.000 A 
ATOM     28  C   UNL     1       4.686   2.936  19.718  0.00  0.00    +0.000 A 
ATOM     29  C   UNL     1       3.999   3.901  18.996  0.00  0.00    +0.000 A 
ATOM     30  C   UNL     1       4.220   5.344  18.816  0.00  0.00    +0.000 C 
ATOM     31  O   UNL     1       5.294   5.844  19.108  0.00  0.00    +0.000 OA
ENDBRANCH  20  21
ENDBRANCH   4  20
TORSDOF 5
ENDMDL
