MODEL 1
REMARK VINA RESULT:      -7.4      0.000      0.000
REMARK  Name = 
REMARK  5 active torsions:
REMARK  status: ('A' for Active; 'I' for Inactive)
REMARK    1  A    between atoms: C_2  and  C_17
REMARK    2  A    between atoms: N_3  and  C_4
REMARK    3  A    between atoms: C_4  and  C_5
REMARK    4  A    between atoms: C_5  and  O_6
REMARK    5  A    between atoms: O_6  and  C_7
REMARK                            x       y       z     vdW  Elec       q    Type
REMARK                         _______ _______ _______ _____ _____    ______ ____
ROOT
ATOM      1  C   UNL     1       5.669   5.890  18.321  0.00  0.00    +0.000 C 
ENDROOT
BRANCH   1   2
ATOM      2  C   UNL     1       6.365   4.579  17.955  0.00  0.00    +0.000 C 
BRANCH   2   5
ATOM      3  O   UNL     1       7.511   6.006  15.858  0.00  0.00    +0.000 OA
ATOM      4  C   UNL     1       6.880   4.984  15.572  0.00  0.00    +0.000 C 
ATOM      5  N   UNL     1       6.251   4.236  16.547  0.00  0.00    +0.000 N 
ATOM      6  H   UNL     1       5.782   3.380  16.266  0.00  0.00    +0.000 HD
BRANCH   4   7
ATOM      7  C   UNL     1       6.737   4.533  14.199  0.00  0.00    +0.000 A 
ATOM      8  C   UNL     1       5.745   3.702  13.708  0.00  0.00    +0.000 A 
ATOM      9  C   UNL     1       5.919   3.393  12.330  0.00  0.00    +0.000 A 
ATOM     10  C   UNL     1       7.042   3.996  11.810  0.00  0.00    +0.000 A 
ATOM     11  S   UNL     1       7.841   4.972  12.964  0.00  0.00    +0.000 S 
ENDBRANCH   4   7
ENDBRANCH   2   5
ENDBRANCH   1   2
BRANCH   1  12
ATOM     12  O   UNL     1       4.328   5.870  17.817  0.00  0.00    +0.000 OA
BRANCH  12  13
ATOM     13  C   UNL     1       3.330   5.587  18.734  0.00  0.00    +0.000 A 
ATOM     14  C   UNL     1       2.860   6.547  19.643  0.00  0.00    +0.000 A 
ATOM     15  C   UNL     1       1.826   6.250  20.515  0.00  0.00    +0.000 A 
ATOM     16  C   UNL     1       1.240   4.990  20.488  0.00  0.00    +0.000 A 
ATOM     17  C   UNL     1       1.698   4.017  19.582  0.00  0.00    +0.000 A 
ATOM     18  C   UNL     1       1.087   2.754  19.550  0.00  0.00    +0.000 A 
ATOM     19  C   UNL     1       1.532   1.796  18.649  0.00  0.00    +0.000 A 
ATOM     20  C   UNL     1       2.573   2.140  17.813  0.00  0.00    +0.000 A 
ATOM     21  N   UNL     1       3.183   3.347  17.814  0.00  0.00    +0.000 NA
ATOM     22  C   UNL     1       2.761   4.295  18.691  0.00  0.00    +0.000 A 
ENDBRANCH  12  13
ENDBRANCH   1  12
TORSDOF 5
ENDMDL
MODEL 2
REMARK VINA RESULT:      -7.3      1.470      2.436
REMARK  Name = 
REMARK  5 active torsions:
REMARK  status: ('A' for Active; 'I' for Inactive)
REMARK    1  A    between atoms: C_2  and  C_17
REMARK    2  A    between atoms: N_3  and  C_4
REMARK    3  A    between atoms: C_4  and  C_5
REMARK    4  A    between atoms: C_5  and  O_6
REMARK    5  A    between atoms: O_6  and  C_7
REMARK                            x       y       z     vdW  Elec       q    Type
REMARK                         _______ _______ _______ _____ _____    ______ ____
ROOT
ATOM      1  C   UNL     1       4.458   6.568  17.769  0.00  0.00    +0.000 C 
ENDROOT
BRANCH   1   2
ATOM      2  C   UNL     1       5.676   6.985  16.942  0.00  0.00    +0.000 C 
BRANCH   2   5
ATOM      3  O   UNL     1       7.487   4.982  16.270  0.00  0.00    +0.000 OA
ATOM      4  C   UNL     1       6.665   5.316  15.412  0.00  0.00    +0.000 C 
ATOM      5  N   UNL     1       5.753   6.325  15.650  0.00  0.00    +0.000 N 
ATOM      6  H   UNL     1       5.070   6.532  14.928  0.00  0.00    +0.000 HD
BRANCH   4   7
ATOM      7  C   UNL     1       6.632   4.692  14.101  0.00  0.00    +0.000 A 
ATOM      8  C   UNL     1       5.696   3.777  13.651  0.00  0.00    +0.000 A 
ATOM      9  C   UNL     1       5.976   3.304  12.338  0.00  0.00    +0.000 A 
ATOM     10  C   UNL     1       7.120   3.871  11.826  0.00  0.00    +0.000 A 
ATOM     11  S   UNL     1       7.813   5.007  12.899  0.00  0.00    +0.000 S 
ENDBRANCH   4   7
ENDBRANCH   2   5
ENDBRANCH   1   2
BRANCH   1  12
ATOM     12  O   UNL     1       4.810   5.455  18.600  0.00  0.00    +0.000 OA
BRANCH  12  13
ATOM     13  C   UNL     1       4.094   4.288  18.399  0.00  0.00    +0.000 A 
ATOM     14  C   UNL     1       4.314   3.461  17.287  0.00  0.00    +0.000 A 
ATOM     15  C   UNL     1       3.616   2.273  17.139  0.00  0.00    +0.000 A 
ATOM     16  C   UNL     1       2.693   1.889  18.103  0.00  0.00    +0.000 A 
ATOM     17  C   UNL     1       2.462   2.705  19.225  0.00  0.00    +0.000 A 
ATOM     18  C   UNL     1       1.542   2.299  20.203  0.00  0.00    +0.000 A 
ATOM     19  C   UNL     1       1.321   3.099  21.316  0.00  0.00    +0.000 A 
ATOM     20  C   UNL     1       2.031   4.278  21.407  0.00  0.00    +0.000 A 
ATOM     21  N   UNL     1       2.927   4.698  20.486  0.00  0.00    +0.000 NA
ATOM     22  C   UNL     1       3.154   3.928  19.390  0.00  0.00    +0.000 A 
ENDBRANCH  12  13
ENDBRANCH   1  12
TORSDOF 5
ENDMDL
MODEL 3
REMARK VINA RESULT:      -7.1      0.977      1.191
REMARK  Name = 
REMARK  5 active torsions:
REMARK  status: ('A' for Active; 'I' for Inactive)
REMARK    1  A    between atoms: C_2  and  C_17
REMARK    2  A    between atoms: N_3  and  C_4
REMARK    3  A    between atoms: C_4  and  C_5
REMARK    4  A    between atoms: C_5  and  O_6
REMARK    5  A    between atoms: O_6  and  C_7
REMARK                            x       y       z     vdW  Elec       q    Type
REMARK                         _______ _______ _______ _____ _____    ______ ____
ROOT
ATOM      1  C   UNL     1       5.521   5.983  18.235  0.00  0.00    +0.000 C 
ENDROOT
BRANCH   1   2
ATOM      2  C   UNL     1       6.383   6.780  17.254  0.00  0.00    +0.000 C 
BRANCH   2   5
ATOM      3  O   UNL     1       7.829   4.576  16.362  0.00  0.00    +0.000 OA
ATOM      4  C   UNL     1       7.084   5.133  15.551  0.00  0.00    +0.000 C 
ATOM      5  N   UNL     1       6.356   6.253  15.899  0.00  0.00    +0.000 N 
ATOM      6  H   UNL     1       5.725   6.648  15.210  0.00  0.00    +0.000 HD
BRANCH   4   7
ATOM      7  C   UNL     1       6.956   4.663  14.183  0.00  0.00    +0.000 A 
ATOM      8  C   UNL     1       7.733   5.051  13.106  0.00  0.00    +0.000 A 
ATOM      9  C   UNL     1       7.315   4.456  11.882  0.00  0.00    +0.000 A 
ATOM     10  C   UNL     1       6.227   3.633  12.062  0.00  0.00    +0.000 A 
ATOM     11  S   UNL     1       5.757   3.536  13.703  0.00  0.00    +0.000 S 
ENDBRANCH   4   7
ENDBRANCH   2   5
ENDBRANCH   1   2
BRANCH   1  12
ATOM     12  O   UNL     1       4.165   5.974  17.774  0.00  0.00    +0.000 OA
BRANCH  12  13
ATOM     13  C   UNL     1       3.198   5.662  18.713  0.00  0.00    +0.000 A 
ATOM     14  C   UNL     1       2.718   6.610  19.630  0.00  0.00    +0.000 A 
ATOM     15  C   UNL     1       1.713   6.282  20.526  0.00  0.00    +0.000 A 
ATOM     16  C   UNL     1       1.167   5.005  20.515  0.00  0.00    +0.000 A 
ATOM     17  C   UNL     1       1.635   4.044  19.601  0.00  0.00    +0.000 A 
ATOM     18  C   UNL     1       1.064   2.763  19.585  0.00  0.00    +0.000 A 
ATOM     19  C   UNL     1       1.519   1.817  18.676  0.00  0.00    +0.000 A 
ATOM     20  C   UNL     1       2.529   2.190  17.816  0.00  0.00    +0.000 A 
ATOM     21  N   UNL     1       3.100   3.416  17.802  0.00  0.00    +0.000 NA
ATOM     22  C   UNL     1       2.669   4.353  18.685  0.00  0.00    +0.000 A 
ENDBRANCH  12  13
ENDBRANCH   1  12
TORSDOF 5
ENDMDL
MODEL 4
REMARK VINA RESULT:      -7.0      5.511      7.730
REMARK  Name = 
REMARK  5 active torsions:
REMARK  status: ('A' for Active; 'I' for Inactive)
REMARK    1  A    between atoms: C_2  and  C_17
REMARK    2  A    between atoms: N_3  and  C_4
REMARK    3  A    between atoms: C_4  and  C_5
REMARK    4  A    between atoms: C_5  and  O_6
REMARK    5  A    between atoms: O_6  and  C_7
REMARK                            x       y       z     vdW  Elec       q    Type
REMARK                         _______ _______ _______ _____ _____    ______ ____
ROOT
ATOM      1  C   UNL     1       2.317   8.756  17.697  0.00  0.00    +0.000 C 
ENDROOT
BRANCH   1   2
ATOM      2  C   UNL     1       1.323   9.654  18.435  0.00  0.00    +0.000 C 
BRANCH   2   5
ATOM      3  O   UNL     1      -0.927  10.932  19.460  0.00  0.00    +0.000 OA
ATOM      4  C   UNL     1      -0.995  10.501  18.305  0.00  0.00    +0.000 C 
ATOM      5  N   UNL     1       0.063   9.825  17.730  0.00  0.00    +0.000 N 
ATOM      6  H   UNL     1      -0.027   9.529  16.764  0.00  0.00    +0.000 HD
BRANCH   4   7
ATOM      7  C   UNL     1      -2.195  10.653  17.502  0.00  0.00    +0.000 A 
ATOM      8  C   UNL     1      -2.361  10.244  16.190  0.00  0.00    +0.000 A 
ATOM      9  C   UNL     1      -3.636  10.595  15.662  0.00  0.00    +0.000 A 
ATOM     10  C   UNL     1      -4.404  11.264  16.586  0.00  0.00    +0.000 A 
ATOM     11  S   UNL     1      -3.612  11.413  18.094  0.00  0.00    +0.000 S 
ENDBRANCH   4   7
ENDBRANCH   2   5
ENDBRANCH   1   2
BRANCH   1  12
ATOM     12  O   UNL     1       2.472   7.529  18.421  0.00  0.00    +0.000 OA
BRANCH  12  13
ATOM     13  C   UNL     1       3.299   6.578  17.850  0.00  0.00    +0.000 A 
ATOM     14  C   UNL     1       4.517   6.918  17.242  0.00  0.00    +0.000 A 
ATOM     15  C   UNL     1       5.347   5.938  16.723  0.00  0.00    +0.000 A 
ATOM     16  C   UNL     1       4.977   4.602  16.808  0.00  0.00    +0.000 A 
ATOM     17  C   UNL     1       3.760   4.244  17.415  0.00  0.00    +0.000 A 
ATOM     18  C   UNL     1       3.404   2.890  17.514  0.00  0.00    +0.000 A 
ATOM     19  C   UNL     1       2.207   2.535  18.122  0.00  0.00    +0.000 A 
ATOM     20  C   UNL     1       1.412   3.550  18.610  0.00  0.00    +0.000 A 
ATOM     21  N   UNL     1       1.725   4.863  18.535  0.00  0.00    +0.000 NA
ATOM     22  C   UNL     1       2.891   5.228  17.941  0.00  0.00    +0.000 A 
ENDBRANCH  12  13
ENDBRANCH   1  12
TORSDOF 5
ENDMDL
MODEL 5
REMARK VINA RESULT:      -7.0      1.635      1.823
REMARK  Name = 
REMARK  5 active torsions:
REMARK  status: ('A' for Active; 'I' for Inactive)
REMARK    1  A    between atoms: C_2  and  C_17
REMARK    2  A    between atoms: N_3  and  C_4
REMARK    3  A    between atoms: C_4  and  C_5
REMARK    4  A    between atoms: C_5  and  O_6
REMARK    5  A    between atoms: O_6  and  C_7
REMARK                            x       y       z     vdW  Elec       q    Type
REMARK                         _______ _______ _______ _____ _____    ______ ____
ROOT
ATOM      1  C   UNL     1       6.798   5.926  18.542  0.00  0.00    +0.000 C 
ENDROOT
BRANCH   1   2
ATOM      2  C   UNL     1       7.483   4.688  17.961  0.00  0.00    +0.000 C 
BRANCH   2   5
ATOM      3  O   UNL     1       5.635   3.761  16.099  0.00  0.00    +0.000 OA
ATOM      4  C   UNL     1       6.665   4.285  15.665  0.00  0.00    +0.000 C 
ATOM      5  N   UNL     1       7.649   4.741  16.518  0.00  0.00    +0.000 N 
ATOM      6  H   UNL     1       8.457   5.204  16.114  0.00  0.00    +0.000 HD
BRANCH   4   7
ATOM      7  C   UNL     1       6.911   4.422  14.240  0.00  0.00    +0.000 A 
ATOM      8  C   UNL     1       7.759   5.336  13.639  0.00  0.00    +0.000 A 
ATOM      9  C   UNL     1       7.733   5.258  12.218  0.00  0.00    +0.000 A 
ATOM     10  C   UNL     1       6.863   4.287  11.777  0.00  0.00    +0.000 A 
ATOM     11  S   UNL     1       6.132   3.441  13.071  0.00  0.00    +0.000 S 
ENDBRANCH   4   7
ENDBRANCH   2   5
ENDBRANCH   1   2
BRANCH   1  12
ATOM     12  O   UNL     1       5.803   5.516  19.488  0.00  0.00    +0.000 OA
BRANCH  12  13
ATOM     13  C   UNL     1       4.500   5.459  19.025  0.00  0.00    +0.000 A 
ATOM     14  C   UNL     1       3.810   6.604  18.601  0.00  0.00    +0.000 A 
ATOM     15  C   UNL     1       2.523   6.509  18.096  0.00  0.00    +0.000 A 
ATOM     16  C   UNL     1       1.908   5.267  18.000  0.00  0.00    +0.000 A 
ATOM     17  C   UNL     1       2.588   4.109  18.419  0.00  0.00    +0.000 A 
ATOM     18  C   UNL     1       1.966   2.857  18.300  0.00  0.00    +0.000 A 
ATOM     19  C   UNL     1       2.639   1.712  18.704  0.00  0.00    +0.000 A 
ATOM     20  C   UNL     1       3.911   1.864  19.212  0.00  0.00    +0.000 A 
ATOM     21  N   UNL     1       4.542   3.053  19.338  0.00  0.00    +0.000 NA
ATOM     22  C   UNL     1       3.897   4.184  18.949  0.00  0.00    +0.000 A 
ENDBRANCH  12  13
ENDBRANCH   1  12
TORSDOF 5
ENDMDL
MODEL 6
REMARK VINA RESULT:      -7.0      1.410      1.483
REMARK  Name = 
REMARK  5 active torsions:
REMARK  status: ('A' for Active; 'I' for Inactive)
REMARK    1  A    between atoms: C_2  and  C_17
REMARK    2  A    between atoms: N_3  and  C_4
REMARK    3  A    between atoms: C_4  and  C_5
REMARK    4  A    between atoms: C_5  and  O_6
REMARK    5  A    between atoms: O_6  and  C_7
REMARK                            x       y       z     vdW  Elec       q    Type
REMARK                         _______ _______ _______ _____ _____    ______ ____
ROOT
ATOM      1  C   UNL     1       6.258   5.444  18.210  0.00  0.00    +0.000 C 
ENDROOT
BRANCH   1   2
ATOM      2  C   UNL     1       7.207   4.569  17.389  0.00  0.00    +0.000 C 
BRANCH   2   5
ATOM      3  O   UNL     1       7.717   5.699  14.898  0.00  0.00    +0.000 OA
ATOM      4  C   UNL     1       6.969   4.717  14.935  0.00  0.00    +0.000 C 
ATOM      5  N   UNL     1       6.636   4.116  16.132  0.00  0.00    +0.000 N 
ATOM      6  H   UNL     1       6.054   3.285  16.105  0.00  0.00    +0.000 HD
BRANCH   4   7
ATOM      7  C   UNL     1       6.377   4.162  13.730  0.00  0.00    +0.000 A 
ATOM      8  C   UNL     1       5.055   3.788  13.564  0.00  0.00    +0.000 A 
ATOM      9  C   UNL     1       4.800   3.218  12.285  0.00  0.00    +0.000 A 
ATOM     10  C   UNL     1       5.938   3.171  11.513  0.00  0.00    +0.000 A 
ATOM     11  S   UNL     1       7.284   3.864  12.308  0.00  0.00    +0.000 S 
ENDBRANCH   4   7
ENDBRANCH   2   5
ENDBRANCH   1   2
BRANCH   1  12
ATOM     12  O   UNL     1       4.911   5.206  17.785  0.00  0.00    +0.000 OA
BRANCH  12  13
ATOM     13  C   UNL     1       3.914   5.540  18.686  0.00  0.00    +0.000 A 
ATOM     14  C   UNL     1       3.293   6.798  18.677  0.00  0.00    +0.000 A 
ATOM     15  C   UNL     1       2.264   7.086  19.558  0.00  0.00    +0.000 A 
ATOM     16  C   UNL     1       1.835   6.119  20.459  0.00  0.00    +0.000 A 
ATOM     17  C   UNL     1       2.446   4.852  20.480  0.00  0.00    +0.000 A 
ATOM     18  C   UNL     1       1.992   3.876  21.379  0.00  0.00    +0.000 A 
ATOM     19  C   UNL     1       2.588   2.622  21.394  0.00  0.00    +0.000 A 
ATOM     20  C   UNL     1       3.616   2.393  20.505  0.00  0.00    +0.000 A 
ATOM     21  N   UNL     1       4.077   3.308  19.623  0.00  0.00    +0.000 NA
ATOM     22  C   UNL     1       3.506   4.541  19.597  0.00  0.00    +0.000 A 
ENDBRANCH  12  13
ENDBRANCH   1  12
TORSDOF 5
ENDMDL
MODEL 7
REMARK VINA RESULT:      -6.9      3.054      6.499
REMARK  Name = 
REMARK  5 active torsions:
REMARK  status: ('A' for Active; 'I' for Inactive)
REMARK    1  A    between atoms: C_2  and  C_17
REMARK    2  A    between atoms: N_3  and  C_4
REMARK    3  A    between atoms: C_4  and  C_5
REMARK    4  A    between atoms: C_5  and  O_6
REMARK    5  A    between atoms: O_6  and  C_7
REMARK                            x       y       z     vdW  Elec       q    Type
REMARK                         _______ _______ _______ _____ _____    ______ ____
ROOT
ATOM      1  C   UNL     1       2.982   2.734  17.926  0.00  0.00    +0.000 C 
ENDROOT
BRANCH   1   2
ATOM      2  C   UNL     1       2.041   3.364  18.954  0.00  0.00    +0.000 C 
BRANCH   2   5
ATOM      3  O   UNL     1       3.198   5.464  20.367  0.00  0.00    +0.000 OA
ATOM      4  C   UNL     1       2.428   5.754  19.447  0.00  0.00    +0.000 C 
ATOM      5  N   UNL     1       1.784   4.775  18.717  0.00  0.00    +0.000 N 
ATOM      6  H   UNL     1       1.195   5.064  17.942  0.00  0.00    +0.000 HD
BRANCH   4   7
ATOM      7  C   UNL     1       2.132   7.134  19.103  0.00  0.00    +0.000 A 
ATOM      8  C   UNL     1       2.375   7.746  17.886  0.00  0.00    +0.000 A 
ATOM      9  C   UNL     1       2.030   9.127  17.886  0.00  0.00    +0.000 A 
ATOM     10  C   UNL     1       1.537   9.529  19.106  0.00  0.00    +0.000 A 
ATOM     11  S   UNL     1       1.437   8.234  20.218  0.00  0.00    +0.000 S 
ENDBRANCH   4   7
ENDBRANCH   2   5
ENDBRANCH   1   2
BRANCH   1  12
ATOM     12  O   UNL     1       4.334   3.079  18.249  0.00  0.00    +0.000 OA
BRANCH  12  13
ATOM     13  C   UNL     1       4.997   3.887  17.341  0.00  0.00    +0.000 A 
ATOM     14  C   UNL     1       4.671   3.896  15.977  0.00  0.00    +0.000 A 
ATOM     15  C   UNL     1       5.318   4.751  15.100  0.00  0.00    +0.000 A 
ATOM     16  C   UNL     1       6.297   5.616  15.574  0.00  0.00    +0.000 A 
ATOM     17  C   UNL     1       6.633   5.621  16.940  0.00  0.00    +0.000 A 
ATOM     18  C   UNL     1       7.608   6.512  17.413  0.00  0.00    +0.000 A 
ATOM     19  C   UNL     1       7.934   6.525  18.762  0.00  0.00    +0.000 A 
ATOM     20  C   UNL     1       7.270   5.644  19.588  0.00  0.00    +0.000 A 
ATOM     21  N   UNL     1       6.324   4.775  19.168  0.00  0.00    +0.000 NA
ATOM     22  C   UNL     1       5.994   4.748  17.851  0.00  0.00    +0.000 A 
ENDBRANCH  12  13
ENDBRANCH   1  12
TORSDOF 5
ENDMDL
MODEL 8
REMARK VINA RESULT:      -6.9      4.681      6.636
REMARK  Name = 
REMARK  5 active torsions:
REMARK  status: ('A' for Active; 'I' for Inactive)
REMARK    1  A    between atoms: C_2  and  C_17
REMARK    2  A    between atoms: N_3  and  C_4
REMARK    3  A    between atoms: C_4  and  C_5
REMARK    4  A    between atoms: C_5  and  O_6
REMARK    5  A    between atoms: O_6  and  C_7
REMARK                            x       y       z     vdW  Elec       q    Type
REMARK                         _______ _______ _______ _____ _____    ______ ____
ROOT
ATOM      1  C   UNL     1       7.844   6.147  18.974  0.00  0.00    +0.000 C 
ENDROOT
BRANCH   1   2
ATOM      2  C   UNL     1       7.976   7.445  18.177  0.00  0.00    +0.000 C 
BRANCH   2   5
ATOM      3  O   UNL     1       7.945  10.177  17.647  0.00  0.00    +0.000 OA
ATOM      4  C   UNL     1       8.728   9.775  18.512  0.00  0.00    +0.000 C 
ATOM      5  N   UNL     1       8.833   8.432  18.814  0.00  0.00    +0.000 N 
ATOM      6  H   UNL     1       9.459   8.157  19.564  0.00  0.00    +0.000 HD
BRANCH   4   7
ATOM      7  C   UNL     1       9.601  10.683  19.235  0.00  0.00    +0.000 A 
ATOM      8  C   UNL     1      10.812  11.184  18.790  0.00  0.00    +0.000 A 
ATOM      9  C   UNL     1      11.458  12.002  19.760  0.00  0.00    +0.000 A 
ATOM     10  C   UNL     1      10.721  12.098  20.918  0.00  0.00    +0.000 A 
ATOM     11  S   UNL     1       9.237  11.256  20.809  0.00  0.00    +0.000 S 
ENDBRANCH   4   7
ENDBRANCH   2   5
ENDBRANCH   1   2
BRANCH   1  12
ATOM     12  O   UNL     1       8.011   5.031  18.090  0.00  0.00    +0.000 OA
BRANCH  12  13
ATOM     13  C   UNL     1       6.993   4.811  17.180  0.00  0.00    +0.000 A 
ATOM     14  C   UNL     1       7.163   5.031  15.804  0.00  0.00    +0.000 A 
ATOM     15  C   UNL     1       6.141   4.755  14.911  0.00  0.00    +0.000 A 
ATOM     16  C   UNL     1       4.935   4.246  15.377  0.00  0.00    +0.000 A 
ATOM     17  C   UNL     1       4.748   4.018  16.751  0.00  0.00    +0.000 A 
ATOM     18  C   UNL     1       3.534   3.486  17.210  0.00  0.00    +0.000 A 
ATOM     19  C   UNL     1       3.352   3.250  18.566  0.00  0.00    +0.000 A 
ATOM     20  C   UNL     1       4.396   3.556  19.413  0.00  0.00    +0.000 A 
ATOM     21  N   UNL     1       5.580   4.066  19.006  0.00  0.00    +0.000 NA
ATOM     22  C   UNL     1       5.774   4.304  17.683  0.00  0.00    +0.000 A 
ENDBRANCH  12  13
ENDBRANCH   1  12
TORSDOF 5
ENDMDL
MODEL 9
REMARK VINA RESULT:      -6.9      4.280      8.077
REMARK  Name = 
REMARK  5 active torsions:
REMARK  status: ('A' for Active; 'I' for Inactive)
REMARK    1  A    between atoms: C_2  and  C_17
REMARK    2  A    between atoms: N_3  and  C_4
REMARK    3  A    between atoms: C_4  and  C_5
REMARK    4  A    between atoms: C_5  and  O_6
REMARK    5  A    between atoms: O_6  and  C_7
REMARK                            x       y       z     vdW  Elec       q    Type
REMARK                         _______ _______ _______ _____ _____    ______ ____
ROOT
ATOM      1  C   UNL     1       2.054   5.410  20.448  0.00  0.00    +0.000 C 
ENDROOT
BRANCH   1   2
ATOM      2  C   UNL     1       2.193   6.875  20.029  0.00  0.00    +0.000 C 
BRANCH   2   5
ATOM      3  O   UNL     1       1.281   9.400  19.298  0.00  0.00    +0.000 OA
ATOM      4  C   UNL     1       1.045   9.022  20.449  0.00  0.00    +0.000 C 
ATOM      5  N   UNL     1       1.491   7.798  20.905  0.00  0.00    +0.000 N 
ATOM      6  H   UNL     1       1.233   7.514  21.845  0.00  0.00    +0.000 HD
BRANCH   4   7
ATOM      7  C   UNL     1       0.317   9.852  21.392  0.00  0.00    +0.000 A 
ATOM      8  C   UNL     1      -0.322   9.421  22.541  0.00  0.00    +0.000 A 
ATOM      9  C   UNL     1      -1.001  10.471  23.221  0.00  0.00    +0.000 A 
ATOM     10  C   UNL     1      -0.863  11.674  22.566  0.00  0.00    +0.000 A 
ATOM     11  S   UNL     1       0.127  11.542  21.179  0.00  0.00    +0.000 S 
ENDBRANCH   4   7
ENDBRANCH   2   5
ENDBRANCH   1   2
BRANCH   1  12
ATOM     12  O   UNL     1       3.333   4.770  20.360  0.00  0.00    +0.000 OA
BRANCH  12  13
ATOM     13  C   UNL     1       3.762   4.425  19.091  0.00  0.00    +0.000 A 
ATOM     14  C   UNL     1       2.907   3.830  18.151  0.00  0.00    +0.000 A 
ATOM     15  C   UNL     1       3.352   3.541  16.872  0.00  0.00    +0.000 A 
ATOM     16  C   UNL     1       4.657   3.849  16.508  0.00  0.00    +0.000 A 
ATOM     17  C   UNL     1       5.526   4.448  17.437  0.00  0.00    +0.000 A 
ATOM     18  C   UNL     1       6.837   4.774  17.055  0.00  0.00    +0.000 A 
ATOM     19  C   UNL     1       7.693   5.374  17.968  0.00  0.00    +0.000 A 
ATOM     20  C   UNL     1       7.203   5.627  19.232  0.00  0.00    +0.000 A 
ATOM     21  N   UNL     1       5.947   5.330  19.634  0.00  0.00    +0.000 NA
ATOM     22  C   UNL     1       5.097   4.741  18.753  0.00  0.00    +0.000 A 
ENDBRANCH  12  13
ENDBRANCH   1  12
TORSDOF 5
ENDMDL
