MODEL 1
REMARK VINA RESULT:      -7.5      0.000      0.000
REMARK  Name = 
REMARK  6 active torsions:
REMARK  status: ('A' for Active; 'I' for Inactive)
REMARK    1  A    between atoms: C_2  and  C_3
REMARK    2  A    between atoms: C_3  and  N_4
REMARK    3  A    between atoms: C_5  and  C_7
REMARK    4  A    between atoms: N_13  and  N_14
REMARK    5  A    between atoms: C_15  and  C_16
REMARK    6  A    between atoms: C_22  and  O_23
REMARK                            x       y       z     vdW  Elec       q    Type
REMARK                         _______ _______ _______ _____ _____    ______ ____
ROOT
ATOM      1  O   UNL     1       7.957   6.238  18.893  0.00  0.00    +0.000 OA
ATOM      2  C   UNL     1       7.340   6.834  18.010  0.00  0.00    +0.000 C 
ATOM      3  N   UNL     1       7.590   8.135  17.587  0.00  0.00    +0.000 N 
ATOM      4  H   UNL     1       7.168   8.479  16.725  0.00  0.00    +0.000 HD
ENDROOT
BRANCH   3   5
ATOM      5  N   UNL     1       8.550   8.871  18.221  0.00  0.00    +0.000 NA
ATOM      6  C   UNL     1       8.609  10.130  17.914  0.00  0.00    +0.000 C 
BRANCH   6   7
ATOM      7  C   UNL     1       9.632  11.018  18.517  0.00  0.00    +0.000 A 
ATOM      8  C   UNL     1      10.388  11.867  17.696  0.00  0.00    +0.000 A 
ATOM      9  C   UNL     1      11.318  12.733  18.267  0.00  0.00    +0.000 A 
ATOM     10 BR   UNL     1      12.332  13.885  17.162  0.00  0.00    +0.000 Br
ATOM     11  C   UNL     1      11.506  12.765  19.649  0.00  0.00    +0.000 A 
ATOM     12  C   UNL     1      10.766  11.911  20.470  0.00  0.00    +0.000 A 
ATOM     13  C   UNL     1       9.834  11.037  19.903  0.00  0.00    +0.000 A 
BRANCH  13  14
ATOM     14  O   UNL     1       9.115  10.202  20.712  0.00  0.00    +0.000 OA
ATOM     15  H   UNL     1       9.695   9.490  21.033  0.00  0.00    +0.000 HD
ENDBRANCH  13  14
ENDBRANCH   6   7
ENDBRANCH   3   5
BRANCH   2  16
ATOM     16  C   UNL     1       6.238   6.136  17.215  0.00  0.00    +0.000 C 
BRANCH  16  17
ATOM     17  N   UNL     1       5.400   5.300  18.060  0.00  0.00    +0.000 N 
ATOM     18  C   UNL     1       4.146   5.732  18.428  0.00  0.00    +0.000 C 
ATOM     19  O   UNL     1       3.691   6.808  18.049  0.00  0.00    +0.000 OA
ATOM     20  H   UNL     1       5.634   4.317  18.119  0.00  0.00    +0.000 HD
BRANCH  18  21
ATOM     21  C   UNL     1       3.331   4.830  19.283  0.00  0.00    +0.000 A 
ATOM     22  C   UNL     1       3.748   3.546  19.637  0.00  0.00    +0.000 A 
ATOM     23  C   UNL     1       2.928   2.806  20.478  0.00  0.00    +0.000 A 
ATOM     24  N   UNL     1       1.753   3.255  20.967  0.00  0.00    +0.000 NA
ATOM     25  C   UNL     1       1.381   4.502  20.618  0.00  0.00    +0.000 A 
ATOM     26  C   UNL     1       2.128   5.322  19.792  0.00  0.00    +0.000 A 
ENDBRANCH  18  21
ENDBRANCH  16  17
ENDBRANCH   2  16
TORSDOF 6
ENDMDL
MODEL 2
REMARK VINA RESULT:      -7.5      2.356      2.662
REMARK  Name = 
REMARK  6 active torsions:
REMARK  status: ('A' for Active; 'I' for Inactive)
REMARK    1  A    between atoms: C_2  and  C_3
REMARK    2  A    between atoms: C_3  and  N_4
REMARK    3  A    between atoms: C_5  and  C_7
REMARK    4  A    between atoms: N_13  and  N_14
REMARK    5  A    between atoms: C_15  and  C_16
REMARK    6  A    between atoms: C_22  and  O_23
REMARK                            x       y       z     vdW  Elec       q    Type
REMARK                         _______ _______ _______ _____ _____    ______ ____
ROOT
ATOM      1  O   UNL     1       7.265   7.781  16.906  0.00  0.00    +0.000 OA
ATOM      2  C   UNL     1       7.800   7.465  17.969  0.00  0.00    +0.000 C 
ATOM      3  N   UNL     1       8.548   8.310  18.780  0.00  0.00    +0.000 N 
ATOM      4  H   UNL     1       8.786   8.025  19.729  0.00  0.00    +0.000 HD
ENDROOT
BRANCH   3   5
ATOM      5  N   UNL     1       8.789   9.591  18.369  0.00  0.00    +0.000 NA
ATOM      6  C   UNL     1       9.345  10.381  19.234  0.00  0.00    +0.000 C 
BRANCH   6   7
ATOM      7  C   UNL     1       9.623  11.800  18.908  0.00  0.00    +0.000 A 
ATOM      8  C   UNL     1       8.987  12.818  19.632  0.00  0.00    +0.000 A 
ATOM      9  C   UNL     1       9.282  14.152  19.355  0.00  0.00    +0.000 A 
ATOM     10 BR   UNL     1       8.433  15.526  20.338  0.00  0.00    +0.000 Br
ATOM     11  C   UNL     1      10.205  14.485  18.363  0.00  0.00    +0.000 A 
ATOM     12  C   UNL     1      10.830  13.474  17.629  0.00  0.00    +0.000 A 
ATOM     13  C   UNL     1      10.535  12.135  17.899  0.00  0.00    +0.000 A 
BRANCH  13  14
ATOM     14  O   UNL     1      11.149  11.152  17.175  0.00  0.00    +0.000 OA
ATOM     15  H   UNL     1      11.277  11.460  16.261  0.00  0.00    +0.000 HD
ENDBRANCH  13  14
ENDBRANCH   6   7
ENDBRANCH   3   5
BRANCH   2  16
ATOM     16  C   UNL     1       7.618   6.065  18.552  0.00  0.00    +0.000 C 
BRANCH  16  17
ATOM     17  N   UNL     1       6.227   5.639  18.530  0.00  0.00    +0.000 N 
ATOM     18  C   UNL     1       5.785   4.783  17.547  0.00  0.00    +0.000 C 
ATOM     19  O   UNL     1       6.538   4.342  16.681  0.00  0.00    +0.000 OA
ATOM     20  H   UNL     1       5.695   5.746  19.384  0.00  0.00    +0.000 HD
BRANCH  18  21
ATOM     21  C   UNL     1       4.356   4.374  17.581  0.00  0.00    +0.000 A 
ATOM     22  C   UNL     1       3.950   3.046  17.444  0.00  0.00    +0.000 A 
ATOM     23  C   UNL     1       2.592   2.770  17.537  0.00  0.00    +0.000 A 
ATOM     24  N   UNL     1       1.647   3.712  17.747  0.00  0.00    +0.000 NA
ATOM     25  C   UNL     1       2.070   4.983  17.886  0.00  0.00    +0.000 A 
ATOM     26  C   UNL     1       3.398   5.361  17.816  0.00  0.00    +0.000 A 
ENDBRANCH  18  21
ENDBRANCH  16  17
ENDBRANCH   2  16
TORSDOF 6
ENDMDL
MODEL 3
REMARK VINA RESULT:      -7.4      5.517      8.131
REMARK  Name = 
REMARK  6 active torsions:
REMARK  status: ('A' for Active; 'I' for Inactive)
REMARK    1  A    between atoms: C_2  and  C_3
REMARK    2  A    between atoms: C_3  and  N_4
REMARK    3  A    between atoms: C_5  and  C_7
REMARK    4  A    between atoms: N_13  and  N_14
REMARK    5  A    between atoms: C_15  and  C_16
REMARK    6  A    between atoms: C_22  and  O_23
REMARK                            x       y       z     vdW  Elec       q    Type
REMARK                         _______ _______ _______ _____ _____    ______ ____
ROOT
ATOM      1  O   UNL     1       0.759   4.448  20.445  0.00  0.00    +0.000 OA
ATOM      2  C   UNL     1       1.929   4.822  20.361  0.00  0.00    +0.000 C 
ATOM      3  N   UNL     1       2.381   6.119  20.576  0.00  0.00    +0.000 N 
ATOM      4  H   UNL     1       3.379   6.299  20.679  0.00  0.00    +0.000 HD
ENDROOT
BRANCH   3   5
ATOM      5  N   UNL     1       1.476   7.106  20.844  0.00  0.00    +0.000 NA
ATOM      6  C   UNL     1       1.659   8.238  20.237  0.00  0.00    +0.000 C 
BRANCH   6   7
ATOM      7  C   UNL     1       0.756   9.390  20.476  0.00  0.00    +0.000 A 
ATOM      8  C   UNL     1       0.017   9.928  19.412  0.00  0.00    +0.000 A 
ATOM      9  C   UNL     1      -0.864  10.981  19.646  0.00  0.00    +0.000 A 
ATOM     10 BR   UNL     1      -1.869  11.701  18.214  0.00  0.00    +0.000 Br
ATOM     11  C   UNL     1      -1.019  11.509  20.929  0.00  0.00    +0.000 A 
ATOM     12  C   UNL     1      -0.274  10.986  21.988  0.00  0.00    +0.000 A 
ATOM     13  C   UNL     1       0.614   9.932  21.760  0.00  0.00    +0.000 A 
BRANCH  13  14
ATOM     14  O   UNL     1       1.342   9.428  22.802  0.00  0.00    +0.000 OA
ATOM     15  H   UNL     1       1.385  10.091  23.512  0.00  0.00    +0.000 HD
ENDBRANCH  13  14
ENDBRANCH   6   7
ENDBRANCH   3   5
BRANCH   2  16
ATOM     16  C   UNL     1       3.051   3.827  20.067  0.00  0.00    +0.000 C 
BRANCH  16  17
ATOM     17  N   UNL     1       4.097   4.410  19.242  0.00  0.00    +0.000 N 
ATOM     18  C   UNL     1       4.350   3.901  17.989  0.00  0.00    +0.000 C 
ATOM     19  O   UNL     1       3.701   2.967  17.523  0.00  0.00    +0.000 OA
ATOM     20  H   UNL     1       4.415   5.340  19.483  0.00  0.00    +0.000 HD
BRANCH  18  21
ATOM     21  C   UNL     1       5.424   4.544  17.187  0.00  0.00    +0.000 A 
ATOM     22  C   UNL     1       6.139   5.654  17.639  0.00  0.00    +0.000 A 
ATOM     23  C   UNL     1       7.153   6.147  16.828  0.00  0.00    +0.000 A 
ATOM     24  N   UNL     1       7.481   5.617  15.631  0.00  0.00    +0.000 NA
ATOM     25  C   UNL     1       6.780   4.540  15.225  0.00  0.00    +0.000 A 
ATOM     26  C   UNL     1       5.758   3.970  15.960  0.00  0.00    +0.000 A 
ENDBRANCH  18  21
ENDBRANCH  16  17
ENDBRANCH   2  16
TORSDOF 6
ENDMDL
MODEL 4
REMARK VINA RESULT:      -7.4      5.816      7.974
REMARK  Name = 
REMARK  6 active torsions:
REMARK  status: ('A' for Active; 'I' for Inactive)
REMARK    1  A    between atoms: C_2  and  C_3
REMARK    2  A    between atoms: C_3  and  N_4
REMARK    3  A    between atoms: C_5  and  C_7
REMARK    4  A    between atoms: N_13  and  N_14
REMARK    5  A    between atoms: C_15  and  C_16
REMARK    6  A    between atoms: C_22  and  O_23
REMARK                            x       y       z     vdW  Elec       q    Type
REMARK                         _______ _______ _______ _____ _____    ______ ____
ROOT
ATOM      1  O   UNL     1       0.904   4.146  20.148  0.00  0.00    +0.000 OA
ATOM      2  C   UNL     1       2.101   4.420  20.054  0.00  0.00    +0.000 C 
ATOM      3  N   UNL     1       2.656   5.684  20.214  0.00  0.00    +0.000 N 
ATOM      4  H   UNL     1       3.665   5.787  20.315  0.00  0.00    +0.000 HD
ENDROOT
BRANCH   3   5
ATOM      5  N   UNL     1       1.833   6.753  20.431  0.00  0.00    +0.000 NA
ATOM      6  C   UNL     1       1.990   7.773  19.645  0.00  0.00    +0.000 C 
BRANCH   6   7
ATOM      7  C   UNL     1       1.174   8.999  19.809  0.00  0.00    +0.000 A 
ATOM      8  C   UNL     1       0.580   9.279  21.048  0.00  0.00    +0.000 A 
ATOM      9  C   UNL     1      -0.150  10.455  21.214  0.00  0.00    +0.000 A 
ATOM     10 BR   UNL     1      -0.944  10.839  22.887  0.00  0.00    +0.000 Br
ATOM     11  C   UNL     1      -0.297  11.357  20.160  0.00  0.00    +0.000 A 
ATOM     12  C   UNL     1       0.280  11.075  18.920  0.00  0.00    +0.000 A 
ATOM     13  C   UNL     1       1.011   9.896  18.745  0.00  0.00    +0.000 A 
BRANCH  13  14
ATOM     14  O   UNL     1       1.570   9.626  17.528  0.00  0.00    +0.000 OA
ATOM     15  H   UNL     1       0.868   9.576  16.856  0.00  0.00    +0.000 HD
ENDBRANCH  13  14
ENDBRANCH   6   7
ENDBRANCH   3   5
BRANCH   2  16
ATOM     16  C   UNL     1       3.139   3.325  19.812  0.00  0.00    +0.000 C 
BRANCH  16  17
ATOM     17  N   UNL     1       4.239   3.788  18.981  0.00  0.00    +0.000 N 
ATOM     18  C   UNL     1       4.117   3.780  17.610  0.00  0.00    +0.000 C 
ATOM     19  O   UNL     1       3.088   3.408  17.051  0.00  0.00    +0.000 OA
ATOM     20  H   UNL     1       4.945   4.364  19.423  0.00  0.00    +0.000 HD
BRANCH  18  21
ATOM     21  C   UNL     1       5.270   4.274  16.813  0.00  0.00    +0.000 A 
ATOM     22  C   UNL     1       5.322   4.175  15.422  0.00  0.00    +0.000 A 
ATOM     23  C   UNL     1       6.427   4.711  14.774  0.00  0.00    +0.000 A 
ATOM     24  N   UNL     1       7.451   5.315  15.412  0.00  0.00    +0.000 NA
ATOM     25  C   UNL     1       7.369   5.405  16.754  0.00  0.00    +0.000 A 
ATOM     26  C   UNL     1       6.310   4.910  17.492  0.00  0.00    +0.000 A 
ENDBRANCH  18  21
ENDBRANCH  16  17
ENDBRANCH   2  16
TORSDOF 6
ENDMDL
MODEL 5
REMARK VINA RESULT:      -7.4      2.045      2.445
REMARK  Name = 
REMARK  6 active torsions:
REMARK  status: ('A' for Active; 'I' for Inactive)
REMARK    1  A    between atoms: C_2  and  C_3
REMARK    2  A    between atoms: C_3  and  N_4
REMARK    3  A    between atoms: C_5  and  C_7
REMARK    4  A    between atoms: N_13  and  N_14
REMARK    5  A    between atoms: C_15  and  C_16
REMARK    6  A    between atoms: C_22  and  O_23
REMARK                            x       y       z     vdW  Elec       q    Type
REMARK                         _______ _______ _______ _____ _____    ______ ____
ROOT
ATOM      1  O   UNL     1       7.717   6.180  18.796  0.00  0.00    +0.000 OA
ATOM      2  C   UNL     1       7.456   6.763  17.744  0.00  0.00    +0.000 C 
ATOM      3  N   UNL     1       7.823   8.066  17.430  0.00  0.00    +0.000 N 
ATOM      4  H   UNL     1       7.739   8.401  16.471  0.00  0.00    +0.000 HD
ENDROOT
BRANCH   3   5
ATOM      5  N   UNL     1       8.476   8.820  18.363  0.00  0.00    +0.000 NA
ATOM      6  C   UNL     1       8.703  10.058  18.050  0.00  0.00    +0.000 C 
BRANCH   6   7
ATOM      7  C   UNL     1       9.431  10.961  18.974  0.00  0.00    +0.000 A 
ATOM      8  C   UNL     1       8.911  11.218  20.250  0.00  0.00    +0.000 A 
ATOM      9  C   UNL     1       9.618  12.031  21.134  0.00  0.00    +0.000 A 
ATOM     10 BR   UNL     1       8.922  12.371  22.859  0.00  0.00    +0.000 Br
ATOM     11  C   UNL     1      10.840  12.593  20.762  0.00  0.00    +0.000 A 
ATOM     12  C   UNL     1      11.355  12.352  19.486  0.00  0.00    +0.000 A 
ATOM     13  C   UNL     1      10.648  11.540  18.594  0.00  0.00    +0.000 A 
BRANCH  13  14
ATOM     14  O   UNL     1      11.158  11.311  17.346  0.00  0.00    +0.000 OA
ATOM     15  H   UNL     1      10.581  10.685  16.875  0.00  0.00    +0.000 HD
ENDBRANCH  13  14
ENDBRANCH   6   7
ENDBRANCH   3   5
BRANCH   2  16
ATOM     16  C   UNL     1       6.729   6.044  16.609  0.00  0.00    +0.000 C 
BRANCH  16  17
ATOM     17  N   UNL     1       5.692   5.151  17.102  0.00  0.00    +0.000 N 
ATOM     18  C   UNL     1       4.422   5.629  17.330  0.00  0.00    +0.000 C 
ATOM     19  O   UNL     1       4.119   6.800  17.112  0.00  0.00    +0.000 OA
ATOM     20  H   UNL     1       5.846   4.156  16.993  0.00  0.00    +0.000 HD
BRANCH  18  21
ATOM     21  C   UNL     1       3.402   4.667  17.823  0.00  0.00    +0.000 A 
ATOM     22  C   UNL     1       2.454   5.004  18.791  0.00  0.00    +0.000 A 
ATOM     23  C   UNL     1       1.519   4.041  19.146  0.00  0.00    +0.000 A 
ATOM     24  N   UNL     1       1.478   2.802  18.613  0.00  0.00    +0.000 NA
ATOM     25  C   UNL     1       2.398   2.508  17.673  0.00  0.00    +0.000 A 
ATOM     26  C   UNL     1       3.367   3.396  17.246  0.00  0.00    +0.000 A 
ENDBRANCH  18  21
ENDBRANCH  16  17
ENDBRANCH   2  16
TORSDOF 6
ENDMDL
MODEL 6
REMARK VINA RESULT:      -7.4      2.141      2.460
REMARK  Name = 
REMARK  6 active torsions:
REMARK  status: ('A' for Active; 'I' for Inactive)
REMARK    1  A    between atoms: C_2  and  C_3
REMARK    2  A    between atoms: C_3  and  N_4
REMARK    3  A    between atoms: C_5  and  C_7
REMARK    4  A    between atoms: N_13  and  N_14
REMARK    5  A    between atoms: C_15  and  C_16
REMARK    6  A    between atoms: C_22  and  O_23
REMARK                            x       y       z     vdW  Elec       q    Type
REMARK                         _______ _______ _______ _____ _____    ______ ____
ROOT
ATOM      1  O   UNL     1       7.962   6.500  18.799  0.00  0.00    +0.000 OA
ATOM      2  C   UNL     1       7.590   7.010  17.742  0.00  0.00    +0.000 C 
ATOM      3  N   UNL     1       7.702   8.355  17.410  0.00  0.00    +0.000 N 
ATOM      4  H   UNL     1       7.552   8.655  16.447  0.00  0.00    +0.000 HD
ENDROOT
BRANCH   3   5
ATOM      5  N   UNL     1       8.204   9.231  18.330  0.00  0.00    +0.000 NA
ATOM      6  C   UNL     1       9.047  10.113  17.889  0.00  0.00    +0.000 C 
BRANCH   6   7
ATOM      7  C   UNL     1       9.679  11.094  18.804  0.00  0.00    +0.000 A 
ATOM      8  C   UNL     1       9.101  11.351  20.055  0.00  0.00    +0.000 A 
ATOM      9  C   UNL     1       9.719  12.239  20.933  0.00  0.00    +0.000 A 
ATOM     10 BR   UNL     1       8.946  12.580  22.625  0.00  0.00    +0.000 Br
ATOM     11  C   UNL     1      10.909  12.877  20.580  0.00  0.00    +0.000 A 
ATOM     12  C   UNL     1      11.480  12.635  19.328  0.00  0.00    +0.000 A 
ATOM     13  C   UNL     1      10.863  11.748  18.441  0.00  0.00    +0.000 A 
BRANCH  13  14
ATOM     14  O   UNL     1      11.427  11.519  17.218  0.00  0.00    +0.000 OA
ATOM     15  H   UNL     1      11.769  12.357  16.861  0.00  0.00    +0.000 HD
ENDBRANCH  13  14
ENDBRANCH   6   7
ENDBRANCH   3   5
BRANCH   2  16
ATOM     16  C   UNL     1       7.007   6.152  16.620  0.00  0.00    +0.000 C 
BRANCH  16  17
ATOM     17  N   UNL     1       6.211   5.047  17.133  0.00  0.00    +0.000 N 
ATOM     18  C   UNL     1       4.869   5.223  17.381  0.00  0.00    +0.000 C 
ATOM     19  O   UNL     1       4.302   6.292  17.166  0.00  0.00    +0.000 OA
ATOM     20  H   UNL     1       6.587   4.114  17.024  0.00  0.00    +0.000 HD
BRANCH  18  21
ATOM     21  C   UNL     1       4.105   4.056  17.894  0.00  0.00    +0.000 A 
ATOM     22  C   UNL     1       3.075   3.453  17.170  0.00  0.00    +0.000 A 
ATOM     23  C   UNL     1       2.458   2.339  17.725  0.00  0.00    +0.000 A 
ATOM     24  N   UNL     1       2.794   1.813  18.922  0.00  0.00    +0.000 NA
ATOM     25  C   UNL     1       3.798   2.410  19.593  0.00  0.00    +0.000 A 
ATOM     26  C   UNL     1       4.481   3.518  19.126  0.00  0.00    +0.000 A 
ENDBRANCH  18  21
ENDBRANCH  16  17
ENDBRANCH   2  16
TORSDOF 6
ENDMDL
MODEL 7
REMARK VINA RESULT:      -7.4      2.043      2.366
REMARK  Name = 
REMARK  6 active torsions:
REMARK  status: ('A' for Active; 'I' for Inactive)
REMARK    1  A    between atoms: C_2  and  C_3
REMARK    2  A    between atoms: C_3  and  N_4
REMARK    3  A    between atoms: C_5  and  C_7
REMARK    4  A    between atoms: N_13  and  N_14
REMARK    5  A    between atoms: C_15  and  C_16
REMARK    6  A    between atoms: C_22  and  O_23
REMARK                            x       y       z     vdW  Elec       q    Type
REMARK                         _______ _______ _______ _____ _____    ______ ____
ROOT
ATOM      1  O   UNL     1       7.338   7.433  17.076  0.00  0.00    +0.000 OA
ATOM      2  C   UNL     1       7.934   7.269  18.141  0.00  0.00    +0.000 C 
ATOM      3  N   UNL     1       8.578   8.263  18.869  0.00  0.00    +0.000 N 
ATOM      4  H   UNL     1       8.873   8.081  19.827  0.00  0.00    +0.000 HD
ENDROOT
BRANCH   3   5
ATOM      5  N   UNL     1       8.632   9.531  18.365  0.00  0.00    +0.000 NA
ATOM      6  C   UNL     1       9.644  10.256  18.731  0.00  0.00    +0.000 C 
BRANCH   6   7
ATOM      7  C   UNL     1       9.789  11.658  18.270  0.00  0.00    +0.000 A 
ATOM      8  C   UNL     1       8.693  12.530  18.343  0.00  0.00    +0.000 A 
ATOM      9  C   UNL     1       8.842  13.860  17.952  0.00  0.00    +0.000 A 
ATOM     10 BR   UNL     1       7.368  15.041  18.058  0.00  0.00    +0.000 Br
ATOM     11  C   UNL     1      10.070  14.332  17.487  0.00  0.00    +0.000 A 
ATOM     12  C   UNL     1      11.159  13.463  17.400  0.00  0.00    +0.000 A 
ATOM     13  C   UNL     1      11.016  12.127  17.787  0.00  0.00    +0.000 A 
BRANCH  13  14
ATOM     14  O   UNL     1      12.086  11.282  17.695  0.00  0.00    +0.000 OA
ATOM     15  H   UNL     1      11.789  10.426  17.342  0.00  0.00    +0.000 HD
ENDBRANCH  13  14
ENDBRANCH   6   7
ENDBRANCH   3   5
BRANCH   2  16
ATOM     16  C   UNL     1       7.958   5.902  18.823  0.00  0.00    +0.000 C 
BRANCH  16  17
ATOM     17  N   UNL     1       6.660   5.542  19.373  0.00  0.00    +0.000 N 
ATOM     18  C   UNL     1       5.818   4.714  18.665  0.00  0.00    +0.000 C 
ATOM     19  O   UNL     1       6.134   4.243  17.574  0.00  0.00    +0.000 OA
ATOM     20  H   UNL     1       6.525   5.668  20.368  0.00  0.00    +0.000 HD
BRANCH  18  21
ATOM     21  C   UNL     1       4.510   4.372  19.281  0.00  0.00    +0.000 A 
ATOM     22  C   UNL     1       4.131   3.059  19.564  0.00  0.00    +0.000 A 
ATOM     23  C   UNL     1       2.904   2.857  20.183  0.00  0.00    +0.000 A 
ATOM     24  N   UNL     1       2.060   3.855  20.519  0.00  0.00    +0.000 NA
ATOM     25  C   UNL     1       2.457   5.112  20.244  0.00  0.00    +0.000 A 
ATOM     26  C   UNL     1       3.660   5.420  19.636  0.00  0.00    +0.000 A 
ENDBRANCH  18  21
ENDBRANCH  16  17
ENDBRANCH   2  16
TORSDOF 6
ENDMDL
MODEL 8
REMARK VINA RESULT:      -7.3      2.044      2.509
REMARK  Name = 
REMARK  6 active torsions:
REMARK  status: ('A' for Active; 'I' for Inactive)
REMARK    1  A    between atoms: C_2  and  C_3
REMARK    2  A    between atoms: C_3  and  N_4
REMARK    3  A    between atoms: C_5  and  C_7
REMARK    4  A    between atoms: N_13  and  N_14
REMARK    5  A    between atoms: C_15  and  C_16
REMARK    6  A    between atoms: C_22  and  O_23
REMARK                            x       y       z     vdW  Elec       q    Type
REMARK                         _______ _______ _______ _____ _____    ______ ____
ROOT
ATOM      1  O   UNL     1       6.972   7.595  17.001  0.00  0.00    +0.000 OA
ATOM      2  C   UNL     1       7.711   7.335  17.951  0.00  0.00    +0.000 C 
ATOM      3  N   UNL     1       8.490   8.254  18.644  0.00  0.00    +0.000 N 
ATOM      4  H   UNL     1       8.915   7.993  19.532  0.00  0.00    +0.000 HD
ENDROOT
BRANCH   3   5
ATOM      5  N   UNL     1       8.518   9.555  18.228  0.00  0.00    +0.000 NA
ATOM      6  C   UNL     1       9.586  10.232  18.517  0.00  0.00    +0.000 C 
BRANCH   6   7
ATOM      7  C   UNL     1       9.713  11.661  18.143  0.00  0.00    +0.000 A 
ATOM      8  C   UNL     1       8.587  12.496  18.194  0.00  0.00    +0.000 A 
ATOM      9  C   UNL     1       8.715  13.849  17.885  0.00  0.00    +0.000 A 
ATOM     10 BR   UNL     1       7.200  14.978  17.963  0.00  0.00    +0.000 Br
ATOM     11  C   UNL     1       9.953  14.382  17.524  0.00  0.00    +0.000 A 
ATOM     12  C   UNL     1      11.074  13.551  17.457  0.00  0.00    +0.000 A 
ATOM     13  C   UNL     1      10.951  12.192  17.762  0.00  0.00    +0.000 A 
BRANCH  13  14
ATOM     14  O   UNL     1      12.052  11.385  17.691  0.00  0.00    +0.000 OA
ATOM     15  H   UNL     1      12.568  11.475  18.511  0.00  0.00    +0.000 HD
ENDBRANCH  13  14
ENDBRANCH   6   7
ENDBRANCH   3   5
BRANCH   2  16
ATOM     16  C   UNL     1       7.783   5.921  18.524  0.00  0.00    +0.000 C 
BRANCH  16  17
ATOM     17  N   UNL     1       6.553   5.542  19.202  0.00  0.00    +0.000 N 
ATOM     18  C   UNL     1       5.622   4.761  18.555  0.00  0.00    +0.000 C 
ATOM     19  O   UNL     1       5.801   4.348  17.412  0.00  0.00    +0.000 OA
ATOM     20  H   UNL     1       6.537   5.615  20.212  0.00  0.00    +0.000 HD
BRANCH  18  21
ATOM     21  C   UNL     1       4.390   4.397  19.302  0.00  0.00    +0.000 A 
ATOM     22  C   UNL     1       3.479   5.348  19.764  0.00  0.00    +0.000 A 
ATOM     23  C   UNL     1       2.338   4.894  20.411  0.00  0.00    +0.000 A 
ATOM     24  N   UNL     1       2.063   3.589  20.621  0.00  0.00    +0.000 NA
ATOM     25  C   UNL     1       2.955   2.693  20.156  0.00  0.00    +0.000 A 
ATOM     26  C   UNL     1       4.118   3.041  19.494  0.00  0.00    +0.000 A 
ENDBRANCH  18  21
ENDBRANCH  16  17
ENDBRANCH   2  16
TORSDOF 6
ENDMDL
MODEL 9
REMARK VINA RESULT:      -7.2      2.330      2.603
REMARK  Name = 
REMARK  6 active torsions:
REMARK  status: ('A' for Active; 'I' for Inactive)
REMARK    1  A    between atoms: C_2  and  C_3
REMARK    2  A    between atoms: C_3  and  N_4
REMARK    3  A    between atoms: C_5  and  C_7
REMARK    4  A    between atoms: N_13  and  N_14
REMARK    5  A    between atoms: C_15  and  C_16
REMARK    6  A    between atoms: C_22  and  O_23
REMARK                            x       y       z     vdW  Elec       q    Type
REMARK                         _______ _______ _______ _____ _____    ______ ____
ROOT
ATOM      1  O   UNL     1       6.755   8.031  16.749  0.00  0.00    +0.000 OA
ATOM      2  C   UNL     1       7.486   7.432  17.539  0.00  0.00    +0.000 C 
ATOM      3  N   UNL     1       8.383   8.024  18.419  0.00  0.00    +0.000 N 
ATOM      4  H   UNL     1       8.800   7.473  19.168  0.00  0.00    +0.000 HD
ENDROOT
BRANCH   3   5
ATOM      5  N   UNL     1       8.547   9.380  18.395  0.00  0.00    +0.000 NA
ATOM      6  C   UNL     1       9.382   9.877  19.253  0.00  0.00    +0.000 C 
BRANCH   6   7
ATOM      7  C   UNL     1       9.615  11.340  19.338  0.00  0.00    +0.000 A 
ATOM      8  C   UNL     1       9.131  12.058  20.440  0.00  0.00    +0.000 A 
ATOM      9  C   UNL     1       9.388  13.424  20.542  0.00  0.00    +0.000 A 
ATOM     10 BR   UNL     1       8.745  14.394  22.033  0.00  0.00    +0.000 Br
ATOM     11  C   UNL     1      10.122  14.086  19.556  0.00  0.00    +0.000 A 
ATOM     12  C   UNL     1      10.592  13.376  18.449  0.00  0.00    +0.000 A 
ATOM     13  C   UNL     1      10.335  12.007  18.339  0.00  0.00    +0.000 A 
BRANCH  13  14
ATOM     14  O   UNL     1      10.796  11.321  17.251  0.00  0.00    +0.000 OA
ATOM     15  H   UNL     1      11.381  11.899  16.732  0.00  0.00    +0.000 HD
ENDBRANCH  13  14
ENDBRANCH   6   7
ENDBRANCH   3   5
BRANCH   2  16
ATOM     16  C   UNL     1       7.413   5.912  17.675  0.00  0.00    +0.000 C 
BRANCH  16  17
ATOM     17  N   UNL     1       6.070   5.404  17.438  0.00  0.00    +0.000 N 
ATOM     18  C   UNL     1       5.456   4.615  18.383  0.00  0.00    +0.000 C 
ATOM     19  O   UNL     1       6.000   4.331  19.447  0.00  0.00    +0.000 OA
ATOM     20  H   UNL     1       5.516   5.870  16.730  0.00  0.00    +0.000 HD
BRANCH  18  21
ATOM     21  C   UNL     1       4.080   4.135  18.090  0.00  0.00    +0.000 A 
ATOM     22  C   UNL     1       3.783   2.789  17.865  0.00  0.00    +0.000 A 
ATOM     23  C   UNL     1       2.455   2.446  17.645  0.00  0.00    +0.000 A 
ATOM     24  N   UNL     1       1.442   3.337  17.633  0.00  0.00    +0.000 NA
ATOM     25  C   UNL     1       1.757   4.626  17.863  0.00  0.00    +0.000 A 
ATOM     26  C   UNL     1       3.044   5.071  18.098  0.00  0.00    +0.000 A 
ENDBRANCH  18  21
ENDBRANCH  16  17
ENDBRANCH   2  16
TORSDOF 6
ENDMDL
