MODEL 1
REMARK VINA RESULT:      -8.0      0.000      0.000
REMARK  Name = 
REMARK  7 active torsions:
REMARK  status: ('A' for Active; 'I' for Inactive)
REMARK    1  A    between atoms: C_1  and  C_2
REMARK    2  A    between atoms: C_5  and  O_6
REMARK    3  A    between atoms: O_6  and  C_7
REMARK    4  A    between atoms: C_15  and  C_17
REMARK    5  A    between atoms: C_17  and  C_18
REMARK    6  A    between atoms: C_20  and  N_21
REMARK    7  A    between atoms: N_30  and  C_31
REMARK                            x       y       z     vdW  Elec       q    Type
REMARK                         _______ _______ _______ _____ _____    ______ ____
ROOT
ATOM      1  C   UNL     1       3.494   7.521  17.586  0.00  0.00    +0.000 C 
ATOM      2  C   UNL     1       2.273   6.725  18.040  0.00  0.00    +0.000 C 
ATOM      3  C   UNL     1       2.398   5.240  17.646  0.00  0.00    +0.000 C 
ATOM      4  C   UNL     1       2.237   4.529  18.958  0.00  0.00    +0.000 A 
ATOM      5  C   UNL     1       2.243   3.150  19.182  0.00  0.00    +0.000 A 
ATOM      6  C   UNL     1       2.034   2.692  20.486  0.00  0.00    +0.000 A 
ATOM      7  C   UNL     1       1.850   3.607  21.533  0.00  0.00    +0.000 A 
ATOM      8  C   UNL     1       1.853   4.992  21.296  0.00  0.00    +0.000 A 
ATOM      9  C   UNL     1       2.048   5.449  20.000  0.00  0.00    +0.000 A 
ATOM     10  N   UNL     1       2.076   6.789  19.501  0.00  0.00    +0.000 N 
ATOM     11  C   UNL     1       1.713   7.949  20.198  0.00  0.00    +0.000 C 
ATOM     12  O   UNL     1       1.271   7.910  21.366  0.00  0.00    +0.000 OA
ENDROOT
BRANCH   5  13
ATOM     13  O   UNL     1       2.403   2.339  18.096  0.00  0.00    +0.000 OA
BRANCH  13  14
ATOM     14  C   UNL     1       3.732   1.878  17.882  0.00  0.00    +0.000 C 
ATOM     15  F   UNL     1       4.604   2.735  18.471  0.00  0.00    +0.000 F 
ATOM     16  F   UNL     1       3.860   0.689  18.526  0.00  0.00    +0.000 F 
ENDBRANCH  13  14
ENDBRANCH   5  13
BRANCH  11  17
ATOM     17  C   UNL     1       1.762   9.287  19.478  0.00  0.00    +0.000 C 
BRANCH  17  18
ATOM     18  C   UNL     1       0.576  10.276  19.400  0.00  0.00    +0.000 A 
ATOM     19  N   UNL     1      -0.444   9.817  18.724  0.00  0.00    +0.000 NA
ATOM     20  C   UNL     1      -1.543  10.600  18.482  0.00  0.00    +0.000 A 
ATOM     21  C   UNL     1      -1.630  11.821  19.022  0.00  0.00    +0.000 A 
ATOM     22  C   UNL     1      -0.543  12.341  19.822  0.00  0.00    +0.000 A 
ATOM     23  O   UNL     1      -0.652  13.487  20.277  0.00  0.00    +0.000 OA
ATOM     24  N   UNL     1       0.555  11.521  19.982  0.00  0.00    +0.000 N 
ATOM     25  C   UNL     1       1.631  12.081  20.770  0.00  0.00    +0.000 C 
BRANCH  20  26
ATOM     26  N   UNL     1      -2.588  10.168  17.657  0.00  0.00    +0.000 N 
ATOM     27  C   UNL     1      -2.364   9.660  16.293  0.00  0.00    +0.000 C 
ATOM     28  C   UNL     1      -2.936  10.627  15.249  0.00  0.00    +0.000 C 
ATOM     29  O   UNL     1      -4.330  10.896  15.486  0.00  0.00    +0.000 OA
ATOM     30  C   UNL     1      -4.501  11.479  16.787  0.00  0.00    +0.000 C 
ATOM     31  C   UNL     1      -3.999  10.543  17.897  0.00  0.00    +0.000 C 
ENDBRANCH  20  26
ENDBRANCH  17  18
ENDBRANCH  11  17
TORSDOF 5
ENDMDL
MODEL 2
REMARK VINA RESULT:      -7.8      4.307      9.140
REMARK  Name = 
REMARK  7 active torsions:
REMARK  status: ('A' for Active; 'I' for Inactive)
REMARK    1  A    between atoms: C_1  and  C_2
REMARK    2  A    between atoms: C_5  and  O_6
REMARK    3  A    between atoms: O_6  and  C_7
REMARK    4  A    between atoms: C_15  and  C_17
REMARK    5  A    between atoms: C_17  and  C_18
REMARK    6  A    between atoms: C_20  and  N_21
REMARK    7  A    between atoms: N_30  and  C_31
REMARK                            x       y       z     vdW  Elec       q    Type
REMARK                         _______ _______ _______ _____ _____    ______ ____
ROOT
ATOM      1  C   UNL     1       1.480   9.058  22.739  0.00  0.00    +0.000 C 
ATOM      2  C   UNL     1       0.281   9.178  21.801  0.00  0.00    +0.000 C 
ATOM      3  C   UNL     1      -0.685  10.283  22.271  0.00  0.00    +0.000 C 
ATOM      4  C   UNL     1      -0.787  11.176  21.068  0.00  0.00    +0.000 A 
ATOM      5  C   UNL     1      -1.559  12.331  20.932  0.00  0.00    +0.000 A 
ATOM      6  C   UNL     1      -1.541  12.996  19.703  0.00  0.00    +0.000 A 
ATOM      7  C   UNL     1      -0.744  12.516  18.653  0.00  0.00    +0.000 A 
ATOM      8  C   UNL     1       0.033  11.356  18.805  0.00  0.00    +0.000 A 
ATOM      9  C   UNL     1       0.007  10.687  20.021  0.00  0.00    +0.000 A 
ATOM     10  N   UNL     1       0.685   9.491  20.417  0.00  0.00    +0.000 N 
ATOM     11  C   UNL     1       1.387   8.611  19.582  0.00  0.00    +0.000 C 
ATOM     12  O   UNL     1       1.453   8.781  18.346  0.00  0.00    +0.000 OA
ENDROOT
BRANCH   5  13
ATOM     13  O   UNL     1      -2.322  12.705  22.000  0.00  0.00    +0.000 OA
BRANCH  13  14
ATOM     14  C   UNL     1      -1.863  13.861  22.691  0.00  0.00    +0.000 C 
ATOM     15  F   UNL     1      -2.459  13.923  23.908  0.00  0.00    +0.000 F 
ATOM     16  F   UNL     1      -0.533  13.700  22.916  0.00  0.00    +0.000 F 
ENDBRANCH  13  14
ENDBRANCH   5  13
BRANCH  11  17
ATOM     17  C   UNL     1       2.002   7.357  20.184  0.00  0.00    +0.000 C 
BRANCH  17  18
ATOM     18  C   UNL     1       2.503   6.152  19.355  0.00  0.00    +0.000 A 
ATOM     19  N   UNL     1       3.466   6.453  18.524  0.00  0.00    +0.000 NA
ATOM     20  C   UNL     1       3.963   5.521  17.650  0.00  0.00    +0.000 A 
ATOM     21  C   UNL     1       3.536   4.254  17.703  0.00  0.00    +0.000 A 
ATOM     22  C   UNL     1       2.510   3.873  18.648  0.00  0.00    +0.000 A 
ATOM     23  O   UNL     1       2.122   2.697  18.643  0.00  0.00    +0.000 OA
ATOM     24  N   UNL     1       2.016   4.871  19.462  0.00  0.00    +0.000 N 
ATOM     25  C   UNL     1       0.976   4.458  20.380  0.00  0.00    +0.000 C 
BRANCH  20  26
ATOM     26  N   UNL     1       4.905   5.858  16.671  0.00  0.00    +0.000 N 
ATOM     27  C   UNL     1       5.327   4.919  15.617  0.00  0.00    +0.000 C 
ATOM     28  C   UNL     1       6.788   4.499  15.814  0.00  0.00    +0.000 C 
ATOM     29  O   UNL     1       7.662   5.640  15.879  0.00  0.00    +0.000 OA
ATOM     30  C   UNL     1       7.282   6.485  16.975  0.00  0.00    +0.000 C 
ATOM     31  C   UNL     1       5.841   6.995  16.824  0.00  0.00    +0.000 C 
ENDBRANCH  20  26
ENDBRANCH  17  18
ENDBRANCH  11  17
TORSDOF 5
ENDMDL
MODEL 3
REMARK VINA RESULT:      -7.8      4.358      9.077
REMARK  Name = 
REMARK  7 active torsions:
REMARK  status: ('A' for Active; 'I' for Inactive)
REMARK    1  A    between atoms: C_1  and  C_2
REMARK    2  A    between atoms: C_5  and  O_6
REMARK    3  A    between atoms: O_6  and  C_7
REMARK    4  A    between atoms: C_15  and  C_17
REMARK    5  A    between atoms: C_17  and  C_18
REMARK    6  A    between atoms: C_20  and  N_21
REMARK    7  A    between atoms: N_30  and  C_31
REMARK                            x       y       z     vdW  Elec       q    Type
REMARK                         _______ _______ _______ _____ _____    ______ ____
ROOT
ATOM      1  C   UNL     1       0.410   9.372  17.773  0.00  0.00    +0.000 C 
ATOM      2  C   UNL     1       1.000   9.992  19.037  0.00  0.00    +0.000 C 
ATOM      3  C   UNL     1       0.358  11.361  19.338  0.00  0.00    +0.000 C 
ATOM      4  C   UNL     1      -0.160  11.190  20.737  0.00  0.00    +0.000 A 
ATOM      5  C   UNL     1      -0.817  12.141  21.520  0.00  0.00    +0.000 A 
ATOM      6  C   UNL     1      -1.181  11.787  22.822  0.00  0.00    +0.000 A 
ATOM      7  C   UNL     1      -0.908  10.499  23.304  0.00  0.00    +0.000 A 
ATOM      8  C   UNL     1      -0.251   9.549  22.504  0.00  0.00    +0.000 A 
ATOM      9  C   UNL     1       0.122   9.902  21.215  0.00  0.00    +0.000 A 
ATOM     10  N   UNL     1       0.808   9.134  20.222  0.00  0.00    +0.000 N 
ATOM     11  C   UNL     1       1.435   7.895  20.408  0.00  0.00    +0.000 C 
ATOM     12  O   UNL     1       1.488   7.340  21.527  0.00  0.00    +0.000 OA
ENDROOT
BRANCH   5  13
ATOM     13  O   UNL     1      -1.015  13.376  20.973  0.00  0.00    +0.000 OA
BRANCH  13  14
ATOM     14  C   UNL     1      -2.352  13.644  20.564  0.00  0.00    +0.000 C 
ATOM     15  F   UNL     1      -2.957  12.479  20.221  0.00  0.00    +0.000 F 
ATOM     16  F   UNL     1      -3.019  14.127  21.644  0.00  0.00    +0.000 F 
ENDBRANCH  13  14
ENDBRANCH   5  13
BRANCH  11  17
ATOM     17  C   UNL     1       2.160   7.253  19.237  0.00  0.00    +0.000 C 
BRANCH  17  18
ATOM     18  C   UNL     1       2.976   5.943  19.332  0.00  0.00    +0.000 A 
ATOM     19  N   UNL     1       4.190   6.046  18.860  0.00  0.00    +0.000 NA
ATOM     20  C   UNL     1       5.016   4.955  18.786  0.00  0.00    +0.000 A 
ATOM     21  C   UNL     1       4.624   3.779  19.291  0.00  0.00    +0.000 A 
ATOM     22  C   UNL     1       3.306   3.641  19.872  0.00  0.00    +0.000 A 
ATOM     23  O   UNL     1       2.973   2.528  20.300  0.00  0.00    +0.000 OA
ATOM     24  N   UNL     1       2.507   4.766  19.867  0.00  0.00    +0.000 N 
ATOM     25  C   UNL     1       1.189   4.586  20.436  0.00  0.00    +0.000 C 
BRANCH  20  26
ATOM     26  N   UNL     1       6.271   5.022  18.170  0.00  0.00    +0.000 N 
ATOM     27  C   UNL     1       7.277   6.038  18.525  0.00  0.00    +0.000 C 
ATOM     28  C   UNL     1       7.488   7.024  17.369  0.00  0.00    +0.000 C 
ATOM     29  O   UNL     1       7.837   6.343  16.150  0.00  0.00    +0.000 OA
ATOM     30  C   UNL     1       6.792   5.430  15.783  0.00  0.00    +0.000 C 
ATOM     31  C   UNL     1       6.556   4.372  16.872  0.00  0.00    +0.000 C 
ENDBRANCH  20  26
ENDBRANCH  17  18
ENDBRANCH  11  17
TORSDOF 5
ENDMDL
MODEL 4
REMARK VINA RESULT:      -7.7      4.379      9.117
REMARK  Name = 
REMARK  7 active torsions:
REMARK  status: ('A' for Active; 'I' for Inactive)
REMARK    1  A    between atoms: C_1  and  C_2
REMARK    2  A    between atoms: C_5  and  O_6
REMARK    3  A    between atoms: O_6  and  C_7
REMARK    4  A    between atoms: C_15  and  C_17
REMARK    5  A    between atoms: C_17  and  C_18
REMARK    6  A    between atoms: C_20  and  N_21
REMARK    7  A    between atoms: N_30  and  C_31
REMARK                            x       y       z     vdW  Elec       q    Type
REMARK                         _______ _______ _______ _____ _____    ______ ____
ROOT
ATOM      1  C   UNL     1       0.545   9.440  17.765  0.00  0.00    +0.000 C 
ATOM      2  C   UNL     1       1.133   9.985  19.064  0.00  0.00    +0.000 C 
ATOM      3  C   UNL     1       0.569  11.382  19.387  0.00  0.00    +0.000 C 
ATOM      4  C   UNL     1      -0.001  11.205  20.765  0.00  0.00    +0.000 A 
ATOM      5  C   UNL     1      -0.622  12.172  21.558  0.00  0.00    +0.000 A 
ATOM      6  C   UNL     1      -1.047  11.804  22.837  0.00  0.00    +0.000 A 
ATOM      7  C   UNL     1      -0.869  10.488  23.288  0.00  0.00    +0.000 A 
ATOM      8  C   UNL     1      -0.249   9.522  22.478  0.00  0.00    +0.000 A 
ATOM      9  C   UNL     1       0.185   9.888  21.212  0.00  0.00    +0.000 A 
ATOM     10  N   UNL     1       0.852   9.107  20.215  0.00  0.00    +0.000 N 
ATOM     11  C   UNL     1       1.394   7.826  20.381  0.00  0.00    +0.000 C 
ATOM     12  O   UNL     1       1.379   7.237  21.483  0.00  0.00    +0.000 OA
ENDROOT
BRANCH   5  13
ATOM     13  O   UNL     1      -0.726  13.432  21.044  0.00  0.00    +0.000 OA
BRANCH  13  14
ATOM     14  C   UNL     1      -0.193  14.463  21.867  0.00  0.00    +0.000 C 
ATOM     15  F   UNL     1       1.132  14.243  22.058  0.00  0.00    +0.000 F 
ATOM     16  F   UNL     1      -0.299  15.629  21.180  0.00  0.00    +0.000 F 
ENDBRANCH  13  14
ENDBRANCH   5  13
BRANCH  11  17
ATOM     17  C   UNL     1       2.114   7.173  19.212  0.00  0.00    +0.000 C 
BRANCH  17  18
ATOM     18  C   UNL     1       2.958   5.882  19.322  0.00  0.00    +0.000 A 
ATOM     19  N   UNL     1       4.176   6.012  18.866  0.00  0.00    +0.000 NA
ATOM     20  C   UNL     1       5.027   4.940  18.806  0.00  0.00    +0.000 A 
ATOM     21  C   UNL     1       4.655   3.757  19.309  0.00  0.00    +0.000 A 
ATOM     22  C   UNL     1       3.333   3.591  19.872  0.00  0.00    +0.000 A 
ATOM     23  O   UNL     1       3.020   2.471  20.299  0.00  0.00    +0.000 OA
ATOM     24  N   UNL     1       2.509   4.697  19.854  0.00  0.00    +0.000 N 
ATOM     25  C   UNL     1       1.188   4.488  20.406  0.00  0.00    +0.000 C 
BRANCH  20  26
ATOM     26  N   UNL     1       6.289   5.034  18.206  0.00  0.00    +0.000 N 
ATOM     27  C   UNL     1       7.263   6.078  18.565  0.00  0.00    +0.000 C 
ATOM     28  C   UNL     1       7.464   7.059  17.404  0.00  0.00    +0.000 C 
ATOM     29  O   UNL     1       7.847   6.378  16.196  0.00  0.00    +0.000 OA
ATOM     30  C   UNL     1       6.832   5.435  15.823  0.00  0.00    +0.000 C 
ATOM     31  C   UNL     1       6.608   4.380  16.917  0.00  0.00    +0.000 C 
ENDBRANCH  20  26
ENDBRANCH  17  18
ENDBRANCH  11  17
TORSDOF 5
ENDMDL
MODEL 5
REMARK VINA RESULT:      -7.7      4.299      9.170
REMARK  Name = 
REMARK  7 active torsions:
REMARK  status: ('A' for Active; 'I' for Inactive)
REMARK    1  A    between atoms: C_1  and  C_2
REMARK    2  A    between atoms: C_5  and  O_6
REMARK    3  A    between atoms: O_6  and  C_7
REMARK    4  A    between atoms: C_15  and  C_17
REMARK    5  A    between atoms: C_17  and  C_18
REMARK    6  A    between atoms: C_20  and  N_21
REMARK    7  A    between atoms: N_30  and  C_31
REMARK                            x       y       z     vdW  Elec       q    Type
REMARK                         _______ _______ _______ _____ _____    ______ ____
ROOT
ATOM      1  C   UNL     1       1.849   8.894  22.694  0.00  0.00    +0.000 C 
ATOM      2  C   UNL     1       0.631   8.812  21.777  0.00  0.00    +0.000 C 
ATOM      3  C   UNL     1      -0.386   9.924  22.103  0.00  0.00    +0.000 C 
ATOM      4  C   UNL     1      -0.556  10.622  20.784  0.00  0.00    +0.000 A 
ATOM      5  C   UNL     1      -1.392  11.703  20.498  0.00  0.00    +0.000 A 
ATOM      6  C   UNL     1      -1.430  12.179  19.185  0.00  0.00    +0.000 A 
ATOM      7  C   UNL     1      -0.625  11.591  18.198  0.00  0.00    +0.000 A 
ATOM      8  C   UNL     1       0.216  10.507  18.500  0.00  0.00    +0.000 A 
ATOM      9  C   UNL     1       0.247  10.025  19.801  0.00  0.00    +0.000 A 
ATOM     10  N   UNL     1       0.994   8.937  20.353  0.00  0.00    +0.000 N 
ATOM     11  C   UNL     1       1.729   7.980  19.640  0.00  0.00    +0.000 C 
ATOM     12  O   UNL     1       1.766   7.968  18.391  0.00  0.00    +0.000 OA
ENDROOT
BRANCH   5  13
ATOM     13  O   UNL     1      -2.156  12.192  21.518  0.00  0.00    +0.000 OA
BRANCH  13  14
ATOM     14  C   UNL     1      -1.618  13.331  22.180  0.00  0.00    +0.000 C 
ATOM     15  F   UNL     1      -2.592  14.263  22.332  0.00  0.00    +0.000 F 
ATOM     16  F   UNL     1      -1.252  12.942  23.428  0.00  0.00    +0.000 F 
ENDBRANCH  13  14
ENDBRANCH   5  13
BRANCH  11  17
ATOM     17  C   UNL     1       2.421   6.863  20.404  0.00  0.00    +0.000 C 
BRANCH  17  18
ATOM     18  C   UNL     1       2.910   5.544  19.762  0.00  0.00    +0.000 A 
ATOM     19  N   UNL     1       4.119   5.618  19.271  0.00  0.00    +0.000 NA
ATOM     20  C   UNL     1       4.670   4.566  18.586  0.00  0.00    +0.000 A 
ATOM     21  C   UNL     1       4.012   3.404  18.495  0.00  0.00    +0.000 A 
ATOM     22  C   UNL     1       2.694   3.269  19.075  0.00  0.00    +0.000 A 
ATOM     23  O   UNL     1       2.109   2.186  18.942  0.00  0.00    +0.000 OA
ATOM     24  N   UNL     1       2.177   4.382  19.704  0.00  0.00    +0.000 N 
ATOM     25  C   UNL     1       0.849   4.217  20.254  0.00  0.00    +0.000 C 
BRANCH  20  26
ATOM     26  N   UNL     1       5.911   4.673  17.947  0.00  0.00    +0.000 N 
ATOM     27  C   UNL     1       6.989   5.545  18.446  0.00  0.00    +0.000 C 
ATOM     28  C   UNL     1       7.233   6.714  17.484  0.00  0.00    +0.000 C 
ATOM     29  O   UNL     1       7.508   6.252  16.149  0.00  0.00    +0.000 OA
ATOM     30  C   UNL     1       6.398   5.486  15.659  0.00  0.00    +0.000 C 
ATOM     31  C   UNL     1       6.121   4.259  16.542  0.00  0.00    +0.000 C 
ENDBRANCH  20  26
ENDBRANCH  17  18
ENDBRANCH  11  17
TORSDOF 5
ENDMDL
MODEL 6
REMARK VINA RESULT:      -7.7      4.413      9.284
REMARK  Name = 
REMARK  7 active torsions:
REMARK  status: ('A' for Active; 'I' for Inactive)
REMARK    1  A    between atoms: C_1  and  C_2
REMARK    2  A    between atoms: C_5  and  O_6
REMARK    3  A    between atoms: O_6  and  C_7
REMARK    4  A    between atoms: C_15  and  C_17
REMARK    5  A    between atoms: C_17  and  C_18
REMARK    6  A    between atoms: C_20  and  N_21
REMARK    7  A    between atoms: N_30  and  C_31
REMARK                            x       y       z     vdW  Elec       q    Type
REMARK                         _______ _______ _______ _____ _____    ______ ____
ROOT
ATOM      1  C   UNL     1       1.390   9.117  22.828  0.00  0.00    +0.000 C 
ATOM      2  C   UNL     1       0.283   9.334  21.800  0.00  0.00    +0.000 C 
ATOM      3  C   UNL     1      -0.583  10.556  22.165  0.00  0.00    +0.000 C 
ATOM      4  C   UNL     1      -0.497  11.409  20.932  0.00  0.00    +0.000 A 
ATOM      5  C   UNL     1      -1.122  12.637  20.705  0.00  0.00    +0.000 A 
ATOM      6  C   UNL     1      -0.942  13.251  19.462  0.00  0.00    +0.000 A 
ATOM      7  C   UNL     1      -0.132  12.647  18.490  0.00  0.00    +0.000 A 
ATOM      8  C   UNL     1       0.496  11.414  18.733  0.00  0.00    +0.000 A 
ATOM      9  C   UNL     1       0.309  10.797  19.961  0.00  0.00    +0.000 A 
ATOM     10  N   UNL     1       0.817   9.549  20.442  0.00  0.00    +0.000 N 
ATOM     11  C   UNL     1       1.472   8.566  19.687  0.00  0.00    +0.000 C 
ATOM     12  O   UNL     1       1.644   8.682  18.455  0.00  0.00    +0.000 OA
ENDROOT
BRANCH   5  13
ATOM     13  O   UNL     1      -1.912  13.133  21.702  0.00  0.00    +0.000 OA
BRANCH  13  14
ATOM     14  C   UNL     1      -3.310  13.074  21.447  0.00  0.00    +0.000 C 
ATOM     15  F   UNL     1      -3.889  12.213  22.321  0.00  0.00    +0.000 F 
ATOM     16  F   UNL     1      -3.825  14.302  21.710  0.00  0.00    +0.000 F 
ENDBRANCH  13  14
ENDBRANCH   5  13
BRANCH  11  17
ATOM     17  C   UNL     1       1.896   7.275  20.369  0.00  0.00    +0.000 C 
BRANCH  17  18
ATOM     18  C   UNL     1       2.550   6.081  19.637  0.00  0.00    +0.000 A 
ATOM     19  N   UNL     1       3.651   6.393  19.005  0.00  0.00    +0.000 NA
ATOM     20  C   UNL     1       4.309   5.473  18.232  0.00  0.00    +0.000 A 
ATOM     21  C   UNL     1       3.885   4.204  18.189  0.00  0.00    +0.000 A 
ATOM     22  C   UNL     1       2.701   3.809  18.920  0.00  0.00    +0.000 A 
ATOM     23  O   UNL     1       2.327   2.632  18.830  0.00  0.00    +0.000 OA
ATOM     24  N   UNL     1       2.058   4.797  19.637  0.00  0.00    +0.000 N 
ATOM     25  C   UNL     1       0.866   4.371  20.338  0.00  0.00    +0.000 C 
BRANCH  20  26
ATOM     26  N   UNL     1       5.416   5.824  17.451  0.00  0.00    +0.000 N 
ATOM     27  C   UNL     1       5.347   5.949  15.985  0.00  0.00    +0.000 C 
ATOM     28  C   UNL     1       6.159   4.841  15.303  0.00  0.00    +0.000 C 
ATOM     29  O   UNL     1       7.522   4.824  15.764  0.00  0.00    +0.000 OA
ATOM     30  C   UNL     1       7.556   4.605  17.182  0.00  0.00    +0.000 C 
ATOM     31  C   UNL     1       6.807   5.709  17.944  0.00  0.00    +0.000 C 
ENDBRANCH  20  26
ENDBRANCH  17  18
ENDBRANCH  11  17
TORSDOF 5
ENDMDL
MODEL 7
REMARK VINA RESULT:      -7.5      4.193      8.618
REMARK  Name = 
REMARK  7 active torsions:
REMARK  status: ('A' for Active; 'I' for Inactive)
REMARK    1  A    between atoms: C_1  and  C_2
REMARK    2  A    between atoms: C_5  and  O_6
REMARK    3  A    between atoms: O_6  and  C_7
REMARK    4  A    between atoms: C_15  and  C_17
REMARK    5  A    between atoms: C_17  and  C_18
REMARK    6  A    between atoms: C_20  and  N_21
REMARK    7  A    between atoms: N_30  and  C_31
REMARK                            x       y       z     vdW  Elec       q    Type
REMARK                         _______ _______ _______ _____ _____    ______ ____
ROOT
ATOM      1  C   UNL     1       0.238   9.660  17.474  0.00  0.00    +0.000 C 
ATOM      2  C   UNL     1       0.893  10.194  18.745  0.00  0.00    +0.000 C 
ATOM      3  C   UNL     1       0.064  11.341  19.357  0.00  0.00    +0.000 C 
ATOM      4  C   UNL     1      -0.189  10.862  20.758  0.00  0.00    +0.000 A 
ATOM      5  C   UNL     1      -0.881  11.530  21.771  0.00  0.00    +0.000 A 
ATOM      6  C   UNL     1      -0.967  10.919  23.025  0.00  0.00    +0.000 A 
ATOM      7  C   UNL     1      -0.390   9.658  23.236  0.00  0.00    +0.000 A 
ATOM      8  C   UNL     1       0.298   8.994  22.207  0.00  0.00    +0.000 A 
ATOM      9  C   UNL     1       0.395   9.604  20.964  0.00  0.00    +0.000 A 
ATOM     10  N   UNL     1       1.047   9.150  19.775  0.00  0.00    +0.000 N 
ATOM     11  C   UNL     1       1.913   8.053  19.662  0.00  0.00    +0.000 C 
ATOM     12  O   UNL     1       2.240   7.362  20.650  0.00  0.00    +0.000 OA
ENDROOT
BRANCH   5  13
ATOM     13  O   UNL     1      -1.385  12.764  21.478  0.00  0.00    +0.000 OA
BRANCH  13  14
ATOM     14  C   UNL     1      -2.802  12.822  21.366  0.00  0.00    +0.000 C 
ATOM     15  F   UNL     1      -3.191  14.119  21.272  0.00  0.00    +0.000 F 
ATOM     16  F   UNL     1      -3.144  12.227  20.194  0.00  0.00    +0.000 F 
ENDBRANCH  13  14
ENDBRANCH   5  13
BRANCH  11  17
ATOM     17  C   UNL     1       2.553   7.755  18.315  0.00  0.00    +0.000 C 
BRANCH  17  18
ATOM     18  C   UNL     1       3.236   6.416  17.956  0.00  0.00    +0.000 A 
ATOM     19  N   UNL     1       2.709   5.381  18.557  0.00  0.00    +0.000 NA
ATOM     20  C   UNL     1       3.252   4.131  18.419  0.00  0.00    +0.000 A 
ATOM     21  C   UNL     1       4.277   3.931  17.582  0.00  0.00    +0.000 A 
ATOM     22  C   UNL     1       4.851   5.043  16.858  0.00  0.00    +0.000 A 
ATOM     23  O   UNL     1       5.817   4.819  16.117  0.00  0.00    +0.000 OA
ATOM     24  N   UNL     1       4.290   6.283  17.082  0.00  0.00    +0.000 N 
ATOM     25  C   UNL     1       4.902   7.376  16.357  0.00  0.00    +0.000 C 
BRANCH  20  26
ATOM     26  N   UNL     1       2.778   3.037  19.153  0.00  0.00    +0.000 N 
ATOM     27  C   UNL     1       1.389   2.555  19.052  0.00  0.00    +0.000 C 
ATOM     28  C   UNL     1       0.627   2.809  20.359  0.00  0.00    +0.000 C 
ATOM     29  O   UNL     1       1.304   2.227  21.487  0.00  0.00    +0.000 OA
ATOM     30  C   UNL     1       2.619   2.788  21.612  0.00  0.00    +0.000 C 
ATOM     31  C   UNL     1       3.468   2.527  20.358  0.00  0.00    +0.000 C 
ENDBRANCH  20  26
ENDBRANCH  17  18
ENDBRANCH  11  17
TORSDOF 5
ENDMDL
MODEL 8
REMARK VINA RESULT:      -7.5      4.061      9.112
REMARK  Name = 
REMARK  7 active torsions:
REMARK  status: ('A' for Active; 'I' for Inactive)
REMARK    1  A    between atoms: C_1  and  C_2
REMARK    2  A    between atoms: C_5  and  O_6
REMARK    3  A    between atoms: O_6  and  C_7
REMARK    4  A    between atoms: C_15  and  C_17
REMARK    5  A    between atoms: C_17  and  C_18
REMARK    6  A    between atoms: C_20  and  N_21
REMARK    7  A    between atoms: N_30  and  C_31
REMARK                            x       y       z     vdW  Elec       q    Type
REMARK                         _______ _______ _______ _____ _____    ______ ____
ROOT
ATOM      1  C   UNL     1       1.148   8.549  22.459  0.00  0.00    +0.000 C 
ATOM      2  C   UNL     1       0.413   8.886  21.164  0.00  0.00    +0.000 C 
ATOM      3  C   UNL     1      -0.358  10.215  21.292  0.00  0.00    +0.000 C 
ATOM      4  C   UNL     1       0.180  11.028  20.150  0.00  0.00    +0.000 A 
ATOM      5  C   UNL     1      -0.193  12.321  19.778  0.00  0.00    +0.000 A 
ATOM      6  C   UNL     1       0.407  12.883  18.649  0.00  0.00    +0.000 A 
ATOM      7  C   UNL     1       1.375  12.163  17.933  0.00  0.00    +0.000 A 
ATOM      8  C   UNL     1       1.747  10.865  18.321  0.00  0.00    +0.000 A 
ATOM      9  C   UNL     1       1.143  10.300  19.435  0.00  0.00    +0.000 A 
ATOM     10  N   UNL     1       1.332   9.006  20.016  0.00  0.00    +0.000 N 
ATOM     11  C   UNL     1       2.043   7.935  19.459  0.00  0.00    +0.000 C 
ATOM     12  O   UNL     1       2.569   8.005  18.328  0.00  0.00    +0.000 OA
ENDROOT
BRANCH   5  13
ATOM     13  O   UNL     1      -1.162  12.931  20.521  0.00  0.00    +0.000 OA
BRANCH  13  14
ATOM     14  C   UNL     1      -2.472  12.867  19.968  0.00  0.00    +0.000 C 
ATOM     15  F   UNL     1      -2.580  11.754  19.200  0.00  0.00    +0.000 F 
ATOM     16  F   UNL     1      -3.343  12.715  20.999  0.00  0.00    +0.000 F 
ENDBRANCH  13  14
ENDBRANCH   5  13
BRANCH  11  17
ATOM     17  C   UNL     1       2.089   6.613  20.209  0.00  0.00    +0.000 C 
BRANCH  17  18
ATOM     18  C   UNL     1       2.790   5.339  19.682  0.00  0.00    +0.000 A 
ATOM     19  N   UNL     1       4.014   5.547  19.273  0.00  0.00    +0.000 NA
ATOM     20  C   UNL     1       4.745   4.543  18.692  0.00  0.00    +0.000 A 
ATOM     21  C   UNL     1       4.249   3.302  18.624  0.00  0.00    +0.000 A 
ATOM     22  C   UNL     1       2.918   3.024  19.117  0.00  0.00    +0.000 A 
ATOM     23  O   UNL     1       2.487   1.868  19.008  0.00  0.00    +0.000 OA
ATOM     24  N   UNL     1       2.217   4.090  19.642  0.00  0.00    +0.000 N 
ATOM     25  C   UNL     1       0.882   3.780  20.106  0.00  0.00    +0.000 C 
BRANCH  20  26
ATOM     26  N   UNL     1       6.008   4.779  18.137  0.00  0.00    +0.000 N 
ATOM     27  C   UNL     1       6.929   5.803  18.662  0.00  0.00    +0.000 C 
ATOM     28  C   UNL     1       7.098   6.950  17.660  0.00  0.00    +0.000 C 
ATOM     29  O   UNL     1       7.528   6.470  16.374  0.00  0.00    +0.000 OA
ATOM     30  C   UNL     1       6.562   5.548  15.848  0.00  0.00    +0.000 C 
ATOM     31  C   UNL     1       6.374   4.336  16.773  0.00  0.00    +0.000 C 
ENDBRANCH  20  26
ENDBRANCH  17  18
ENDBRANCH  11  17
TORSDOF 5
ENDMDL
MODEL 9
REMARK VINA RESULT:      -7.4      4.192      8.658
REMARK  Name = 
REMARK  7 active torsions:
REMARK  status: ('A' for Active; 'I' for Inactive)
REMARK    1  A    between atoms: C_1  and  C_2
REMARK    2  A    between atoms: C_5  and  O_6
REMARK    3  A    between atoms: O_6  and  C_7
REMARK    4  A    between atoms: C_15  and  C_17
REMARK    5  A    between atoms: C_17  and  C_18
REMARK    6  A    between atoms: C_20  and  N_21
REMARK    7  A    between atoms: N_30  and  C_31
REMARK                            x       y       z     vdW  Elec       q    Type
REMARK                         _______ _______ _______ _____ _____    ______ ____
ROOT
ATOM      1  C   UNL     1       0.260   9.648  17.519  0.00  0.00    +0.000 C 
ATOM      2  C   UNL     1       0.916  10.177  18.792  0.00  0.00    +0.000 C 
ATOM      3  C   UNL     1       0.092  11.327  19.404  0.00  0.00    +0.000 C 
ATOM      4  C   UNL     1      -0.166  10.848  20.804  0.00  0.00    +0.000 A 
ATOM      5  C   UNL     1      -0.856  11.518  21.817  0.00  0.00    +0.000 A 
ATOM      6  C   UNL     1      -0.947  10.906  23.070  0.00  0.00    +0.000 A 
ATOM      7  C   UNL     1      -0.376   9.642  23.280  0.00  0.00    +0.000 A 
ATOM      8  C   UNL     1       0.310   8.976  22.251  0.00  0.00    +0.000 A 
ATOM      9  C   UNL     1       0.412   9.587  21.009  0.00  0.00    +0.000 A 
ATOM     10  N   UNL     1       1.064   9.131  19.820  0.00  0.00    +0.000 N 
ATOM     11  C   UNL     1       1.924   8.030  19.708  0.00  0.00    +0.000 C 
ATOM     12  O   UNL     1       2.246   7.337  20.696  0.00  0.00    +0.000 OA
ENDROOT
BRANCH   5  13
ATOM     13  O   UNL     1      -1.353  12.755  21.524  0.00  0.00    +0.000 OA
BRANCH  13  14
ATOM     14  C   UNL     1      -0.652  13.841  22.120  0.00  0.00    +0.000 C 
ATOM     15  F   UNL     1      -0.885  13.844  23.456  0.00  0.00    +0.000 F 
ATOM     16  F   UNL     1       0.675  13.607  21.956  0.00  0.00    +0.000 F 
ENDBRANCH  13  14
ENDBRANCH   5  13
BRANCH  11  17
ATOM     17  C   UNL     1       2.565   7.731  18.362  0.00  0.00    +0.000 C 
BRANCH  17  18
ATOM     18  C   UNL     1       3.181   6.366  17.977  0.00  0.00    +0.000 A 
ATOM     19  N   UNL     1       2.630   5.352  18.590  0.00  0.00    +0.000 NA
ATOM     20  C   UNL     1       3.117   4.080  18.432  0.00  0.00    +0.000 A 
ATOM     21  C   UNL     1       4.108   3.842  17.566  0.00  0.00    +0.000 A 
ATOM     22  C   UNL     1       4.706   4.934  16.828  0.00  0.00    +0.000 A 
ATOM     23  O   UNL     1       5.641   4.673  16.059  0.00  0.00    +0.000 OA
ATOM     24  N   UNL     1       4.203   6.195  17.074  0.00  0.00    +0.000 N 
ATOM     25  C   UNL     1       4.838   7.265  16.335  0.00  0.00    +0.000 C 
BRANCH  20  26
ATOM     26  N   UNL     1       2.620   3.003  19.176  0.00  0.00    +0.000 N 
ATOM     27  C   UNL     1       1.192   2.862  19.512  0.00  0.00    +0.000 C 
ATOM     28  C   UNL     1       0.966   3.039  21.018  0.00  0.00    +0.000 C 
ATOM     29  O   UNL     1       1.777   2.131  21.785  0.00  0.00    +0.000 OA
ATOM     30  C   UNL     1       3.166   2.360  21.505  0.00  0.00    +0.000 C 
ATOM     31  C   UNL     1       3.486   2.149  20.017  0.00  0.00    +0.000 C 
ENDBRANCH  20  26
ENDBRANCH  17  18
ENDBRANCH  11  17
TORSDOF 5
ENDMDL
