MODEL 1
REMARK VINA RESULT:      -7.0      0.000      0.000
REMARK  Name = 
REMARK  6 active torsions:
REMARK  status: ('A' for Active; 'I' for Inactive)
REMARK    1  A    between atoms: C_1  and  O_2
REMARK    2  A    between atoms: O_2  and  C_3
REMARK    3  A    between atoms: C_8  and  N_9
REMARK    4  A    between atoms: N_12  and  C_13
REMARK    5  A    between atoms: C_13  and  C_14
REMARK    6  A    between atoms: C_14  and  N_15
REMARK                            x       y       z     vdW  Elec       q    Type
REMARK                         _______ _______ _______ _____ _____    ______ ____
ROOT
ATOM      1  N   UNL     1       0.909   9.459  19.058  0.00  0.00    +0.000 N 
ATOM      2  C   UNL     1       1.434   8.609  17.984  0.00  0.00    +0.000 C 
ATOM      3  C   UNL     1       2.738   7.943  18.475  0.00  0.00    +0.000 C 
ATOM      4  N   UNL     1       2.574   7.092  19.686  0.00  0.00    +0.000 NA
ATOM      5  C   UNL     1       1.940   7.929  20.737  0.00  0.00    +0.000 C 
ATOM      6  C   UNL     1       0.677   8.739  20.323  0.00  0.00    +0.000 C 
ENDROOT
BRANCH   1  12
ATOM      7  C   UNL     1      -0.858  11.113  18.487  0.00  0.00    +0.000 A 
ATOM      8  C   UNL     1      -1.208  12.454  18.232  0.00  0.00    +0.000 A 
ATOM      9  C   UNL     1      -0.266  13.470  18.331  0.00  0.00    +0.000 A 
ATOM     10  C   UNL     1       1.036  13.157  18.688  0.00  0.00    +0.000 A 
ATOM     11  C   UNL     1       1.392  11.828  18.935  0.00  0.00    +0.000 A 
ATOM     12  C   UNL     1       0.475  10.761  18.839  0.00  0.00    +0.000 A 
BRANCH   7  14
ATOM     13  C   UNL     1      -2.156   9.850  16.943  0.00  0.00    +0.000 C 
ATOM     14  O   UNL     1      -1.779  10.104  18.294  0.00  0.00    +0.000 OA
ENDBRANCH   7  14
ENDBRANCH   1  12
BRANCH   4  15
ATOM     15  C   UNL     1       1.802   5.862  19.422  0.00  0.00    +0.000 C 
BRANCH  15  16
ATOM     16  C   UNL     1       2.666   4.590  19.548  0.00  0.00    +0.000 C 
BRANCH  16  17
ATOM     17  N   UNL     1       3.703   4.512  18.539  0.00  0.00    +0.000 N 
ATOM     18  C   UNL     1       3.466   4.056  17.270  0.00  0.00    +0.000 C 
ATOM     19  O   UNL     1       2.440   3.615  16.792  0.00  0.00    +0.000 OA
ATOM     20  C   UNL     1       4.724   4.186  16.545  0.00  0.00    +0.000 A 
ATOM     21  C   UNL     1       5.023   3.890  15.230  0.00  0.00    +0.000 A 
ATOM     22  C   UNL     1       6.342   4.096  14.817  0.00  0.00    +0.000 A 
ATOM     23  C   UNL     1       7.311   4.590  15.716  0.00  0.00    +0.000 A 
ATOM     24  C   UNL     1       6.975   4.902  17.039  0.00  0.00    +0.000 A 
ATOM     25  C   UNL     1       5.667   4.689  17.424  0.00  0.00    +0.000 A 
ATOM     26  C   UNL     1       4.998   4.910  18.708  0.00  0.00    +0.000 C 
ATOM     27  O   UNL     1       5.540   5.373  19.694  0.00  0.00    +0.000 OA
ENDBRANCH  16  17
ENDBRANCH  15  16
ENDBRANCH   4  15
TORSDOF 5
ENDMDL
MODEL 2
REMARK VINA RESULT:      -6.8      1.654      2.525
REMARK  Name = 
REMARK  6 active torsions:
REMARK  status: ('A' for Active; 'I' for Inactive)
REMARK    1  A    between atoms: C_1  and  O_2
REMARK    2  A    between atoms: O_2  and  C_3
REMARK    3  A    between atoms: C_8  and  N_9
REMARK    4  A    between atoms: N_12  and  C_13
REMARK    5  A    between atoms: C_13  and  C_14
REMARK    6  A    between atoms: C_14  and  N_15
REMARK                            x       y       z     vdW  Elec       q    Type
REMARK                         _______ _______ _______ _____ _____    ______ ____
ROOT
ATOM      1  N   UNL     1       1.508   8.376  19.795  0.00  0.00    +0.000 N 
ATOM      2  C   UNL     1       1.677   7.474  20.940  0.00  0.00    +0.000 C 
ATOM      3  C   UNL     1       1.440   6.024  20.463  0.00  0.00    +0.000 C 
ATOM      4  N   UNL     1       2.366   5.571  19.389  0.00  0.00    +0.000 NA
ATOM      5  C   UNL     1       2.271   6.551  18.276  0.00  0.00    +0.000 C 
ATOM      6  C   UNL     1       2.384   8.056  18.654  0.00  0.00    +0.000 C 
ENDROOT
BRANCH   1  12
ATOM      7  C   UNL     1       0.523  10.277  21.061  0.00  0.00    +0.000 A 
ATOM      8  C   UNL     1      -0.298  11.421  21.058  0.00  0.00    +0.000 A 
ATOM      9  C   UNL     1      -0.896  11.870  19.887  0.00  0.00    +0.000 A 
ATOM     10  C   UNL     1      -0.678  11.181  18.705  0.00  0.00    +0.000 A 
ATOM     11  C   UNL     1       0.130  10.039  18.701  0.00  0.00    +0.000 A 
ATOM     12  C   UNL     1       0.751   9.539  19.865  0.00  0.00    +0.000 A 
BRANCH   7  14
ATOM     13  C   UNL     1       0.090   9.565  23.289  0.00  0.00    +0.000 C 
ATOM     14  O   UNL     1       1.034   9.788  22.245  0.00  0.00    +0.000 OA
ENDBRANCH   7  14
ENDBRANCH   1  12
BRANCH   4  15
ATOM     15  C   UNL     1       3.756   5.407  19.861  0.00  0.00    +0.000 C 
BRANCH  15  16
ATOM     16  C   UNL     1       4.377   4.073  19.399  0.00  0.00    +0.000 C 
BRANCH  16  17
ATOM     17  N   UNL     1       5.005   4.165  18.097  0.00  0.00    +0.000 N 
ATOM     18  C   UNL     1       4.347   3.859  16.936  0.00  0.00    +0.000 C 
ATOM     19  O   UNL     1       3.218   3.437  16.782  0.00  0.00    +0.000 OA
ATOM     20  C   UNL     1       5.280   4.133  15.849  0.00  0.00    +0.000 A 
ATOM     21  C   UNL     1       5.109   4.014  14.485  0.00  0.00    +0.000 A 
ATOM     22  C   UNL     1       6.206   4.327  13.678  0.00  0.00    +0.000 A 
ATOM     23  C   UNL     1       7.426   4.748  14.250  0.00  0.00    +0.000 A 
ATOM     24  C   UNL     1       7.565   4.879  15.637  0.00  0.00    +0.000 A 
ATOM     25  C   UNL     1       6.467   4.563  16.414  0.00  0.00    +0.000 A 
ATOM     26  C   UNL     1       6.281   4.595  17.866  0.00  0.00    +0.000 C 
ATOM     27  O   UNL     1       7.128   4.956  18.660  0.00  0.00    +0.000 OA
ENDBRANCH  16  17
ENDBRANCH  15  16
ENDBRANCH   4  15
TORSDOF 5
ENDMDL
MODEL 3
REMARK VINA RESULT:      -6.7      3.564      5.604
REMARK  Name = 
REMARK  6 active torsions:
REMARK  status: ('A' for Active; 'I' for Inactive)
REMARK    1  A    between atoms: C_1  and  O_2
REMARK    2  A    between atoms: O_2  and  C_3
REMARK    3  A    between atoms: C_8  and  N_9
REMARK    4  A    between atoms: N_12  and  C_13
REMARK    5  A    between atoms: C_13  and  C_14
REMARK    6  A    between atoms: C_14  and  N_15
REMARK                            x       y       z     vdW  Elec       q    Type
REMARK                         _______ _______ _______ _____ _____    ______ ____
ROOT
ATOM      1  N   UNL     1      -3.832  11.735  18.685  0.00  0.00    +0.000 N 
ATOM      2  C   UNL     1      -3.379  10.445  18.155  0.00  0.00    +0.000 C 
ATOM      3  C   UNL     1      -2.020  10.652  17.450  0.00  0.00    +0.000 C 
ATOM      4  N   UNL     1      -0.945  11.181  18.334  0.00  0.00    +0.000 NA
ATOM      5  C   UNL     1      -1.452  12.431  18.955  0.00  0.00    +0.000 C 
ATOM      6  C   UNL     1      -2.868  12.372  19.599  0.00  0.00    +0.000 C 
ENDROOT
BRANCH   1  12
ATOM      7  C   UNL     1      -6.092  12.308  19.551  0.00  0.00    +0.000 A 
ATOM      8  C   UNL     1      -7.403  12.746  19.280  0.00  0.00    +0.000 A 
ATOM      9  C   UNL     1      -7.788  13.101  17.993  0.00  0.00    +0.000 A 
ATOM     10  C   UNL     1      -6.866  13.024  16.962  0.00  0.00    +0.000 A 
ATOM     11  C   UNL     1      -5.564  12.583  17.222  0.00  0.00    +0.000 A 
ATOM     12  C   UNL     1      -5.129  12.203  18.509  0.00  0.00    +0.000 A 
BRANCH   7  14
ATOM     13  C   UNL     1      -6.448  12.477  21.897  0.00  0.00    +0.000 C 
ATOM     14  O   UNL     1      -5.750  11.870  20.813  0.00  0.00    +0.000 OA
ENDBRANCH   7  14
ENDBRANCH   1  12
BRANCH   4  15
ATOM     15  C   UNL     1      -0.503  10.203  19.349  0.00  0.00    +0.000 C 
BRANCH  15  16
ATOM     16  C   UNL     1       1.032  10.161  19.493  0.00  0.00    +0.000 C 
BRANCH  16  17
ATOM     17  N   UNL     1       1.572   8.821  19.378  0.00  0.00    +0.000 N 
ATOM     18  C   UNL     1       2.148   8.352  18.229  0.00  0.00    +0.000 C 
ATOM     19  O   UNL     1       2.267   8.900  17.151  0.00  0.00    +0.000 OA
ATOM     20  C   UNL     1       2.617   7.003  18.524  0.00  0.00    +0.000 A 
ATOM     21  C   UNL     1       3.286   6.103  17.719  0.00  0.00    +0.000 A 
ATOM     22  C   UNL     1       3.587   4.857  18.276  0.00  0.00    +0.000 A 
ATOM     23  C   UNL     1       3.220   4.552  19.604  0.00  0.00    +0.000 A 
ATOM     24  C   UNL     1       2.561   5.492  20.404  0.00  0.00    +0.000 A 
ATOM     25  C   UNL     1       2.273   6.716  19.832  0.00  0.00    +0.000 A 
ATOM     26  C   UNL     1       1.609   7.898  20.385  0.00  0.00    +0.000 C 
ATOM     27  O   UNL     1       1.203   7.988  21.527  0.00  0.00    +0.000 OA
ENDBRANCH  16  17
ENDBRANCH  15  16
ENDBRANCH   4  15
TORSDOF 5
ENDMDL
MODEL 4
REMARK VINA RESULT:      -6.7      2.336      8.891
REMARK  Name = 
REMARK  6 active torsions:
REMARK  status: ('A' for Active; 'I' for Inactive)
REMARK    1  A    between atoms: C_1  and  O_2
REMARK    2  A    between atoms: O_2  and  C_3
REMARK    3  A    between atoms: C_8  and  N_9
REMARK    4  A    between atoms: N_12  and  C_13
REMARK    5  A    between atoms: C_13  and  C_14
REMARK    6  A    between atoms: C_14  and  N_15
REMARK                            x       y       z     vdW  Elec       q    Type
REMARK                         _______ _______ _______ _____ _____    ______ ____
ROOT
ATOM      1  N   UNL     1       4.234   6.188  18.174  0.00  0.00    +0.000 N 
ATOM      2  C   UNL     1       3.674   7.518  17.907  0.00  0.00    +0.000 C 
ATOM      3  C   UNL     1       2.136   7.438  18.029  0.00  0.00    +0.000 C 
ATOM      4  N   UNL     1       1.648   7.001  19.366  0.00  0.00    +0.000 NA
ATOM      5  C   UNL     1       2.304   5.706  19.679  0.00  0.00    +0.000 C 
ATOM      6  C   UNL     1       3.847   5.634  19.483  0.00  0.00    +0.000 C 
ENDROOT
BRANCH   1  12
ATOM      7  C   UNL     1       6.395   5.003  17.847  0.00  0.00    +0.000 A 
ATOM      8  C   UNL     1       7.352   4.480  16.955  0.00  0.00    +0.000 A 
ATOM      9  C   UNL     1       7.151   4.526  15.581  0.00  0.00    +0.000 A 
ATOM     10  C   UNL     1       5.990   5.095  15.083  0.00  0.00    +0.000 A 
ATOM     11  C   UNL     1       5.039   5.624  15.961  0.00  0.00    +0.000 A 
ATOM     12  C   UNL     1       5.202   5.608  17.363  0.00  0.00    +0.000 A 
BRANCH   7  14
ATOM     13  C   UNL     1       7.865   5.665  19.597  0.00  0.00    +0.000 C 
ATOM     14  O   UNL     1       6.649   5.034  19.202  0.00  0.00    +0.000 OA
ENDBRANCH   7  14
ENDBRANCH   1  12
BRANCH   4  15
ATOM     15  C   UNL     1       1.886   8.007  20.420  0.00  0.00    +0.000 C 
BRANCH  15  16
ATOM     16  C   UNL     1       0.710   8.101  21.416  0.00  0.00    +0.000 C 
BRANCH  16  17
ATOM     17  N   UNL     1       0.079   9.404  21.419  0.00  0.00    +0.000 N 
ATOM     18  C   UNL     1      -0.097  10.138  22.561  0.00  0.00    +0.000 C 
ATOM     19  O   UNL     1       0.173   9.847  23.709  0.00  0.00    +0.000 OA
ATOM     20  C   UNL     1      -0.703  11.399  22.152  0.00  0.00    +0.000 A 
ATOM     21  C   UNL     1      -1.063  12.496  22.909  0.00  0.00    +0.000 A 
ATOM     22  C   UNL     1      -1.657  13.565  22.234  0.00  0.00    +0.000 A 
ATOM     23  C   UNL     1      -1.868  13.512  20.840  0.00  0.00    +0.000 A 
ATOM     24  C   UNL     1      -1.474  12.395  20.094  0.00  0.00    +0.000 A 
ATOM     25  C   UNL     1      -0.890  11.350  20.782  0.00  0.00    +0.000 A 
ATOM     26  C   UNL     1      -0.372  10.064  20.311  0.00  0.00    +0.000 C 
ATOM     27  O   UNL     1      -0.359   9.713  19.147  0.00  0.00    +0.000 OA
ENDBRANCH  16  17
ENDBRANCH  15  16
ENDBRANCH   4  15
TORSDOF 5
ENDMDL
MODEL 5
REMARK VINA RESULT:      -6.7      0.353      1.720
REMARK  Name = 
REMARK  6 active torsions:
REMARK  status: ('A' for Active; 'I' for Inactive)
REMARK    1  A    between atoms: C_1  and  O_2
REMARK    2  A    between atoms: O_2  and  C_3
REMARK    3  A    between atoms: C_8  and  N_9
REMARK    4  A    between atoms: N_12  and  C_13
REMARK    5  A    between atoms: C_13  and  C_14
REMARK    6  A    between atoms: C_14  and  N_15
REMARK                            x       y       z     vdW  Elec       q    Type
REMARK                         _______ _______ _______ _____ _____    ______ ____
ROOT
ATOM      1  N   UNL     1       0.776   9.370  19.125  0.00  0.00    +0.000 N 
ATOM      2  C   UNL     1       1.355   8.535  18.067  0.00  0.00    +0.000 C 
ATOM      3  C   UNL     1       2.674   7.924  18.589  0.00  0.00    +0.000 C 
ATOM      4  N   UNL     1       2.520   7.076  19.803  0.00  0.00    +0.000 NA
ATOM      5  C   UNL     1       1.833   7.894  20.835  0.00  0.00    +0.000 C 
ATOM      6  C   UNL     1       0.548   8.650  20.390  0.00  0.00    +0.000 C 
ENDROOT
BRANCH   1  12
ATOM      7  C   UNL     1      -0.880  10.942  18.139  0.00  0.00    +0.000 A 
ATOM      8  C   UNL     1      -1.274  12.273  17.900  0.00  0.00    +0.000 A 
ATOM      9  C   UNL     1      -0.536  13.338  18.400  0.00  0.00    +0.000 A 
ATOM     10  C   UNL     1       0.604  13.085  19.145  0.00  0.00    +0.000 A 
ATOM     11  C   UNL     1       1.006  11.767  19.380  0.00  0.00    +0.000 A 
ATOM     12  C   UNL     1       0.295  10.652  18.887  0.00  0.00    +0.000 A 
BRANCH   7  14
ATOM     13  C   UNL     1      -2.977   9.878  17.776  0.00  0.00    +0.000 C 
ATOM     14  O   UNL     1      -1.569   9.896  17.560  0.00  0.00    +0.000 OA
ENDBRANCH   7  14
ENDBRANCH   1  12
BRANCH   4  15
ATOM     15  C   UNL     1       1.803   5.814  19.533  0.00  0.00    +0.000 C 
BRANCH  15  16
ATOM     16  C   UNL     1       2.731   4.584  19.612  0.00  0.00    +0.000 C 
BRANCH  16  17
ATOM     17  N   UNL     1       3.704   4.544  18.539  0.00  0.00    +0.000 N 
ATOM     18  C   UNL     1       5.005   4.933  18.706  0.00  0.00    +0.000 C 
ATOM     19  O   UNL     1       5.547   5.399  19.689  0.00  0.00    +0.000 OA
ATOM     20  C   UNL     1       5.674   4.691  17.433  0.00  0.00    +0.000 A 
ATOM     21  C   UNL     1       6.992   4.890  17.074  0.00  0.00    +0.000 A 
ATOM     22  C   UNL     1       7.343   4.588  15.756  0.00  0.00    +0.000 A 
ATOM     23  C   UNL     1       6.381   4.099  14.847  0.00  0.00    +0.000 A 
ATOM     24  C   UNL     1       5.055   3.887  15.244  0.00  0.00    +0.000 A 
ATOM     25  C   UNL     1       4.732   4.194  16.551  0.00  0.00    +0.000 A 
ATOM     26  C   UNL     1       3.463   4.087  17.274  0.00  0.00    +0.000 C 
ATOM     27  O   UNL     1       2.432   3.658  16.793  0.00  0.00    +0.000 OA
ENDBRANCH  16  17
ENDBRANCH  15  16
ENDBRANCH   4  15
TORSDOF 5
ENDMDL
MODEL 6
REMARK VINA RESULT:      -6.6      2.444      8.817
REMARK  Name = 
REMARK  6 active torsions:
REMARK  status: ('A' for Active; 'I' for Inactive)
REMARK    1  A    between atoms: C_1  and  O_2
REMARK    2  A    between atoms: O_2  and  C_3
REMARK    3  A    between atoms: C_8  and  N_9
REMARK    4  A    between atoms: N_12  and  C_13
REMARK    5  A    between atoms: C_13  and  C_14
REMARK    6  A    between atoms: C_14  and  N_15
REMARK                            x       y       z     vdW  Elec       q    Type
REMARK                         _______ _______ _______ _____ _____    ______ ____
ROOT
ATOM      1  N   UNL     1       4.149   6.189  17.952  0.00  0.00    +0.000 N 
ATOM      2  C   UNL     1       3.525   7.485  17.659  0.00  0.00    +0.000 C 
ATOM      3  C   UNL     1       2.006   7.368  17.913  0.00  0.00    +0.000 C 
ATOM      4  N   UNL     1       1.643   6.996  19.308  0.00  0.00    +0.000 NA
ATOM      5  C   UNL     1       2.365   5.740  19.636  0.00  0.00    +0.000 C 
ATOM      6  C   UNL     1       3.888   5.701  19.317  0.00  0.00    +0.000 C 
ENDROOT
BRANCH   1  12
ATOM      7  C   UNL     1       6.281   6.198  16.671  0.00  0.00    +0.000 A 
ATOM      8  C   UNL     1       7.135   5.544  15.762  0.00  0.00    +0.000 A 
ATOM      9  C   UNL     1       6.825   4.284  15.268  0.00  0.00    +0.000 A 
ATOM     10  C   UNL     1       5.656   3.662  15.677  0.00  0.00    +0.000 A 
ATOM     11  C   UNL     1       4.799   4.308  16.573  0.00  0.00    +0.000 A 
ATOM     12  C   UNL     1       5.066   5.591  17.097  0.00  0.00    +0.000 A 
BRANCH   7  14
ATOM     13  C   UNL     1       7.783   7.674  17.779  0.00  0.00    +0.000 C 
ATOM     14  O   UNL     1       6.554   7.486  17.082  0.00  0.00    +0.000 OA
ENDBRANCH   7  14
ENDBRANCH   1  12
BRANCH   4  15
ATOM     15  C   UNL     1       1.932   8.067  20.281  0.00  0.00    +0.000 C 
BRANCH  15  16
ATOM     16  C   UNL     1       0.871   8.146  21.399  0.00  0.00    +0.000 C 
BRANCH  16  17
ATOM     17  N   UNL     1       0.170   9.413  21.421  0.00  0.00    +0.000 N 
ATOM     18  C   UNL     1      -0.068  10.106  22.577  0.00  0.00    +0.000 C 
ATOM     19  O   UNL     1       0.193   9.799  23.724  0.00  0.00    +0.000 OA
ATOM     20  C   UNL     1      -0.733  11.344  22.187  0.00  0.00    +0.000 A 
ATOM     21  C   UNL     1      -1.167  12.399  22.964  0.00  0.00    +0.000 A 
ATOM     22  C   UNL     1      -1.804  13.453  22.304  0.00  0.00    +0.000 A 
ATOM     23  C   UNL     1      -1.982  13.426  20.904  0.00  0.00    +0.000 A 
ATOM     24  C   UNL     1      -1.513  12.352  20.138  0.00  0.00    +0.000 A 
ATOM     25  C   UNL     1      -0.889  11.321  20.813  0.00  0.00    +0.000 A 
ATOM     26  C   UNL     1      -0.292  10.078  20.320  0.00  0.00    +0.000 C 
ATOM     27  O   UNL     1      -0.236   9.759  19.148  0.00  0.00    +0.000 OA
ENDBRANCH  16  17
ENDBRANCH  15  16
ENDBRANCH   4  15
TORSDOF 5
ENDMDL
MODEL 7
REMARK VINA RESULT:      -6.6      2.558      9.301
REMARK  Name = 
REMARK  6 active torsions:
REMARK  status: ('A' for Active; 'I' for Inactive)
REMARK    1  A    between atoms: C_1  and  O_2
REMARK    2  A    between atoms: O_2  and  C_3
REMARK    3  A    between atoms: C_8  and  N_9
REMARK    4  A    between atoms: N_12  and  C_13
REMARK    5  A    between atoms: C_13  and  C_14
REMARK    6  A    between atoms: C_14  and  N_15
REMARK                            x       y       z     vdW  Elec       q    Type
REMARK                         _______ _______ _______ _____ _____    ______ ____
ROOT
ATOM      1  N   UNL     1       2.293   7.479  18.605  0.00  0.00    +0.000 N 
ATOM      2  C   UNL     1       2.212   8.661  17.740  0.00  0.00    +0.000 C 
ATOM      3  C   UNL     1       0.848   9.349  17.973  0.00  0.00    +0.000 C 
ATOM      4  N   UNL     1       0.619   9.797  19.374  0.00  0.00    +0.000 NA
ATOM      5  C   UNL     1       0.811   8.618  20.256  0.00  0.00    +0.000 C 
ATOM      6  C   UNL     1       2.102   7.778  20.035  0.00  0.00    +0.000 C 
ENDROOT
BRANCH   1  12
ATOM      7  C   UNL     1       4.034   5.969  17.672  0.00  0.00    +0.000 A 
ATOM      8  C   UNL     1       4.373   4.697  17.170  0.00  0.00    +0.000 A 
ATOM      9  C   UNL     1       3.439   3.669  17.135  0.00  0.00    +0.000 A 
ATOM     10  C   UNL     1       2.155   3.901  17.601  0.00  0.00    +0.000 A 
ATOM     11  C   UNL     1       1.809   5.163  18.093  0.00  0.00    +0.000 A 
ATOM     12  C   UNL     1       2.718   6.240  18.141  0.00  0.00    +0.000 A 
BRANCH   7  14
ATOM     13  C   UNL     1       6.208   6.698  17.038  0.00  0.00    +0.000 C 
ATOM     14  O   UNL     1       4.942   7.005  17.615  0.00  0.00    +0.000 OA
ENDBRANCH   7  14
ENDBRANCH   1  12
BRANCH   4  15
ATOM     15  C   UNL     1       1.488  10.925  19.765  0.00  0.00    +0.000 C 
BRANCH  15  16
ATOM     16  C   UNL     1       0.832  12.294  19.486  0.00  0.00    +0.000 C 
BRANCH  16  17
ATOM     17  N   UNL     1      -0.536  12.368  19.957  0.00  0.00    +0.000 N 
ATOM     18  C   UNL     1      -0.855  12.542  21.277  0.00  0.00    +0.000 C 
ATOM     19  O   UNL     1      -0.120  12.611  22.242  0.00  0.00    +0.000 OA
ATOM     20  C   UNL     1      -2.309  12.628  21.341  0.00  0.00    +0.000 A 
ATOM     21  C   UNL     1      -3.137  12.823  22.428  0.00  0.00    +0.000 A 
ATOM     22  C   UNL     1      -4.513  12.834  22.184  0.00  0.00    +0.000 A 
ATOM     23  C   UNL     1      -5.016  12.656  20.877  0.00  0.00    +0.000 A 
ATOM     24  C   UNL     1      -4.152  12.480  19.790  0.00  0.00    +0.000 A 
ATOM     25  C   UNL     1      -2.797  12.472  20.056  0.00  0.00    +0.000 A 
ATOM     26  C   UNL     1      -1.647  12.318  19.163  0.00  0.00    +0.000 C 
ATOM     27  O   UNL     1      -1.726  12.187  17.957  0.00  0.00    +0.000 OA
ENDBRANCH  16  17
ENDBRANCH  15  16
ENDBRANCH   4  15
TORSDOF 5
ENDMDL
MODEL 8
REMARK VINA RESULT:      -6.6      2.565      9.174
REMARK  Name = 
REMARK  6 active torsions:
REMARK  status: ('A' for Active; 'I' for Inactive)
REMARK    1  A    between atoms: C_1  and  O_2
REMARK    2  A    between atoms: O_2  and  C_3
REMARK    3  A    between atoms: C_8  and  N_9
REMARK    4  A    between atoms: N_12  and  C_13
REMARK    5  A    between atoms: C_13  and  C_14
REMARK    6  A    between atoms: C_14  and  N_15
REMARK                            x       y       z     vdW  Elec       q    Type
REMARK                         _______ _______ _______ _____ _____    ______ ____
ROOT
ATOM      1  N   UNL     1       2.308   7.473  18.594  0.00  0.00    +0.000 N 
ATOM      2  C   UNL     1       2.190   8.657  17.735  0.00  0.00    +0.000 C 
ATOM      3  C   UNL     1       0.816   9.314  17.989  0.00  0.00    +0.000 C 
ATOM      4  N   UNL     1       0.594   9.752  19.394  0.00  0.00    +0.000 NA
ATOM      5  C   UNL     1       0.823   8.573  20.270  0.00  0.00    +0.000 C 
ATOM      6  C   UNL     1       2.129   7.762  20.028  0.00  0.00    +0.000 C 
ENDROOT
BRANCH   1  12
ATOM      7  C   UNL     1       4.057   6.014  17.596  0.00  0.00    +0.000 A 
ATOM      8  C   UNL     1       4.416   4.750  17.088  0.00  0.00    +0.000 A 
ATOM      9  C   UNL     1       3.516   3.692  17.098  0.00  0.00    +0.000 A 
ATOM     10  C   UNL     1       2.246   3.885  17.618  0.00  0.00    +0.000 A 
ATOM     11  C   UNL     1       1.879   5.139  18.116  0.00  0.00    +0.000 A 
ATOM     12  C   UNL     1       2.754   6.246  18.120  0.00  0.00    +0.000 A 
BRANCH   7  14
ATOM     13  C   UNL     1       6.270   6.759  17.142  0.00  0.00    +0.000 C 
ATOM     14  O   UNL     1       4.927   7.079  17.495  0.00  0.00    +0.000 OA
ENDBRANCH   7  14
ENDBRANCH   1  12
BRANCH   4  15
ATOM     15  C   UNL     1       1.444  10.896  19.779  0.00  0.00    +0.000 C 
BRANCH  15  16
ATOM     16  C   UNL     1       0.806  12.251  19.407  0.00  0.00    +0.000 C 
BRANCH  16  17
ATOM     17  N   UNL     1      -0.531  12.408  19.942  0.00  0.00    +0.000 N 
ATOM     18  C   UNL     1      -1.653  12.346  19.159  0.00  0.00    +0.000 C 
ATOM     19  O   UNL     1      -1.742  12.208  17.955  0.00  0.00    +0.000 OA
ATOM     20  C   UNL     1      -2.792  12.487  20.059  0.00  0.00    +0.000 A 
ATOM     21  C   UNL     1      -4.144  12.470  19.784  0.00  0.00    +0.000 A 
ATOM     22  C   UNL     1      -5.013  12.660  20.862  0.00  0.00    +0.000 A 
ATOM     23  C   UNL     1      -4.512  12.854  22.167  0.00  0.00    +0.000 A 
ATOM     24  C   UNL     1      -3.136  12.846  22.420  0.00  0.00    +0.000 A 
ATOM     25  C   UNL     1      -2.297  12.658  21.339  0.00  0.00    +0.000 A 
ATOM     26  C   UNL     1      -0.836  12.593  21.261  0.00  0.00    +0.000 C 
ATOM     27  O   UNL     1      -0.092  12.680  22.218  0.00  0.00    +0.000 OA
ENDBRANCH  16  17
ENDBRANCH  15  16
ENDBRANCH   4  15
TORSDOF 5
ENDMDL
MODEL 9
REMARK VINA RESULT:      -6.6      1.245      1.719
REMARK  Name = 
REMARK  6 active torsions:
REMARK  status: ('A' for Active; 'I' for Inactive)
REMARK    1  A    between atoms: C_1  and  O_2
REMARK    2  A    between atoms: O_2  and  C_3
REMARK    3  A    between atoms: C_8  and  N_9
REMARK    4  A    between atoms: N_12  and  C_13
REMARK    5  A    between atoms: C_13  and  C_14
REMARK    6  A    between atoms: C_14  and  N_15
REMARK                            x       y       z     vdW  Elec       q    Type
REMARK                         _______ _______ _______ _____ _____    ______ ____
ROOT
ATOM      1  N   UNL     1       1.392   8.720  19.856  0.00  0.00    +0.000 N 
ATOM      2  C   UNL     1       1.543   7.791  20.981  0.00  0.00    +0.000 C 
ATOM      3  C   UNL     1       1.263   6.358  20.477  0.00  0.00    +0.000 C 
ATOM      4  N   UNL     1       2.170   5.902  19.388  0.00  0.00    +0.000 NA
ATOM      5  C   UNL     1       2.096   6.906  18.296  0.00  0.00    +0.000 C 
ATOM      6  C   UNL     1       2.251   8.400  18.703  0.00  0.00    +0.000 C 
ENDROOT
BRANCH   1  12
ATOM      7  C   UNL     1      -0.268  10.353  18.981  0.00  0.00    +0.000 A 
ATOM      8  C   UNL     1      -0.926  11.589  19.131  0.00  0.00    +0.000 A 
ATOM      9  C   UNL     1      -0.693  12.395  20.239  0.00  0.00    +0.000 A 
ATOM     10  C   UNL     1       0.200  11.973  21.210  0.00  0.00    +0.000 A 
ATOM     11  C   UNL     1       0.864  10.750  21.065  0.00  0.00    +0.000 A 
ATOM     12  C   UNL     1       0.667   9.902  19.955  0.00  0.00    +0.000 A 
BRANCH   7  14
ATOM     13  C   UNL     1      -1.647   9.831  17.115  0.00  0.00    +0.000 C 
ATOM     14  O   UNL     1      -0.437   9.607  17.834  0.00  0.00    +0.000 OA
ENDBRANCH   7  14
ENDBRANCH   1  12
BRANCH   4  15
ATOM     15  C   UNL     1       3.557   5.691  19.847  0.00  0.00    +0.000 C 
BRANCH  15  16
ATOM     16  C   UNL     1       4.104   4.306  19.442  0.00  0.00    +0.000 C 
BRANCH  16  17
ATOM     17  N   UNL     1       4.781   4.321  18.161  0.00  0.00    +0.000 N 
ATOM     18  C   UNL     1       4.151   4.002  16.989  0.00  0.00    +0.000 C 
ATOM     19  O   UNL     1       3.010   3.626  16.808  0.00  0.00    +0.000 OA
ATOM     20  C   UNL     1       5.133   4.193  15.928  0.00  0.00    +0.000 A 
ATOM     21  C   UNL     1       5.005   4.031  14.563  0.00  0.00    +0.000 A 
ATOM     22  C   UNL     1       6.144   4.263  13.787  0.00  0.00    +0.000 A 
ATOM     23  C   UNL     1       7.361   4.650  14.388  0.00  0.00    +0.000 A 
ATOM     24  C   UNL     1       7.456   4.827  15.774  0.00  0.00    +0.000 A 
ATOM     25  C   UNL     1       6.319   4.590  16.520  0.00  0.00    +0.000 A 
ATOM     26  C   UNL     1       6.083   4.685  17.962  0.00  0.00    +0.000 C 
ATOM     27  O   UNL     1       6.917   5.036  18.773  0.00  0.00    +0.000 OA
ENDBRANCH  16  17
ENDBRANCH  15  16
ENDBRANCH   4  15
TORSDOF 5
ENDMDL
