MODEL 1
REMARK VINA RESULT:      -7.7      0.000      0.000
REMARK  Name = 
REMARK  5 active torsions:
REMARK  status: ('A' for Active; 'I' for Inactive)
REMARK    1  A    between atoms: C_1  and  C_2
REMARK    2  A    between atoms: C_4  and  C_5
REMARK    3  A    between atoms: C_5  and  N_6
REMARK    4  A    between atoms: N_6  and  C_7
REMARK    5  A    between atoms: C_12  and  C_13
REMARK                            x       y       z     vdW  Elec       q    Type
REMARK                         _______ _______ _______ _____ _____    ______ ____
ROOT
ATOM      1  C   UNL     1       2.807   4.854  18.832  0.00  0.00    +0.000 A 
ATOM      2  N   UNL     1       2.764   6.136  18.390  0.00  0.00    +0.000 NA
ATOM      3  C   UNL     1       2.161   7.043  19.175  0.00  0.00    +0.000 A 
ATOM      4  C   UNL     1       1.575   6.764  20.391  0.00  0.00    +0.000 A 
ATOM      5  C   UNL     1       1.580   5.461  20.845  0.00  0.00    +0.000 A 
ATOM      6  C   UNL     1       2.185   4.477  20.045  0.00  0.00    +0.000 A 
ATOM      7  C   UNL     1       1.021   7.980  21.041  0.00  0.00    +0.000 C 
ATOM      8  C   UNL     1       1.379   9.105  20.054  0.00  0.00    +0.000 C 
ATOM      9  C   UNL     1       2.086   8.497  18.834  0.00  0.00    +0.000 C 
ENDROOT
BRANCH   6  10
ATOM     10  C   UNL     1       2.194   3.097  20.591  0.00  0.00    +0.000 C 
ATOM     11  N   UNL     1       2.398   2.945  21.935  0.00  0.00    +0.000 N 
ATOM     12  O   UNL     1       2.057   2.122  19.865  0.00  0.00    +0.000 OA
ATOM     13  H   UNL     1       2.692   3.724  22.519  0.00  0.00    +0.000 HD
ATOM     14  H   UNL     1       2.528   2.005  22.278  0.00  0.00    +0.000 HD
ENDBRANCH   6  10
BRANCH   1  15
ATOM     15  N   UNL     1       3.451   3.905  18.004  0.00  0.00    +0.000 N 
ATOM     16  H   UNL     1       2.941   3.023  18.057  0.00  0.00    +0.000 HD
BRANCH  15  17
ATOM     17  C   UNL     1       4.841   3.676  18.407  0.00  0.00    +0.000 C 
BRANCH  17  21
ATOM     18  C   UNL     1       7.741   7.732  17.619  0.00  0.00    +0.000 C 
ATOM     19  C   UNL     1       7.139   6.437  17.161  0.00  0.00    +0.000 A 
ATOM     20  C   UNL     1       6.323   5.691  18.009  0.00  0.00    +0.000 A 
ATOM     21  C   UNL     1       5.757   4.502  17.538  0.00  0.00    +0.000 A 
ATOM     22  C   UNL     1       6.034   4.105  16.228  0.00  0.00    +0.000 A 
ATOM     23  C   UNL     1       6.853   4.907  15.453  0.00  0.00    +0.000 A 
ATOM     24  N   UNL     1       7.409   6.058  15.890  0.00  0.00    +0.000 NA
ENDBRANCH  17  21
ENDBRANCH  15  17
ENDBRANCH   1  15
TORSDOF 4
ENDMDL
MODEL 2
REMARK VINA RESULT:      -7.7      2.273      6.905
REMARK  Name = 
REMARK  5 active torsions:
REMARK  status: ('A' for Active; 'I' for Inactive)
REMARK    1  A    between atoms: C_1  and  C_2
REMARK    2  A    between atoms: C_4  and  C_5
REMARK    3  A    between atoms: C_5  and  N_6
REMARK    4  A    between atoms: N_6  and  C_7
REMARK    5  A    between atoms: C_12  and  C_13
REMARK                            x       y       z     vdW  Elec       q    Type
REMARK                         _______ _______ _______ _____ _____    ______ ____
ROOT
ATOM      1  C   UNL     1       5.715   3.873  16.224  0.00  0.00    +0.000 A 
ATOM      2  N   UNL     1       5.431   3.440  14.970  0.00  0.00    +0.000 NA
ATOM      3  C   UNL     1       6.175   3.925  13.963  0.00  0.00    +0.000 A 
ATOM      4  C   UNL     1       7.198   4.837  14.111  0.00  0.00    +0.000 A 
ATOM      5  C   UNL     1       7.484   5.313  15.374  0.00  0.00    +0.000 A 
ATOM      6  C   UNL     1       6.717   4.844  16.453  0.00  0.00    +0.000 A 
ATOM      7  C   UNL     1       7.859   5.156  12.819  0.00  0.00    +0.000 C 
ATOM      8  C   UNL     1       7.111   4.268  11.809  0.00  0.00    +0.000 C 
ATOM      9  C   UNL     1       6.003   3.498  12.540  0.00  0.00    +0.000 C 
ENDROOT
BRANCH   6  10
ATOM     10  C   UNL     1       7.083   5.361  17.796  0.00  0.00    +0.000 C 
ATOM     11  N   UNL     1       7.433   6.678  17.897  0.00  0.00    +0.000 N 
ATOM     12  O   UNL     1       7.102   4.631  18.777  0.00  0.00    +0.000 OA
ATOM     13  H   UNL     1       7.598   7.249  17.072  0.00  0.00    +0.000 HD
ATOM     14  H   UNL     1       7.801   6.991  18.785  0.00  0.00    +0.000 HD
ENDBRANCH   6  10
BRANCH   1  15
ATOM     15  N   UNL     1       4.934   3.351  17.281  0.00  0.00    +0.000 N 
ATOM     16  H   UNL     1       5.049   2.337  17.305  0.00  0.00    +0.000 HD
BRANCH  15  17
ATOM     17  C   UNL     1       3.512   3.666  17.124  0.00  0.00    +0.000 C 
BRANCH  17  21
ATOM     18  C   UNL     1       1.483   2.757  21.655  0.00  0.00    +0.000 C 
ATOM     19  C   UNL     1       1.982   3.702  20.604  0.00  0.00    +0.000 A 
ATOM     20  C   UNL     1       2.521   3.223  19.412  0.00  0.00    +0.000 A 
ATOM     21  C   UNL     1       2.952   4.135  18.443  0.00  0.00    +0.000 A 
ATOM     22  C   UNL     1       2.825   5.500  18.711  0.00  0.00    +0.000 A 
ATOM     23  C   UNL     1       2.277   5.889  19.920  0.00  0.00    +0.000 A 
ATOM     24  N   UNL     1       1.856   5.024  20.867  0.00  0.00    +0.000 NA
ENDBRANCH  17  21
ENDBRANCH  15  17
ENDBRANCH   1  15
TORSDOF 4
ENDMDL
MODEL 3
REMARK VINA RESULT:      -7.6      2.248      3.359
REMARK  Name = 
REMARK  5 active torsions:
REMARK  status: ('A' for Active; 'I' for Inactive)
REMARK    1  A    between atoms: C_1  and  C_2
REMARK    2  A    between atoms: C_4  and  C_5
REMARK    3  A    between atoms: C_5  and  N_6
REMARK    4  A    between atoms: N_6  and  C_7
REMARK    5  A    between atoms: C_12  and  C_13
REMARK                            x       y       z     vdW  Elec       q    Type
REMARK                         _______ _______ _______ _____ _____    ______ ____
ROOT
ATOM      1  C   UNL     1       4.470   4.344  17.479  0.00  0.00    +0.000 A 
ATOM      2  N   UNL     1       4.198   5.641  17.189  0.00  0.00    +0.000 NA
ATOM      3  C   UNL     1       3.381   6.304  18.023  0.00  0.00    +0.000 A 
ATOM      4  C   UNL     1       2.792   5.760  19.144  0.00  0.00    +0.000 A 
ATOM      5  C   UNL     1       3.032   4.434  19.440  0.00  0.00    +0.000 A 
ATOM      6  C   UNL     1       3.867   3.698  18.583  0.00  0.00    +0.000 A 
ATOM      7  C   UNL     1       1.969   6.750  19.886  0.00  0.00    +0.000 C 
ATOM      8  C   UNL     1       2.152   8.044  19.072  0.00  0.00    +0.000 C 
ATOM      9  C   UNL     1       3.036   7.749  17.852  0.00  0.00    +0.000 C 
ENDROOT
BRANCH   6  10
ATOM     10  C   UNL     1       4.120   2.285  18.961  0.00  0.00    +0.000 C 
ATOM     11  N   UNL     1       4.946   2.050  20.025  0.00  0.00    +0.000 N 
ATOM     12  O   UNL     1       3.637   1.358  18.327  0.00  0.00    +0.000 OA
ATOM     13  H   UNL     1       5.496   2.793  20.445  0.00  0.00    +0.000 HD
ATOM     14  H   UNL     1       5.214   1.091  20.197  0.00  0.00    +0.000 HD
ENDBRANCH   6  10
BRANCH   1  15
ATOM     15  N   UNL     1       5.339   3.654  16.601  0.00  0.00    +0.000 N 
ATOM     16  H   UNL     1       5.666   2.806  17.064  0.00  0.00    +0.000 HD
BRANCH  15  17
ATOM     17  C   UNL     1       6.496   4.466  16.219  0.00  0.00    +0.000 C 
BRANCH  17  21
ATOM     18  C   UNL     1       5.396   2.535  11.688  0.00  0.00    +0.000 C 
ATOM     19  C   UNL     1       6.152   3.492  12.560  0.00  0.00    +0.000 A 
ATOM     20  C   UNL     1       5.932   3.527  13.936  0.00  0.00    +0.000 A 
ATOM     21  C   UNL     1       6.674   4.414  14.722  0.00  0.00    +0.000 A 
ATOM     22  C   UNL     1       7.613   5.236  14.094  0.00  0.00    +0.000 A 
ATOM     23  C   UNL     1       7.768   5.134  12.723  0.00  0.00    +0.000 A 
ATOM     24  N   UNL     1       7.061   4.285  11.947  0.00  0.00    +0.000 NA
ENDBRANCH  17  21
ENDBRANCH  15  17
ENDBRANCH   1  15
TORSDOF 4
ENDMDL
MODEL 4
REMARK VINA RESULT:      -7.5      0.553      1.605
REMARK  Name = 
REMARK  5 active torsions:
REMARK  status: ('A' for Active; 'I' for Inactive)
REMARK    1  A    between atoms: C_1  and  C_2
REMARK    2  A    between atoms: C_4  and  C_5
REMARK    3  A    between atoms: C_5  and  N_6
REMARK    4  A    between atoms: N_6  and  C_7
REMARK    5  A    between atoms: C_12  and  C_13
REMARK                            x       y       z     vdW  Elec       q    Type
REMARK                         _______ _______ _______ _____ _____    ______ ____
ROOT
ATOM      1  C   UNL     1       2.687   4.813  18.860  0.00  0.00    +0.000 A 
ATOM      2  N   UNL     1       2.684   6.077  18.367  0.00  0.00    +0.000 NA
ATOM      3  C   UNL     1       2.138   7.038  19.129  0.00  0.00    +0.000 A 
ATOM      4  C   UNL     1       1.573   6.831  20.369  0.00  0.00    +0.000 A 
ATOM      5  C   UNL     1       1.538   5.549  20.876  0.00  0.00    +0.000 A 
ATOM      6  C   UNL     1       2.082   4.510  20.102  0.00  0.00    +0.000 A 
ATOM      7  C   UNL     1       1.085   8.093  20.983  0.00  0.00    +0.000 C 
ATOM      8  C   UNL     1       1.462   9.163  19.943  0.00  0.00    +0.000 C 
ATOM      9  C   UNL     1       2.112   8.480  18.732  0.00  0.00    +0.000 C 
ENDROOT
BRANCH   6  10
ATOM     10  C   UNL     1       2.050   3.153  20.703  0.00  0.00    +0.000 C 
ATOM     11  N   UNL     1       2.287   3.046  22.045  0.00  0.00    +0.000 N 
ATOM     12  O   UNL     1       1.852   2.157  20.021  0.00  0.00    +0.000 OA
ATOM     13  H   UNL     1       2.630   3.833  22.589  0.00  0.00    +0.000 HD
ATOM     14  H   UNL     1       2.388   2.114  22.423  0.00  0.00    +0.000 HD
ENDBRANCH   6  10
BRANCH   1  15
ATOM     15  N   UNL     1       3.272   3.806  18.056  0.00  0.00    +0.000 N 
ATOM     16  H   UNL     1       2.763   2.934  18.201  0.00  0.00    +0.000 HD
BRANCH  15  17
ATOM     17  C   UNL     1       4.684   3.593  18.380  0.00  0.00    +0.000 C 
BRANCH  17  21
ATOM     18  C   UNL     1       6.462   4.116  13.685  0.00  0.00    +0.000 C 
ATOM     19  C   UNL     1       6.395   4.544  15.120  0.00  0.00    +0.000 A 
ATOM     20  C   UNL     1       5.562   3.886  16.022  0.00  0.00    +0.000 A 
ATOM     21  C   UNL     1       5.544   4.296  17.359  0.00  0.00    +0.000 A 
ATOM     22  C   UNL     1       6.369   5.357  17.741  0.00  0.00    +0.000 A 
ATOM     23  C   UNL     1       7.167   5.953  16.781  0.00  0.00    +0.000 A 
ATOM     24  N   UNL     1       7.196   5.572  15.486  0.00  0.00    +0.000 NA
ENDBRANCH  17  21
ENDBRANCH  15  17
ENDBRANCH   1  15
TORSDOF 4
ENDMDL
MODEL 5
REMARK VINA RESULT:      -7.4      2.186      6.752
REMARK  Name = 
REMARK  5 active torsions:
REMARK  status: ('A' for Active; 'I' for Inactive)
REMARK    1  A    between atoms: C_1  and  C_2
REMARK    2  A    between atoms: C_4  and  C_5
REMARK    3  A    between atoms: C_5  and  N_6
REMARK    4  A    between atoms: N_6  and  C_7
REMARK    5  A    between atoms: C_12  and  C_13
REMARK                            x       y       z     vdW  Elec       q    Type
REMARK                         _______ _______ _______ _____ _____    ______ ____
ROOT
ATOM      1  C   UNL     1       5.566   3.861  16.350  0.00  0.00    +0.000 A 
ATOM      2  N   UNL     1       5.336   3.448  15.079  0.00  0.00    +0.000 NA
ATOM      3  C   UNL     1       6.125   3.947  14.114  0.00  0.00    +0.000 A 
ATOM      4  C   UNL     1       7.144   4.852  14.321  0.00  0.00    +0.000 A 
ATOM      5  C   UNL     1       7.374   5.308  15.602  0.00  0.00    +0.000 A 
ATOM      6  C   UNL     1       6.559   4.825  16.639  0.00  0.00    +0.000 A 
ATOM      7  C   UNL     1       7.862   5.189  13.064  0.00  0.00    +0.000 C 
ATOM      8  C   UNL     1       7.157   4.320  12.008  0.00  0.00    +0.000 C 
ATOM      9  C   UNL     1       6.016   3.542  12.678  0.00  0.00    +0.000 C 
ENDROOT
BRANCH   6  10
ATOM     10  C   UNL     1       6.866   5.319  18.005  0.00  0.00    +0.000 C 
ATOM     11  N   UNL     1       7.438   6.556  18.120  0.00  0.00    +0.000 N 
ATOM     12  O   UNL     1       6.647   4.636  18.996  0.00  0.00    +0.000 OA
ATOM     13  H   UNL     1       7.791   7.056  17.309  0.00  0.00    +0.000 HD
ATOM     14  H   UNL     1       7.759   6.832  19.038  0.00  0.00    +0.000 HD
ENDBRANCH   6  10
BRANCH   1  15
ATOM     15  N   UNL     1       4.736   3.325  17.364  0.00  0.00    +0.000 N 
ATOM     16  H   UNL     1       4.981   2.345  17.504  0.00  0.00    +0.000 HD
BRANCH  15  17
ATOM     17  C   UNL     1       3.315   3.419  17.020  0.00  0.00    +0.000 C 
BRANCH  17  21
ATOM     18  C   UNL     1       1.727   6.491  20.697  0.00  0.00    +0.000 C 
ATOM     19  C   UNL     1       1.757   5.151  20.025  0.00  0.00    +0.000 A 
ATOM     20  C   UNL     1       2.487   4.957  18.854  0.00  0.00    +0.000 A 
ATOM     21  C   UNL     1       2.513   3.687  18.269  0.00  0.00    +0.000 A 
ATOM     22  C   UNL     1       1.802   2.655  18.886  0.00  0.00    +0.000 A 
ATOM     23  C   UNL     1       1.106   2.934  20.048  0.00  0.00    +0.000 A 
ATOM     24  N   UNL     1       1.068   4.154  20.627  0.00  0.00    +0.000 NA
ENDBRANCH  17  21
ENDBRANCH  15  17
ENDBRANCH   1  15
TORSDOF 4
ENDMDL
MODEL 6
REMARK VINA RESULT:      -7.4      2.945      7.038
REMARK  Name = 
REMARK  5 active torsions:
REMARK  status: ('A' for Active; 'I' for Inactive)
REMARK    1  A    between atoms: C_1  and  C_2
REMARK    2  A    between atoms: C_4  and  C_5
REMARK    3  A    between atoms: C_5  and  N_6
REMARK    4  A    between atoms: N_6  and  C_7
REMARK    5  A    between atoms: C_12  and  C_13
REMARK                            x       y       z     vdW  Elec       q    Type
REMARK                         _______ _______ _______ _____ _____    ______ ____
ROOT
ATOM      1  C   UNL     1       5.818   4.106  16.303  0.00  0.00    +0.000 A 
ATOM      2  N   UNL     1       5.410   3.633  15.099  0.00  0.00    +0.000 NA
ATOM      3  C   UNL     1       6.124   3.989  14.019  0.00  0.00    +0.000 A 
ATOM      4  C   UNL     1       7.234   4.806  14.045  0.00  0.00    +0.000 A 
ATOM      5  C   UNL     1       7.648   5.322  15.255  0.00  0.00    +0.000 A 
ATOM      6  C   UNL     1       6.917   4.990  16.408  0.00  0.00    +0.000 A 
ATOM      7  C   UNL     1       7.831   4.989  12.696  0.00  0.00    +0.000 C 
ATOM      8  C   UNL     1       6.938   4.121  11.792  0.00  0.00    +0.000 C 
ATOM      9  C   UNL     1       5.817   3.501  12.638  0.00  0.00    +0.000 C 
ENDROOT
BRANCH   6  10
ATOM     10  C   UNL     1       7.420   5.543  17.691  0.00  0.00    +0.000 C 
ATOM     11  N   UNL     1       7.519   6.902  17.802  0.00  0.00    +0.000 N 
ATOM     12  O   UNL     1       7.766   4.813  18.609  0.00  0.00    +0.000 OA
ATOM     13  H   UNL     1       7.411   7.510  16.995  0.00  0.00    +0.000 HD
ATOM     14  H   UNL     1       7.978   7.265  18.626  0.00  0.00    +0.000 HD
ENDBRANCH   6  10
BRANCH   1  15
ATOM     15  N   UNL     1       5.067   3.720  17.438  0.00  0.00    +0.000 N 
ATOM     16  H   UNL     1       4.647   2.808  17.258  0.00  0.00    +0.000 HD
BRANCH  15  17
ATOM     17  C   UNL     1       4.007   4.681  17.750  0.00  0.00    +0.000 C 
BRANCH  17  21
ATOM     18  C   UNL     1       2.018   2.836  22.006  0.00  0.00    +0.000 C 
ATOM     19  C   UNL     1       1.953   3.100  20.532  0.00  0.00    +0.000 A 
ATOM     20  C   UNL     1       2.984   3.778  19.883  0.00  0.00    +0.000 A 
ATOM     21  C   UNL     1       2.902   3.983  18.503  0.00  0.00    +0.000 A 
ATOM     22  C   UNL     1       1.782   3.498  17.823  0.00  0.00    +0.000 A 
ATOM     23  C   UNL     1       0.806   2.835  18.544  0.00  0.00    +0.000 A 
ATOM     24  N   UNL     1       0.867   2.627  19.878  0.00  0.00    +0.000 NA
ENDBRANCH  17  21
ENDBRANCH  15  17
ENDBRANCH   1  15
TORSDOF 4
ENDMDL
MODEL 7
REMARK VINA RESULT:      -7.4      3.009      5.282
REMARK  Name = 
REMARK  5 active torsions:
REMARK  status: ('A' for Active; 'I' for Inactive)
REMARK    1  A    between atoms: C_1  and  C_2
REMARK    2  A    between atoms: C_4  and  C_5
REMARK    3  A    between atoms: C_5  and  N_6
REMARK    4  A    between atoms: N_6  and  C_7
REMARK    5  A    between atoms: C_12  and  C_13
REMARK                            x       y       z     vdW  Elec       q    Type
REMARK                         _______ _______ _______ _____ _____    ______ ____
ROOT
ATOM      1  C   UNL     1       1.500   8.206  20.505  0.00  0.00    +0.000 A 
ATOM      2  N   UNL     1       0.994   8.320  21.759  0.00  0.00    +0.000 NA
ATOM      3  C   UNL     1       0.236   9.396  22.025  0.00  0.00    +0.000 A 
ATOM      4  C   UNL     1      -0.056  10.395  21.120  0.00  0.00    +0.000 A 
ATOM      5  C   UNL     1       0.473  10.313  19.850  0.00  0.00    +0.000 A 
ATOM      6  C   UNL     1       1.288   9.212  19.535  0.00  0.00    +0.000 A 
ATOM      7  C   UNL     1      -0.948  11.434  21.698  0.00  0.00    +0.000 C 
ATOM      8  C   UNL     1      -1.214  10.921  23.124  0.00  0.00    +0.000 C 
ATOM      9  C   UNL     1      -0.425   9.624  23.347  0.00  0.00    +0.000 C 
ENDROOT
BRANCH   6  10
ATOM     10  C   UNL     1       1.808   9.152  18.146  0.00  0.00    +0.000 C 
ATOM     11  N   UNL     1       1.972  10.332  17.476  0.00  0.00    +0.000 N 
ATOM     12  O   UNL     1       2.054   8.084  17.602  0.00  0.00    +0.000 OA
ATOM     13  H   UNL     1       1.604  11.206  17.842  0.00  0.00    +0.000 HD
ATOM     14  H   UNL     1       2.204  10.277  16.494  0.00  0.00    +0.000 HD
ENDBRANCH   6  10
BRANCH   1  15
ATOM     15  N   UNL     1       2.291   7.065  20.229  0.00  0.00    +0.000 N 
ATOM     16  H   UNL     1       2.430   7.000  19.221  0.00  0.00    +0.000 HD
BRANCH  15  17
ATOM     17  C   UNL     1       1.663   5.831  20.706  0.00  0.00    +0.000 C 
BRANCH  17  21
ATOM     18  C   UNL     1       4.162   3.853  16.791  0.00  0.00    +0.000 C 
ATOM     19  C   UNL     1       3.085   3.787  17.832  0.00  0.00    +0.000 A 
ATOM     20  C   UNL     1       2.927   4.813  18.761  0.00  0.00    +0.000 A 
ATOM     21  C   UNL     1       1.895   4.730  19.701  0.00  0.00    +0.000 A 
ATOM     22  C   UNL     1       1.057   3.613  19.672  0.00  0.00    +0.000 A 
ATOM     23  C   UNL     1       1.283   2.640  18.715  0.00  0.00    +0.000 A 
ATOM     24  N   UNL     1       2.275   2.703  17.799  0.00  0.00    +0.000 NA
ENDBRANCH  17  21
ENDBRANCH  15  17
ENDBRANCH   1  15
TORSDOF 4
ENDMDL
MODEL 8
REMARK VINA RESULT:      -7.4      2.100      6.094
REMARK  Name = 
REMARK  5 active torsions:
REMARK  status: ('A' for Active; 'I' for Inactive)
REMARK    1  A    between atoms: C_1  and  C_2
REMARK    2  A    between atoms: C_4  and  C_5
REMARK    3  A    between atoms: C_5  and  N_6
REMARK    4  A    between atoms: N_6  and  C_7
REMARK    5  A    between atoms: C_12  and  C_13
REMARK                            x       y       z     vdW  Elec       q    Type
REMARK                         _______ _______ _______ _____ _____    ______ ____
ROOT
ATOM      1  C   UNL     1       5.171   4.003  17.183  0.00  0.00    +0.000 A 
ATOM      2  N   UNL     1       4.907   3.659  15.898  0.00  0.00    +0.000 NA
ATOM      3  C   UNL     1       5.754   4.097  14.953  0.00  0.00    +0.000 A 
ATOM      4  C   UNL     1       6.864   4.878  15.193  0.00  0.00    +0.000 A 
ATOM      5  C   UNL     1       7.134   5.264  16.490  0.00  0.00    +0.000 A 
ATOM      6  C   UNL     1       6.262   4.843  17.507  0.00  0.00    +0.000 A 
ATOM      7  C   UNL     1       7.625   5.172  13.951  0.00  0.00    +0.000 C 
ATOM      8  C   UNL     1       6.837   4.420  12.865  0.00  0.00    +0.000 C 
ATOM      9  C   UNL     1       5.611   3.752  13.504  0.00  0.00    +0.000 C 
ENDROOT
BRANCH   6  10
ATOM     10  C   UNL     1       6.611   5.256  18.890  0.00  0.00    +0.000 C 
ATOM     11  N   UNL     1       7.937   5.326  19.217  0.00  0.00    +0.000 N 
ATOM     12  O   UNL     1       5.748   5.498  19.721  0.00  0.00    +0.000 OA
ATOM     13  H   UNL     1       8.657   4.956  18.601  0.00  0.00    +0.000 HD
ATOM     14  H   UNL     1       8.165   5.484  20.188  0.00  0.00    +0.000 HD
ENDBRANCH   6  10
BRANCH   1  15
ATOM     15  N   UNL     1       4.280   3.531  18.176  0.00  0.00    +0.000 N 
ATOM     16  H   UNL     1       4.358   2.516  18.231  0.00  0.00    +0.000 HD
BRANCH  15  17
ATOM     17  C   UNL     1       2.889   3.887  17.882  0.00  0.00    +0.000 C 
BRANCH  17  21
ATOM     18  C   UNL     1       2.348   8.905  17.893  0.00  0.00    +0.000 C 
ATOM     19  C   UNL     1       2.289   7.576  18.583  0.00  0.00    +0.000 A 
ATOM     20  C   UNL     1       2.584   6.401  17.893  0.00  0.00    +0.000 A 
ATOM     21  C   UNL     1       2.545   5.181  18.576  0.00  0.00    +0.000 A 
ATOM     22  C   UNL     1       2.209   5.188  19.932  0.00  0.00    +0.000 A 
ATOM     23  C   UNL     1       1.932   6.399  20.539  0.00  0.00    +0.000 A 
ATOM     24  N   UNL     1       1.964   7.587  19.896  0.00  0.00    +0.000 NA
ENDBRANCH  17  21
ENDBRANCH  15  17
ENDBRANCH   1  15
TORSDOF 4
ENDMDL
MODEL 9
REMARK VINA RESULT:      -7.3      2.925      4.592
REMARK  Name = 
REMARK  5 active torsions:
REMARK  status: ('A' for Active; 'I' for Inactive)
REMARK    1  A    between atoms: C_1  and  C_2
REMARK    2  A    between atoms: C_4  and  C_5
REMARK    3  A    between atoms: C_5  and  N_6
REMARK    4  A    between atoms: N_6  and  C_7
REMARK    5  A    between atoms: C_12  and  C_13
REMARK                            x       y       z     vdW  Elec       q    Type
REMARK                         _______ _______ _______ _____ _____    ______ ____
ROOT
ATOM      1  C   UNL     1       4.688   3.981  17.636  0.00  0.00    +0.000 A 
ATOM      2  N   UNL     1       3.516   3.298  17.619  0.00  0.00    +0.000 NA
ATOM      3  C   UNL     1       2.705   3.433  18.680  0.00  0.00    +0.000 A 
ATOM      4  C   UNL     1       2.981   4.208  19.787  0.00  0.00    +0.000 A 
ATOM      5  C   UNL     1       4.180   4.887  19.838  0.00  0.00    +0.000 A 
ATOM      6  C   UNL     1       5.067   4.758  18.756  0.00  0.00    +0.000 A 
ATOM      7  C   UNL     1       1.875   4.186  20.780  0.00  0.00    +0.000 C 
ATOM      8  C   UNL     1       0.816   3.290  20.113  0.00  0.00    +0.000 C 
ATOM      9  C   UNL     1       1.363   2.778  18.773  0.00  0.00    +0.000 C 
ENDROOT
BRANCH   6  10
ATOM     10  C   UNL     1       6.330   5.532  18.841  0.00  0.00    +0.000 C 
ATOM     11  N   UNL     1       7.263   5.129  19.756  0.00  0.00    +0.000 N 
ATOM     12  O   UNL     1       6.524   6.518  18.143  0.00  0.00    +0.000 OA
ATOM     13  H   UNL     1       7.047   4.432  20.463  0.00  0.00    +0.000 HD
ATOM     14  H   UNL     1       8.062   5.731  19.897  0.00  0.00    +0.000 HD
ENDBRANCH   6  10
BRANCH   1  15
ATOM     15  N   UNL     1       5.535   3.841  16.511  0.00  0.00    +0.000 N 
ATOM     16  H   UNL     1       6.502   3.811  16.831  0.00  0.00    +0.000 HD
BRANCH  15  17
ATOM     17  C   UNL     1       5.379   4.947  15.563  0.00  0.00    +0.000 C 
BRANCH  17  21
ATOM     18  C   UNL     1       5.537   2.127  11.380  0.00  0.00    +0.000 C 
ATOM     19  C   UNL     1       6.080   3.222  12.248  0.00  0.00    +0.000 A 
ATOM     20  C   UNL     1       5.453   3.560  13.446  0.00  0.00    +0.000 A 
ATOM     21  C   UNL     1       6.003   4.568  14.243  0.00  0.00    +0.000 A 
ATOM     22  C   UNL     1       7.168   5.202  13.805  0.00  0.00    +0.000 A 
ATOM     23  C   UNL     1       7.727   4.803  12.605  0.00  0.00    +0.000 A 
ATOM     24  N   UNL     1       7.210   3.832  11.821  0.00  0.00    +0.000 NA
ENDBRANCH  17  21
ENDBRANCH  15  17
ENDBRANCH   1  15
TORSDOF 4
ENDMDL
