MODEL 1
REMARK VINA RESULT:      -6.4      0.000      0.000
REMARK  Name = 
REMARK  13 active torsions:
REMARK  status: ('A' for Active; 'I' for Inactive)
REMARK    1  A    between atoms: C_1  and  O_2
REMARK    2  A    between atoms: O_2  and  C_3
REMARK    3  A    between atoms: C_3  and  C_4
REMARK    4  A    between atoms: C_3  and  C_5
REMARK    5  A    between atoms: C_5  and  N_6
REMARK    6  A    between atoms: C_5  and  C_15
REMARK    7  A    between atoms: C_7  and  CA_9
REMARK    8  A    between atoms: CA_9  and  N_10
REMARK    9  A    between atoms: CA_9  and  CB_11
REMARK   10  A    between atoms: CB_11  and  CG_12
REMARK   11  A    between atoms: CG_12  and  CD1_13
REMARK   12  A    between atoms: CG_12  and  CD2_14
REMARK   13  A    between atoms: C_15  and  O_17
REMARK                            x       y       z     vdW  Elec       q    Type
REMARK                         _______ _______ _______ _____ _____    ______ ____
ROOT
ATOM      1  N   UNK A   2       5.180   3.730  17.627  0.00  0.00    +0.000 N 
ATOM      2  C   LEU A   1       3.926   3.160  17.634  0.00  0.00    +0.000 C 
ATOM      3  O   LEU A   1       3.015   3.558  16.914  0.00  0.00    +0.000 OA
ATOM      4  H   UNK A   2       5.919   3.307  18.178  0.00  0.00    +0.000 HD
ENDROOT
BRANCH   1   5
ATOM      5  C   UNK A   2       5.528   4.808  16.698  0.00  0.00    +0.000 C 
BRANCH   5   6
ATOM      6  C   UNK A   2       5.651   6.188  17.394  0.00  0.00    +0.000 C 
ATOM      7  C   UNK A   2       4.314   6.929  17.386  0.00  0.00    +0.000 C 
BRANCH   6   9
ATOM      8  C   UNK A   2       7.569   7.621  17.601  0.00  0.00    +0.000 C 
ATOM      9  O   UNK A   2       6.673   6.955  16.712  0.00  0.00    +0.000 OA
ENDBRANCH   6   9
ENDBRANCH   5   6
BRANCH   5  10
ATOM     10  C   UNK A   2       6.804   4.381  15.963  0.00  0.00    +0.000 C 
ATOM     11  O   UNK A   2       6.835   4.107  14.770  0.00  0.00    +0.000 OA
BRANCH  10  12
ATOM     12  O   UNK A   2       7.868   4.146  16.769  0.00  0.00    +0.000 OA
ATOM     13  H   UNK A   2       7.744   3.337  17.323  0.00  0.00    +0.000 HD
ENDBRANCH  10  12
ENDBRANCH   5  10
ENDBRANCH   1   5
BRANCH   2  14
ATOM     14  CA  LEU A   1       3.738   2.095  18.738  0.00  0.00    +0.000 C 
BRANCH  14  15
ATOM     15  N   LEU A   1       4.789   2.330  19.757  0.00  0.00    +0.000 NA
ATOM     16  H1  LEU A   1       5.491   2.952  19.346  0.00  0.00    +0.000 HD
ATOM     17  H2  LEU A   1       5.280   1.455  19.936  0.00  0.00    +0.000 HD
ENDBRANCH  14  15
BRANCH  14  18
ATOM     18  CB  LEU A   1       2.363   2.177  19.418  0.00  0.00    +0.000 C 
BRANCH  18  19
ATOM     19  CG  LEU A   1       2.251   3.250  20.523  0.00  0.00    +0.000 C 
ATOM     20  CD1 LEU A   1       1.404   4.451  20.098  0.00  0.00    +0.000 C 
ATOM     21  CD2 LEU A   1       1.653   2.623  21.786  0.00  0.00    +0.000 C 
ENDBRANCH  18  19
ENDBRANCH  14  18
ENDBRANCH   2  14
TORSDOF 9
ENDMDL
MODEL 2
REMARK VINA RESULT:      -6.3      0.866      1.292
REMARK  Name = 
REMARK  13 active torsions:
REMARK  status: ('A' for Active; 'I' for Inactive)
REMARK    1  A    between atoms: C_1  and  O_2
REMARK    2  A    between atoms: O_2  and  C_3
REMARK    3  A    between atoms: C_3  and  C_4
REMARK    4  A    between atoms: C_3  and  C_5
REMARK    5  A    between atoms: C_5  and  N_6
REMARK    6  A    between atoms: C_5  and  C_15
REMARK    7  A    between atoms: C_7  and  CA_9
REMARK    8  A    between atoms: CA_9  and  N_10
REMARK    9  A    between atoms: CA_9  and  CB_11
REMARK   10  A    between atoms: CB_11  and  CG_12
REMARK   11  A    between atoms: CG_12  and  CD1_13
REMARK   12  A    between atoms: CG_12  and  CD2_14
REMARK   13  A    between atoms: C_15  and  O_17
REMARK                            x       y       z     vdW  Elec       q    Type
REMARK                         _______ _______ _______ _____ _____    ______ ____
ROOT
ATOM      1  N   UNK A   2       5.395   4.011  18.133  0.00  0.00    +0.000 N 
ATOM      2  C   LEU A   1       4.208   3.320  18.034  0.00  0.00    +0.000 C 
ATOM      3  O   LEU A   1       3.426   3.478  17.102  0.00  0.00    +0.000 OA
ATOM      4  H   UNK A   2       6.043   3.780  18.878  0.00  0.00    +0.000 HD
ENDROOT
BRANCH   1   5
ATOM      5  C   UNK A   2       5.835   4.934  17.083  0.00  0.00    +0.000 C 
BRANCH   5   6
ATOM      6  C   UNK A   2       5.753   6.421  17.513  0.00  0.00    +0.000 C 
ATOM      7  C   UNK A   2       4.353   6.987  17.271  0.00  0.00    +0.000 C 
BRANCH   6   9
ATOM      8  C   UNK A   2       7.644   7.902  17.608  0.00  0.00    +0.000 C 
ATOM      9  O   UNK A   2       6.749   7.168  16.773  0.00  0.00    +0.000 OA
ENDBRANCH   6   9
ENDBRANCH   5   6
BRANCH   5  10
ATOM     10  C   UNK A   2       7.243   4.500  16.658  0.00  0.00    +0.000 C 
ATOM     11  O   UNK A   2       8.111   4.157  17.451  0.00  0.00    +0.000 OA
BRANCH  10  12
ATOM     12  O   UNK A   2       7.524   4.701  15.347  0.00  0.00    +0.000 OA
ATOM     13  H   UNK A   2       8.491   4.825  15.188  0.00  0.00    +0.000 HD
ENDBRANCH  10  12
ENDBRANCH   5  10
ENDBRANCH   1   5
BRANCH   2  14
ATOM     14  CA  LEU A   1       3.889   2.459  19.278  0.00  0.00    +0.000 C 
BRANCH  14  15
ATOM     15  N   LEU A   1       5.185   1.998  19.834  0.00  0.00    +0.000 NA
ATOM     16  H1  LEU A   1       5.174   2.174  20.842  0.00  0.00    +0.000 HD
ATOM     17  H2  LEU A   1       5.932   2.588  19.468  0.00  0.00    +0.000 HD
ENDBRANCH  14  15
BRANCH  14  18
ATOM     18  CB  LEU A   1       3.134   3.238  20.365  0.00  0.00    +0.000 C 
BRANCH  18  19
ATOM     19  CG  LEU A   1       1.906   4.026  19.861  0.00  0.00    +0.000 C 
ATOM     20  CD1 LEU A   1       0.615   3.207  19.911  0.00  0.00    +0.000 C 
ATOM     21  CD2 LEU A   1       1.738   5.300  20.695  0.00  0.00    +0.000 C 
ENDBRANCH  18  19
ENDBRANCH  14  18
ENDBRANCH   2  14
TORSDOF 9
ENDMDL
MODEL 3
REMARK VINA RESULT:      -6.2      2.226      3.096
REMARK  Name = 
REMARK  13 active torsions:
REMARK  status: ('A' for Active; 'I' for Inactive)
REMARK    1  A    between atoms: C_1  and  O_2
REMARK    2  A    between atoms: O_2  and  C_3
REMARK    3  A    between atoms: C_3  and  C_4
REMARK    4  A    between atoms: C_3  and  C_5
REMARK    5  A    between atoms: C_5  and  N_6
REMARK    6  A    between atoms: C_5  and  C_15
REMARK    7  A    between atoms: C_7  and  CA_9
REMARK    8  A    between atoms: CA_9  and  N_10
REMARK    9  A    between atoms: CA_9  and  CB_11
REMARK   10  A    between atoms: CB_11  and  CG_12
REMARK   11  A    between atoms: CG_12  and  CD1_13
REMARK   12  A    between atoms: CG_12  and  CD2_14
REMARK   13  A    between atoms: C_15  and  O_17
REMARK                            x       y       z     vdW  Elec       q    Type
REMARK                         _______ _______ _______ _____ _____    ______ ____
ROOT
ATOM      1  N   UNK A   2       5.349   5.460  18.696  0.00  0.00    +0.000 N 
ATOM      2  C   LEU A   1       4.639   4.452  19.308  0.00  0.00    +0.000 C 
ATOM      3  O   LEU A   1       5.070   3.307  19.411  0.00  0.00    +0.000 OA
ATOM      4  H   UNK A   2       4.983   6.406  18.714  0.00  0.00    +0.000 HD
ENDROOT
BRANCH   1   5
ATOM      5  C   UNK A   2       6.707   5.245  18.190  0.00  0.00    +0.000 C 
BRANCH   5   6
ATOM      6  C   UNK A   2       6.927   5.844  16.777  0.00  0.00    +0.000 C 
ATOM      7  C   UNK A   2       5.608   6.329  16.174  0.00  0.00    +0.000 C 
BRANCH   6   9
ATOM      8  C   UNK A   2       6.655   4.303  14.953  0.00  0.00    +0.000 C 
ATOM      9  O   UNK A   2       7.539   4.832  15.940  0.00  0.00    +0.000 OA
ENDBRANCH   6   9
ENDBRANCH   5   6
BRANCH   5  10
ATOM     10  C   UNK A   2       7.677   5.795  19.242  0.00  0.00    +0.000 C 
ATOM     11  O   UNK A   2       7.769   5.343  20.377  0.00  0.00    +0.000 OA
BRANCH  10  12
ATOM     12  O   UNK A   2       8.302   6.945  18.888  0.00  0.00    +0.000 OA
ATOM     13  H   UNK A   2       8.498   6.978  17.920  0.00  0.00    +0.000 HD
ENDBRANCH  10  12
ENDBRANCH   5  10
ENDBRANCH   1   5
BRANCH   2  14
ATOM     14  CA  LEU A   1       3.200   4.860  19.701  0.00  0.00    +0.000 C 
BRANCH  14  15
ATOM     15  N   LEU A   1       3.216   6.320  19.963  0.00  0.00    +0.000 NA
ATOM     16  H1  LEU A   1       3.972   6.511  20.626  0.00  0.00    +0.000 HD
ATOM     17  H2  LEU A   1       2.360   6.579  20.452  0.00  0.00    +0.000 HD
ENDBRANCH  14  15
BRANCH  14  18
ATOM     18  CB  LEU A   1       2.175   4.567  18.596  0.00  0.00    +0.000 C 
BRANCH  18  19
ATOM     19  CG  LEU A   1       1.255   3.357  18.870  0.00  0.00    +0.000 C 
ATOM     20  CD1 LEU A   1       1.864   2.033  18.405  0.00  0.00    +0.000 C 
ATOM     21  CD2 LEU A   1       0.945   3.281  20.368  0.00  0.00    +0.000 C 
ENDBRANCH  18  19
ENDBRANCH  14  18
ENDBRANCH   2  14
TORSDOF 9
ENDMDL
MODEL 4
REMARK VINA RESULT:      -6.2      1.221      1.368
REMARK  Name = 
REMARK  13 active torsions:
REMARK  status: ('A' for Active; 'I' for Inactive)
REMARK    1  A    between atoms: C_1  and  O_2
REMARK    2  A    between atoms: O_2  and  C_3
REMARK    3  A    between atoms: C_3  and  C_4
REMARK    4  A    between atoms: C_3  and  C_5
REMARK    5  A    between atoms: C_5  and  N_6
REMARK    6  A    between atoms: C_5  and  C_15
REMARK    7  A    between atoms: C_7  and  CA_9
REMARK    8  A    between atoms: CA_9  and  N_10
REMARK    9  A    between atoms: CA_9  and  CB_11
REMARK   10  A    between atoms: CB_11  and  CG_12
REMARK   11  A    between atoms: CG_12  and  CD1_13
REMARK   12  A    between atoms: CG_12  and  CD2_14
REMARK   13  A    between atoms: C_15  and  O_17
REMARK                            x       y       z     vdW  Elec       q    Type
REMARK                         _______ _______ _______ _____ _____    ______ ____
ROOT
ATOM      1  N   UNK A   2       5.624   4.094  17.336  0.00  0.00    +0.000 N 
ATOM      2  C   LEU A   1       4.285   4.039  17.656  0.00  0.00    +0.000 C 
ATOM      3  O   LEU A   1       3.506   4.953  17.402  0.00  0.00    +0.000 OA
ATOM      4  H   UNK A   2       6.204   3.277  17.490  0.00  0.00    +0.000 HD
ENDROOT
BRANCH   1   5
ATOM      5  C   UNK A   2       6.191   5.228  16.602  0.00  0.00    +0.000 C 
BRANCH   5   6
ATOM      6  C   UNK A   2       7.460   5.811  17.277  0.00  0.00    +0.000 C 
ATOM      7  C   UNK A   2       7.286   5.894  18.794  0.00  0.00    +0.000 C 
BRANCH   6   9
ATOM      8  C   UNK A   2       7.778   8.157  17.691  0.00  0.00    +0.000 C 
ATOM      9  O   UNK A   2       7.719   7.119  16.713  0.00  0.00    +0.000 OA
ENDBRANCH   6   9
ENDBRANCH   5   6
BRANCH   5  10
ATOM     10  C   UNK A   2       6.428   4.764  15.160  0.00  0.00    +0.000 C 
ATOM     11  O   UNK A   2       5.726   3.935  14.595  0.00  0.00    +0.000 OA
BRANCH  10  12
ATOM     12  O   UNK A   2       7.588   5.200  14.610  0.00  0.00    +0.000 OA
ATOM     13  H   UNK A   2       7.746   4.809  13.717  0.00  0.00    +0.000 HD
ENDBRANCH  10  12
ENDBRANCH   5  10
ENDBRANCH   1   5
BRANCH   2  14
ATOM     14  CA  LEU A   1       3.902   2.799  18.496  0.00  0.00    +0.000 C 
BRANCH  14  15
ATOM     15  N   LEU A   1       4.942   2.641  19.542  0.00  0.00    +0.000 NA
ATOM     16  H1  LEU A   1       4.678   1.846  20.129  0.00  0.00    +0.000 HD
ATOM     17  H2  LEU A   1       4.915   3.451  20.161  0.00  0.00    +0.000 HD
ENDBRANCH  14  15
BRANCH  14  18
ATOM     18  CB  LEU A   1       2.533   2.942  19.178  0.00  0.00    +0.000 C 
BRANCH  18  19
ATOM     19  CG  LEU A   1       2.578   3.543  20.600  0.00  0.00    +0.000 C 
ATOM     20  CD1 LEU A   1       1.990   4.954  20.666  0.00  0.00    +0.000 C 
ATOM     21  CD2 LEU A   1       1.821   2.627  21.566  0.00  0.00    +0.000 C 
ENDBRANCH  18  19
ENDBRANCH  14  18
ENDBRANCH   2  14
TORSDOF 9
ENDMDL
MODEL 5
REMARK VINA RESULT:      -6.2      2.351      5.635
REMARK  Name = 
REMARK  13 active torsions:
REMARK  status: ('A' for Active; 'I' for Inactive)
REMARK    1  A    between atoms: C_1  and  O_2
REMARK    2  A    between atoms: O_2  and  C_3
REMARK    3  A    between atoms: C_3  and  C_4
REMARK    4  A    between atoms: C_3  and  C_5
REMARK    5  A    between atoms: C_5  and  N_6
REMARK    6  A    between atoms: C_5  and  C_15
REMARK    7  A    between atoms: C_7  and  CA_9
REMARK    8  A    between atoms: CA_9  and  N_10
REMARK    9  A    between atoms: CA_9  and  CB_11
REMARK   10  A    between atoms: CB_11  and  CG_12
REMARK   11  A    between atoms: CG_12  and  CD1_13
REMARK   12  A    between atoms: CG_12  and  CD2_14
REMARK   13  A    between atoms: C_15  and  O_17
REMARK                            x       y       z     vdW  Elec       q    Type
REMARK                         _______ _______ _______ _____ _____    ______ ____
ROOT
ATOM      1  N   UNK A   2       5.071   3.479  17.949  0.00  0.00    +0.000 N 
ATOM      2  C   LEU A   1       5.962   4.471  18.293  0.00  0.00    +0.000 C 
ATOM      3  O   LEU A   1       5.828   5.162  19.299  0.00  0.00    +0.000 OA
ATOM      4  H   UNK A   2       5.275   2.883  17.155  0.00  0.00    +0.000 HD
ENDROOT
BRANCH   1   5
ATOM      5  C   UNK A   2       3.937   3.135  18.810  0.00  0.00    +0.000 C 
BRANCH   5   6
ATOM      6  C   UNK A   2       2.597   3.039  18.035  0.00  0.00    +0.000 C 
ATOM      7  C   UNK A   2       2.030   4.429  17.743  0.00  0.00    +0.000 C 
BRANCH   6   9
ATOM      8  C   UNK A   2       0.848   3.041  19.682  0.00  0.00    +0.000 C 
ATOM      9  O   UNK A   2       1.668   2.253  18.820  0.00  0.00    +0.000 OA
ENDBRANCH   6   9
ENDBRANCH   5   6
BRANCH   5  10
ATOM     10  C   UNK A   2       4.304   1.844  19.553  0.00  0.00    +0.000 C 
ATOM     11  O   UNK A   2       4.830   1.829  20.658  0.00  0.00    +0.000 OA
BRANCH  10  12
ATOM     12  O   UNK A   2       4.175   0.714  18.816  0.00  0.00    +0.000 OA
ATOM     13  H   UNK A   2       4.990   0.515  18.294  0.00  0.00    +0.000 HD
ENDBRANCH  10  12
ENDBRANCH   5  10
ENDBRANCH   1   5
BRANCH   2  14
ATOM     14  CA  LEU A   1       7.041   4.732  17.217  0.00  0.00    +0.000 C 
BRANCH  14  15
ATOM     15  N   LEU A   1       8.326   4.219  17.753  0.00  0.00    +0.000 NA
ATOM     16  H1  LEU A   1       9.085   4.672  17.235  0.00  0.00    +0.000 HD
ATOM     17  H2  LEU A   1       8.406   3.227  17.530  0.00  0.00    +0.000 HD
ENDBRANCH  14  15
BRANCH  14  18
ATOM     18  CB  LEU A   1       6.741   4.023  15.888  0.00  0.00    +0.000 C 
BRANCH  18  19
ATOM     19  CG  LEU A   1       6.281   4.955  14.746  0.00  0.00    +0.000 C 
ATOM     20  CD1 LEU A   1       5.635   4.196  13.586  0.00  0.00    +0.000 C 
ATOM     21  CD2 LEU A   1       5.292   5.987  15.297  0.00  0.00    +0.000 C 
ENDBRANCH  18  19
ENDBRANCH  14  18
ENDBRANCH   2  14
TORSDOF 9
ENDMDL
MODEL 6
REMARK VINA RESULT:      -6.0      2.461      5.774
REMARK  Name = 
REMARK  13 active torsions:
REMARK  status: ('A' for Active; 'I' for Inactive)
REMARK    1  A    between atoms: C_1  and  O_2
REMARK    2  A    between atoms: O_2  and  C_3
REMARK    3  A    between atoms: C_3  and  C_4
REMARK    4  A    between atoms: C_3  and  C_5
REMARK    5  A    between atoms: C_5  and  N_6
REMARK    6  A    between atoms: C_5  and  C_15
REMARK    7  A    between atoms: C_7  and  CA_9
REMARK    8  A    between atoms: CA_9  and  N_10
REMARK    9  A    between atoms: CA_9  and  CB_11
REMARK   10  A    between atoms: CB_11  and  CG_12
REMARK   11  A    between atoms: CG_12  and  CD1_13
REMARK   12  A    between atoms: CG_12  and  CD2_14
REMARK   13  A    between atoms: C_15  and  O_17
REMARK                            x       y       z     vdW  Elec       q    Type
REMARK                         _______ _______ _______ _____ _____    ______ ____
ROOT
ATOM      1  N   UNK A   2       5.212   3.367  18.777  0.00  0.00    +0.000 N 
ATOM      2  C   LEU A   1       6.022   4.477  18.680  0.00  0.00    +0.000 C 
ATOM      3  O   LEU A   1       6.128   5.299  19.586  0.00  0.00    +0.000 OA
ATOM      4  H   UNK A   2       5.228   2.676  18.035  0.00  0.00    +0.000 HD
ENDROOT
BRANCH   1   5
ATOM      5  C   UNK A   2       4.476   3.058  20.005  0.00  0.00    +0.000 C 
BRANCH   5   6
ATOM      6  C   UNK A   2       2.950   3.302  19.872  0.00  0.00    +0.000 C 
ATOM      7  C   UNK A   2       2.204   2.802  21.110  0.00  0.00    +0.000 C 
BRANCH   6   9
ATOM      8  C   UNK A   2       1.138   2.160  18.782  0.00  0.00    +0.000 C 
ATOM      9  O   UNK A   2       2.481   2.631  18.678  0.00  0.00    +0.000 OA
ENDBRANCH   6   9
ENDBRANCH   5   6
BRANCH   5  10
ATOM     10  C   UNK A   2       4.830   1.619  20.398  0.00  0.00    +0.000 C 
ATOM     11  O   UNK A   2       5.398   1.326  21.443  0.00  0.00    +0.000 OA
BRANCH  10  12
ATOM     12  O   UNK A   2       4.635   0.702  19.419  0.00  0.00    +0.000 OA
ATOM     13  H   UNK A   2       4.942   1.028  18.538  0.00  0.00    +0.000 HD
ENDBRANCH  10  12
ENDBRANCH   5  10
ENDBRANCH   1   5
BRANCH   2  14
ATOM     14  CA  LEU A   1       6.648   4.664  17.279  0.00  0.00    +0.000 C 
BRANCH  14  15
ATOM     15  N   LEU A   1       8.067   4.242  17.374  0.00  0.00    +0.000 NA
ATOM     16  H1  LEU A   1       8.231   3.905  18.327  0.00  0.00    +0.000 HD
ATOM     17  H2  LEU A   1       8.664   5.062  17.275  0.00  0.00    +0.000 HD
ENDBRANCH  14  15
BRANCH  14  18
ATOM     18  CB  LEU A   1       5.953   3.824  16.199  0.00  0.00    +0.000 C 
BRANCH  18  19
ATOM     19  CG  LEU A   1       5.485   4.620  14.961  0.00  0.00    +0.000 C 
ATOM     20  CD1 LEU A   1       5.353   6.119  15.235  0.00  0.00    +0.000 C 
ATOM     21  CD2 LEU A   1       6.467   4.394  13.807  0.00  0.00    +0.000 C 
ENDBRANCH  18  19
ENDBRANCH  14  18
ENDBRANCH   2  14
TORSDOF 9
ENDMDL
MODEL 7
REMARK VINA RESULT:      -6.0      1.116      1.459
REMARK  Name = 
REMARK  13 active torsions:
REMARK  status: ('A' for Active; 'I' for Inactive)
REMARK    1  A    between atoms: C_1  and  O_2
REMARK    2  A    between atoms: O_2  and  C_3
REMARK    3  A    between atoms: C_3  and  C_4
REMARK    4  A    between atoms: C_3  and  C_5
REMARK    5  A    between atoms: C_5  and  N_6
REMARK    6  A    between atoms: C_5  and  C_15
REMARK    7  A    between atoms: C_7  and  CA_9
REMARK    8  A    between atoms: CA_9  and  N_10
REMARK    9  A    between atoms: CA_9  and  CB_11
REMARK   10  A    between atoms: CB_11  and  CG_12
REMARK   11  A    between atoms: CG_12  and  CD1_13
REMARK   12  A    between atoms: CG_12  and  CD2_14
REMARK   13  A    between atoms: C_15  and  O_17
REMARK                            x       y       z     vdW  Elec       q    Type
REMARK                         _______ _______ _______ _____ _____    ______ ____
ROOT
ATOM      1  N   UNK A   2       5.181   3.535  17.916  0.00  0.00    +0.000 N 
ATOM      2  C   LEU A   1       3.935   2.994  17.689  0.00  0.00    +0.000 C 
ATOM      3  O   LEU A   1       3.128   3.495  16.912  0.00  0.00    +0.000 OA
ATOM      4  H   UNK A   2       5.839   3.034  18.502  0.00  0.00    +0.000 HD
ENDROOT
BRANCH   1   5
ATOM      5  C   UNK A   2       5.652   4.712  17.181  0.00  0.00    +0.000 C 
BRANCH   5   6
ATOM      6  C   UNK A   2       5.262   6.047  17.865  0.00  0.00    +0.000 C 
ATOM      7  C   UNK A   2       4.729   5.805  19.278  0.00  0.00    +0.000 C 
BRANCH   6   9
ATOM      8  C   UNK A   2       3.279   7.405  17.800  0.00  0.00    +0.000 C 
ATOM      9  O   UNK A   2       4.270   6.710  17.043  0.00  0.00    +0.000 OA
ENDBRANCH   6   9
ENDBRANCH   5   6
BRANCH   5  10
ATOM     10  C   UNK A   2       7.164   4.549  16.983  0.00  0.00    +0.000 C 
ATOM     11  O   UNK A   2       7.701   4.527  15.882  0.00  0.00    +0.000 OA
BRANCH  10  12
ATOM     12  O   UNK A   2       7.851   4.242  18.110  0.00  0.00    +0.000 OA
ATOM     13  H   UNK A   2       8.207   5.047  18.559  0.00  0.00    +0.000 HD
ENDBRANCH  10  12
ENDBRANCH   5  10
ENDBRANCH   1   5
BRANCH   2  14
ATOM     14  CA  LEU A   1       3.599   1.805  18.618  0.00  0.00    +0.000 C 
BRANCH  14  15
ATOM     15  N   LEU A   1       4.663   1.742  19.650  0.00  0.00    +0.000 NA
ATOM     16  H1  LEU A   1       4.213   1.589  20.556  0.00  0.00    +0.000 HD
ATOM     17  H2  LEU A   1       5.107   2.657  19.724  0.00  0.00    +0.000 HD
ENDBRANCH  14  15
BRANCH  14  18
ATOM     18  CB  LEU A   1       2.241   1.961  19.318  0.00  0.00    +0.000 C 
BRANCH  18  19
ATOM     19  CG  LEU A   1       2.169   3.115  20.342  0.00  0.00    +0.000 C 
ATOM     20  CD1 LEU A   1       1.245   4.248  19.895  0.00  0.00    +0.000 C 
ATOM     21  CD2 LEU A   1       1.695   2.570  21.693  0.00  0.00    +0.000 C 
ENDBRANCH  18  19
ENDBRANCH  14  18
ENDBRANCH   2  14
TORSDOF 9
ENDMDL
MODEL 8
REMARK VINA RESULT:      -6.0      2.702      6.057
REMARK  Name = 
REMARK  13 active torsions:
REMARK  status: ('A' for Active; 'I' for Inactive)
REMARK    1  A    between atoms: C_1  and  O_2
REMARK    2  A    between atoms: O_2  and  C_3
REMARK    3  A    between atoms: C_3  and  C_4
REMARK    4  A    between atoms: C_3  and  C_5
REMARK    5  A    between atoms: C_5  and  N_6
REMARK    6  A    between atoms: C_5  and  C_15
REMARK    7  A    between atoms: C_7  and  CA_9
REMARK    8  A    between atoms: CA_9  and  N_10
REMARK    9  A    between atoms: CA_9  and  CB_11
REMARK   10  A    between atoms: CB_11  and  CG_12
REMARK   11  A    between atoms: CG_12  and  CD1_13
REMARK   12  A    between atoms: CG_12  and  CD2_14
REMARK   13  A    between atoms: C_15  and  O_17
REMARK                            x       y       z     vdW  Elec       q    Type
REMARK                         _______ _______ _______ _____ _____    ______ ____
ROOT
ATOM      1  N   UNK A   2       4.918   4.436  16.263  0.00  0.00    +0.000 N 
ATOM      2  C   LEU A   1       5.460   5.500  15.576  0.00  0.00    +0.000 C 
ATOM      3  O   LEU A   1       5.167   6.666  15.825  0.00  0.00    +0.000 OA
ATOM      4  H   UNK A   2       5.260   3.500  16.075  0.00  0.00    +0.000 HD
ENDROOT
BRANCH   1   5
ATOM      5  C   UNK A   2       4.006   4.635  17.391  0.00  0.00    +0.000 C 
BRANCH   5   6
ATOM      6  C   UNK A   2       2.838   3.615  17.410  0.00  0.00    +0.000 C 
ATOM      7  C   UNK A   2       1.517   4.298  17.769  0.00  0.00    +0.000 C 
BRANCH   6   9
ATOM      8  C   UNK A   2       2.005   1.987  18.970  0.00  0.00    +0.000 C 
ATOM      9  O   UNK A   2       3.157   2.571  18.362  0.00  0.00    +0.000 OA
ENDBRANCH   6   9
ENDBRANCH   5   6
BRANCH   5  10
ATOM     10  C   UNK A   2       4.852   4.615  18.670  0.00  0.00    +0.000 C 
ATOM     11  O   UNK A   2       4.823   5.504  19.511  0.00  0.00    +0.000 OA
BRANCH  10  12
ATOM     12  O   UNK A   2       5.780   3.628  18.717  0.00  0.00    +0.000 OA
ATOM     13  H   UNK A   2       5.512   2.894  19.321  0.00  0.00    +0.000 HD
ENDBRANCH  10  12
ENDBRANCH   5  10
ENDBRANCH   1   5
BRANCH   2  14
ATOM     14  CA  LEU A   1       6.336   5.079  14.374  0.00  0.00    +0.000 C 
BRANCH  14  15
ATOM     15  N   LEU A   1       7.747   5.336  14.750  0.00  0.00    +0.000 NA
ATOM     16  H1  LEU A   1       7.747   5.928  15.585  0.00  0.00    +0.000 HD
ATOM     17  H2  LEU A   1       8.186   5.900  14.023  0.00  0.00    +0.000 HD
ENDBRANCH  14  15
BRANCH  14  18
ATOM     18  CB  LEU A   1       6.182   3.594  14.017  0.00  0.00    +0.000 C 
BRANCH  18  19
ATOM     19  CG  LEU A   1       6.119   3.295  12.503  0.00  0.00    +0.000 C 
ATOM     20  CD1 LEU A   1       4.727   3.519  11.911  0.00  0.00    +0.000 C 
ATOM     21  CD2 LEU A   1       7.136   4.173  11.767  0.00  0.00    +0.000 C 
ENDBRANCH  18  19
ENDBRANCH  14  18
ENDBRANCH   2  14
TORSDOF 9
ENDMDL
MODEL 9
REMARK VINA RESULT:      -6.0      2.592      5.625
REMARK  Name = 
REMARK  13 active torsions:
REMARK  status: ('A' for Active; 'I' for Inactive)
REMARK    1  A    between atoms: C_1  and  O_2
REMARK    2  A    between atoms: O_2  and  C_3
REMARK    3  A    between atoms: C_3  and  C_4
REMARK    4  A    between atoms: C_3  and  C_5
REMARK    5  A    between atoms: C_5  and  N_6
REMARK    6  A    between atoms: C_5  and  C_15
REMARK    7  A    between atoms: C_7  and  CA_9
REMARK    8  A    between atoms: CA_9  and  N_10
REMARK    9  A    between atoms: CA_9  and  CB_11
REMARK   10  A    between atoms: CB_11  and  CG_12
REMARK   11  A    between atoms: CG_12  and  CD1_13
REMARK   12  A    between atoms: CG_12  and  CD2_14
REMARK   13  A    between atoms: C_15  and  O_17
REMARK                            x       y       z     vdW  Elec       q    Type
REMARK                         _______ _______ _______ _____ _____    ______ ____
ROOT
ATOM      1  N   UNK A   2       5.360   3.481  18.737  0.00  0.00    +0.000 N 
ATOM      2  C   LEU A   1       5.561   4.827  18.947  0.00  0.00    +0.000 C 
ATOM      3  O   LEU A   1       4.764   5.526  19.565  0.00  0.00    +0.000 OA
ATOM      4  H   UNK A   2       6.091   2.934  18.295  0.00  0.00    +0.000 HD
ENDROOT
BRANCH   1   5
ATOM      5  C   UNK A   2       4.207   2.779  19.307  0.00  0.00    +0.000 C 
BRANCH   5   6
ATOM      6  C   UNK A   2       3.163   2.366  18.238  0.00  0.00    +0.000 C 
ATOM      7  C   UNK A   2       2.683   3.580  17.441  0.00  0.00    +0.000 C 
BRANCH   6   9
ATOM      8  C   UNK A   2       0.843   2.463  18.858  0.00  0.00    +0.000 C 
ATOM      9  O   UNK A   2       2.056   1.713  18.906  0.00  0.00    +0.000 OA
ENDBRANCH   6   9
ENDBRANCH   5   6
BRANCH   5  10
ATOM     10  C   UNK A   2       4.750   1.595  20.117  0.00  0.00    +0.000 C 
ATOM     11  O   UNK A   2       5.174   1.699  21.261  0.00  0.00    +0.000 OA
BRANCH  10  12
ATOM     12  O   UNK A   2       4.902   0.449  19.408  0.00  0.00    +0.000 OA
ATOM     13  H   UNK A   2       4.850  -0.353  19.982  0.00  0.00    +0.000 HD
ENDBRANCH  10  12
ENDBRANCH   5  10
ENDBRANCH   1   5
BRANCH   2  14
ATOM     14  CA  LEU A   1       6.790   5.392  18.199  0.00  0.00    +0.000 C 
BRANCH  14  15
ATOM     15  N   LEU A   1       7.958   5.242  19.101  0.00  0.00    +0.000 NA
ATOM     16  H1  LEU A   1       8.700   4.770  18.577  0.00  0.00    +0.000 HD
ATOM     17  H2  LEU A   1       7.714   4.600  19.855  0.00  0.00    +0.000 HD
ENDBRANCH  14  15
BRANCH  14  18
ATOM     18  CB  LEU A   1       7.081   4.651  16.886  0.00  0.00    +0.000 C 
BRANCH  18  19
ATOM     19  CG  LEU A   1       5.973   4.771  15.816  0.00  0.00    +0.000 C 
ATOM     20  CD1 LEU A   1       5.352   6.168  15.759  0.00  0.00    +0.000 C 
ATOM     21  CD2 LEU A   1       6.548   4.410  14.443  0.00  0.00    +0.000 C 
ENDBRANCH  18  19
ENDBRANCH  14  18
ENDBRANCH   2  14
TORSDOF 9
ENDMDL
