MODEL 1
REMARK VINA RESULT:      -7.9      0.000      0.000
REMARK  Name = 
REMARK  2 active torsions:
REMARK  status: ('A' for Active; 'I' for Inactive)
REMARK    1  A    between atoms: N_20  and  C_21
REMARK    2  A    between atoms: C_21  and  C_22
REMARK                            x       y       z     vdW  Elec       q    Type
REMARK                         _______ _______ _______ _____ _____    ______ ____
ROOT
ATOM      1  O   UNL     1       1.382   4.616  19.913  0.00  0.00    +0.000 OA
ATOM      2  C   UNL     1       2.065   5.115  19.031  0.00  0.00    +0.000 C 
ATOM      3  C   UNL     1       2.610   4.355  17.839  0.00  0.00    +0.000 C 
ATOM      4  C   UNL     1       3.136   2.983  18.183  0.00  0.00    +0.000 C 
ATOM      5  S   UNL     1       4.845   2.911  17.628  0.00  0.00    +0.000 S 
ATOM      6  C   UNL     1       4.935   4.706  17.063  0.00  0.00    +0.000 C 
ATOM      7  C   UNL     1       6.217   5.287  17.784  0.00  0.00    +0.000 C 
ATOM      8  O   UNL     1       6.350   5.555  18.966  0.00  0.00    +0.000 OA
ATOM      9  N   UNL     1       7.223   5.352  16.819  0.00  0.00    +0.000 N 
ATOM     10  C   UNL     1       6.758   4.957  15.567  0.00  0.00    +0.000 A 
ATOM     11  C   UNL     1       7.524   4.771  14.432  0.00  0.00    +0.000 A 
ATOM     12  C   UNL     1       6.881   4.267  13.300  0.00  0.00    +0.000 A 
ATOM     13  C   UNL     1       5.501   3.995  13.327  0.00  0.00    +0.000 A 
ATOM     14 BR   UNL     1       4.679   3.253  11.793  0.00  0.00    +0.000 Br
ATOM     15  C   UNL     1       4.738   4.203  14.483  0.00  0.00    +0.000 A 
ATOM     16  C   UNL     1       5.385   4.666  15.619  0.00  0.00    +0.000 A 
ATOM     17  N   UNL     1       3.633   5.263  17.382  0.00  0.00    +0.000 N 
ATOM     18  C   UNL     1       3.492   6.506  18.006  0.00  0.00    +0.000 C 
ATOM     19  O   UNL     1       4.236   7.459  17.833  0.00  0.00    +0.000 OA
ATOM     20  N   UNL     1       2.466   6.420  18.925  0.00  0.00    +0.000 N 
ATOM     21  H   UNL     1       8.171   5.616  17.037  0.00  0.00    +0.000 HD
ENDROOT
BRANCH  20  22
ATOM     22  C   UNL     1       2.276   7.371  20.008  0.00  0.00    +0.000 C 
BRANCH  22  23
ATOM     23  C   UNL     1       1.369   8.550  19.701  0.00  0.00    +0.000 A 
ATOM     24  C   UNL     1       1.255   9.066  18.398  0.00  0.00    +0.000 A 
ATOM     25  C   UNL     1       0.331  10.077  18.103  0.00  0.00    +0.000 A 
ATOM     26  C   UNL     1      -0.491  10.584  19.105  0.00  0.00    +0.000 A 
ATOM     27  C   UNL     1      -0.384  10.091  20.403  0.00  0.00    +0.000 A 
ATOM     28  C   UNL     1       0.544   9.088  20.701  0.00  0.00    +0.000 A 
ENDBRANCH  22  23
ENDBRANCH  20  22
TORSDOF 2
ENDMDL
MODEL 2
REMARK VINA RESULT:      -7.7      4.516      8.556
REMARK  Name = 
REMARK  2 active torsions:
REMARK  status: ('A' for Active; 'I' for Inactive)
REMARK    1  A    between atoms: N_20  and  C_21
REMARK    2  A    between atoms: C_21  and  C_22
REMARK                            x       y       z     vdW  Elec       q    Type
REMARK                         _______ _______ _______ _____ _____    ______ ____
ROOT
ATOM      1  O   UNL     1       1.533   6.597  20.848  0.00  0.00    +0.000 OA
ATOM      2  C   UNL     1       1.723   7.648  20.255  0.00  0.00    +0.000 C 
ATOM      3  C   UNL     1       1.437   9.020  20.833  0.00  0.00    +0.000 C 
ATOM      4  C   UNL     1       0.146   9.094  21.610  0.00  0.00    +0.000 C 
ATOM      5  S   UNL     1      -0.847  10.400  20.873  0.00  0.00    +0.000 S 
ATOM      6  C   UNL     1       0.349  10.774  19.466  0.00  0.00    +0.000 C 
ATOM      7  C   UNL     1      -0.539  10.701  18.159  0.00  0.00    +0.000 C 
ATOM      8  O   UNL     1      -1.000   9.706  17.626  0.00  0.00    +0.000 OA
ATOM      9  N   UNL     1      -0.782  12.018  17.767  0.00  0.00    +0.000 N 
ATOM     10  C   UNL     1      -0.129  12.927  18.595  0.00  0.00    +0.000 A 
ATOM     11  C   UNL     1      -0.271  14.302  18.572  0.00  0.00    +0.000 A 
ATOM     12  C   UNL     1       0.392  15.032  19.560  0.00  0.00    +0.000 A 
ATOM     13  C   UNL     1       1.194  14.375  20.513  0.00  0.00    +0.000 A 
ATOM     14 BR   UNL     1       2.025  15.394  21.873  0.00  0.00    +0.000 Br
ATOM     15  C   UNL     1       1.337  12.982  20.512  0.00  0.00    +0.000 A 
ATOM     16  C   UNL     1       0.645  12.255  19.554  0.00  0.00    +0.000 A 
ATOM     17  N   UNL     1       1.434   9.824  19.636  0.00  0.00    +0.000 N 
ATOM     18  C   UNL     1       1.958   9.098  18.563  0.00  0.00    +0.000 C 
ATOM     19  O   UNL     1       2.050   9.517  17.419  0.00  0.00    +0.000 OA
ATOM     20  N   UNL     1       2.224   7.814  18.992  0.00  0.00    +0.000 N 
ATOM     21  H   UNL     1      -1.392  12.254  17.001  0.00  0.00    +0.000 HD
ENDROOT
BRANCH  20  22
ATOM     22  C   UNL     1       2.417   6.689  18.090  0.00  0.00    +0.000 C 
BRANCH  22  23
ATOM     23  C   UNL     1       3.855   6.247  17.883  0.00  0.00    +0.000 A 
ATOM     24  C   UNL     1       4.615   6.712  16.796  0.00  0.00    +0.000 A 
ATOM     25  C   UNL     1       5.974   6.390  16.679  0.00  0.00    +0.000 A 
ATOM     26  C   UNL     1       6.589   5.601  17.645  0.00  0.00    +0.000 A 
ATOM     27  C   UNL     1       5.848   5.124  18.723  0.00  0.00    +0.000 A 
ATOM     28  C   UNL     1       4.489   5.437  18.838  0.00  0.00    +0.000 A 
ENDBRANCH  22  23
ENDBRANCH  20  22
TORSDOF 2
ENDMDL
MODEL 3
REMARK VINA RESULT:      -7.6      0.761      1.201
REMARK  Name = 
REMARK  2 active torsions:
REMARK  status: ('A' for Active; 'I' for Inactive)
REMARK    1  A    between atoms: N_20  and  C_21
REMARK    2  A    between atoms: C_21  and  C_22
REMARK                            x       y       z     vdW  Elec       q    Type
REMARK                         _______ _______ _______ _____ _____    ______ ____
ROOT
ATOM      1  O   UNL     1       0.880   4.210  20.110  0.00  0.00    +0.000 OA
ATOM      2  C   UNL     1       1.668   4.763  19.358  0.00  0.00    +0.000 C 
ATOM      3  C   UNL     1       2.268   4.119  18.124  0.00  0.00    +0.000 C 
ATOM      4  C   UNL     1       2.672   2.679  18.327  0.00  0.00    +0.000 C 
ATOM      5  S   UNL     1       4.416   2.549  17.906  0.00  0.00    +0.000 S 
ATOM      6  C   UNL     1       4.670   4.390  17.589  0.00  0.00    +0.000 C 
ATOM      7  C   UNL     1       5.917   4.778  18.481  0.00  0.00    +0.000 C 
ATOM      8  O   UNL     1       5.962   4.886  19.695  0.00  0.00    +0.000 OA
ATOM      9  N   UNL     1       7.008   4.888  17.616  0.00  0.00    +0.000 N 
ATOM     10  C   UNL     1       6.631   4.688  16.290  0.00  0.00    +0.000 A 
ATOM     11  C   UNL     1       7.482   4.588  15.206  0.00  0.00    +0.000 A 
ATOM     12  C   UNL     1       6.912   4.279  13.970  0.00  0.00    +0.000 A 
ATOM     13  C   UNL     1       5.520   4.110  13.851  0.00  0.00    +0.000 A 
ATOM     14 BR   UNL     1       4.792   3.629  12.171  0.00  0.00    +0.000 Br
ATOM     15  C   UNL     1       4.672   4.228  14.959  0.00  0.00    +0.000 A 
ATOM     16  C   UNL     1       5.244   4.496  16.193  0.00  0.00    +0.000 A 
ATOM     17  N   UNL     1       3.383   4.998  17.873  0.00  0.00    +0.000 N 
ATOM     18  C   UNL     1       3.267   6.160  18.641  0.00  0.00    +0.000 C 
ATOM     19  O   UNL     1       4.082   7.070  18.655  0.00  0.00    +0.000 OA
ATOM     20  N   UNL     1       2.160   6.037  19.455  0.00  0.00    +0.000 N 
ATOM     21  H   UNL     1       7.947   5.052  17.942  0.00  0.00    +0.000 HD
ENDROOT
BRANCH  20  22
ATOM     22  C   UNL     1       1.935   6.857  20.636  0.00  0.00    +0.000 C 
BRANCH  22  23
ATOM     23  C   UNL     1       1.169   8.149  20.406  0.00  0.00    +0.000 A 
ATOM     24  C   UNL     1       0.321   8.682  21.392  0.00  0.00    +0.000 A 
ATOM     25  C   UNL     1      -0.290   9.931  21.216  0.00  0.00    +0.000 A 
ATOM     26  C   UNL     1      -0.062  10.661  20.054  0.00  0.00    +0.000 A 
ATOM     27  C   UNL     1       0.767  10.142  19.063  0.00  0.00    +0.000 A 
ATOM     28  C   UNL     1       1.372   8.892  19.233  0.00  0.00    +0.000 A 
ENDBRANCH  22  23
ENDBRANCH  20  22
TORSDOF 2
ENDMDL
MODEL 4
REMARK VINA RESULT:      -7.3      4.971      9.032
REMARK  Name = 
REMARK  2 active torsions:
REMARK  status: ('A' for Active; 'I' for Inactive)
REMARK    1  A    between atoms: N_20  and  C_21
REMARK    2  A    between atoms: C_21  and  C_22
REMARK                            x       y       z     vdW  Elec       q    Type
REMARK                         _______ _______ _______ _____ _____    ______ ____
ROOT
ATOM      1  O   UNL     1       1.087   7.429  21.088  0.00  0.00    +0.000 OA
ATOM      2  C   UNL     1       1.333   8.451  20.465  0.00  0.00    +0.000 C 
ATOM      3  C   UNL     1       1.123   9.852  21.005  0.00  0.00    +0.000 C 
ATOM      4  C   UNL     1      -0.161  10.018  21.780  0.00  0.00    +0.000 C 
ATOM      5  S   UNL     1      -1.084  11.354  21.008  0.00  0.00    +0.000 S 
ATOM      6  C   UNL     1       0.127  11.623  19.589  0.00  0.00    +0.000 C 
ATOM      7  C   UNL     1      -0.766  11.561  18.286  0.00  0.00    +0.000 C 
ATOM      8  O   UNL     1      -1.283  10.578  17.782  0.00  0.00    +0.000 OA
ATOM      9  N   UNL     1      -0.939  12.878  17.857  0.00  0.00    +0.000 N 
ATOM     10  C   UNL     1      -0.236  13.773  18.658  0.00  0.00    +0.000 A 
ATOM     11  C   UNL     1      -0.304  15.152  18.597  0.00  0.00    +0.000 A 
ATOM     12  C   UNL     1       0.401  15.873  19.563  0.00  0.00    +0.000 A 
ATOM     13  C   UNL     1       1.168  15.201  20.533  0.00  0.00    +0.000 A 
ATOM     14 BR   UNL     1       2.057  16.211  21.863  0.00  0.00    +0.000 Br
ATOM     15  C   UNL     1       1.236  13.803  20.571  0.00  0.00    +0.000 A 
ATOM     16  C   UNL     1       0.504  13.088  19.635  0.00  0.00    +0.000 A 
ATOM     17  N   UNL     1       1.160  10.621  19.785  0.00  0.00    +0.000 N 
ATOM     18  C   UNL     1       1.641   9.838  18.732  0.00  0.00    +0.000 C 
ATOM     19  O   UNL     1       1.753  10.219  17.577  0.00  0.00    +0.000 OA
ATOM     20  N   UNL     1       1.838   8.554  19.197  0.00  0.00    +0.000 N 
ATOM     21  H   UNL     1      -1.538  13.125  17.085  0.00  0.00    +0.000 HD
ENDROOT
BRANCH  20  22
ATOM     22  C   UNL     1       1.967   7.395  18.327  0.00  0.00    +0.000 C 
BRANCH  22  23
ATOM     23  C   UNL     1       3.336   6.737  18.302  0.00  0.00    +0.000 A 
ATOM     24  C   UNL     1       3.695   5.758  19.244  0.00  0.00    +0.000 A 
ATOM     25  C   UNL     1       4.915   5.076  19.144  0.00  0.00    +0.000 A 
ATOM     26  C   UNL     1       5.790   5.363  18.100  0.00  0.00    +0.000 A 
ATOM     27  C   UNL     1       5.454   6.337  17.164  0.00  0.00    +0.000 A 
ATOM     28  C   UNL     1       4.240   7.026  17.268  0.00  0.00    +0.000 A 
ENDBRANCH  22  23
ENDBRANCH  20  22
TORSDOF 2
ENDMDL
MODEL 5
REMARK VINA RESULT:      -7.2      4.724      8.533
REMARK  Name = 
REMARK  2 active torsions:
REMARK  status: ('A' for Active; 'I' for Inactive)
REMARK    1  A    between atoms: N_20  and  C_21
REMARK    2  A    between atoms: C_21  and  C_22
REMARK                            x       y       z     vdW  Elec       q    Type
REMARK                         _______ _______ _______ _____ _____    ______ ____
ROOT
ATOM      1  O   UNL     1       1.470   6.500  20.829  0.00  0.00    +0.000 OA
ATOM      2  C   UNL     1       1.687   7.542  20.230  0.00  0.00    +0.000 C 
ATOM      3  C   UNL     1       1.506   8.924  20.826  0.00  0.00    +0.000 C 
ATOM      4  C   UNL     1       0.261   9.064  21.667  0.00  0.00    +0.000 C 
ATOM      5  S   UNL     1      -0.696  10.425  20.984  0.00  0.00    +0.000 S 
ATOM      6  C   UNL     1       0.447  10.741  19.519  0.00  0.00    +0.000 C 
ATOM      7  C   UNL     1      -0.508  10.723  18.258  0.00  0.00    +0.000 C 
ATOM      8  O   UNL     1      -1.050   9.757  17.747  0.00  0.00    +0.000 OA
ATOM      9  N   UNL     1      -0.699  12.054  17.883  0.00  0.00    +0.000 N 
ATOM     10  C   UNL     1       0.044  12.922  18.679  0.00  0.00    +0.000 A 
ATOM     11  C   UNL     1      -0.025  14.302  18.667  0.00  0.00    +0.000 A 
ATOM     12  C   UNL     1       0.727  14.990  19.621  0.00  0.00    +0.000 A 
ATOM     13  C   UNL     1       1.538  14.286  20.530  0.00  0.00    +0.000 A 
ATOM     14 BR   UNL     1       2.491  15.251  21.850  0.00  0.00    +0.000 Br
ATOM     15  C   UNL     1       1.605  12.887  20.519  0.00  0.00    +0.000 A 
ATOM     16  C   UNL     1       0.828  12.204  19.596  0.00  0.00    +0.000 A 
ATOM     17  N   UNL     1       1.486   9.733  19.632  0.00  0.00    +0.000 N 
ATOM     18  C   UNL     1       1.915   8.986  18.532  0.00  0.00    +0.000 C 
ATOM     19  O   UNL     1       1.972   9.405  17.386  0.00  0.00    +0.000 OA
ATOM     20  N   UNL     1       2.132   7.687  18.944  0.00  0.00    +0.000 N 
ATOM     21  H   UNL     1      -1.333  12.326  17.149  0.00  0.00    +0.000 HD
ENDROOT
BRANCH  20  22
ATOM     22  C   UNL     1       2.217   6.558  18.030  0.00  0.00    +0.000 C 
BRANCH  22  23
ATOM     23  C   UNL     1       3.053   5.383  18.509  0.00  0.00    +0.000 A 
ATOM     24  C   UNL     1       2.523   4.083  18.569  0.00  0.00    +0.000 A 
ATOM     25  C   UNL     1       3.334   2.990  18.901  0.00  0.00    +0.000 A 
ATOM     26  C   UNL     1       4.684   3.182  19.176  0.00  0.00    +0.000 A 
ATOM     27  C   UNL     1       5.223   4.465  19.131  0.00  0.00    +0.000 A 
ATOM     28  C   UNL     1       4.413   5.559  18.808  0.00  0.00    +0.000 A 
ENDBRANCH  22  23
ENDBRANCH  20  22
TORSDOF 2
ENDMDL
MODEL 6
REMARK VINA RESULT:      -7.1      5.984     10.375
REMARK  Name = 
REMARK  2 active torsions:
REMARK  status: ('A' for Active; 'I' for Inactive)
REMARK    1  A    between atoms: N_20  and  C_21
REMARK    2  A    between atoms: C_21  and  C_22
REMARK                            x       y       z     vdW  Elec       q    Type
REMARK                         _______ _______ _______ _____ _____    ______ ____
ROOT
ATOM      1  O   UNL     1      -0.400   9.744  17.552  0.00  0.00    +0.000 OA
ATOM      2  C   UNL     1      -0.351  10.027  18.739  0.00  0.00    +0.000 C 
ATOM      3  C   UNL     1      -1.439  10.772  19.486  0.00  0.00    +0.000 C 
ATOM      4  C   UNL     1      -2.034  11.920  18.707  0.00  0.00    +0.000 C 
ATOM      5  S   UNL     1      -1.847  13.401  19.710  0.00  0.00    +0.000 S 
ATOM      6  C   UNL     1      -0.876  12.568  21.095  0.00  0.00    +0.000 C 
ATOM      7  C   UNL     1       0.414  13.466  21.272  0.00  0.00    +0.000 C 
ATOM      8  O   UNL     1       1.373  13.550  20.524  0.00  0.00    +0.000 OA
ATOM      9  N   UNL     1       0.211  14.234  22.420  0.00  0.00    +0.000 N 
ATOM     10  C   UNL     1      -0.993  13.916  23.042  0.00  0.00    +0.000 A 
ATOM     11  C   UNL     1      -1.561  14.582  24.112  0.00  0.00    +0.000 A 
ATOM     12  C   UNL     1      -2.831  14.171  24.522  0.00  0.00    +0.000 A 
ATOM     13  C   UNL     1      -3.475  13.099  23.876  0.00  0.00    +0.000 A 
ATOM     14 BR   UNL     1      -5.222  12.615  24.420  0.00  0.00    +0.000 Br
ATOM     15  C   UNL     1      -2.879  12.428  22.802  0.00  0.00    +0.000 A 
ATOM     16  C   UNL     1      -1.634  12.862  22.370  0.00  0.00    +0.000 A 
ATOM     17  N   UNL     1      -0.722  11.189  20.665  0.00  0.00    +0.000 N 
ATOM     18  C   UNL     1       0.501  10.519  20.752  0.00  0.00    +0.000 C 
ATOM     19  O   UNL     1       1.330  10.695  21.633  0.00  0.00    +0.000 OA
ATOM     20  N   UNL     1       0.654   9.740  19.624  0.00  0.00    +0.000 N 
ATOM     21  H   UNL     1       0.854  14.951  22.716  0.00  0.00    +0.000 HD
ENDROOT
BRANCH  20  22
ATOM     22  C   UNL     1       1.933   9.204  19.184  0.00  0.00    +0.000 C 
BRANCH  22  23
ATOM     23  C   UNL     1       2.084   7.696  19.279  0.00  0.00    +0.000 A 
ATOM     24  C   UNL     1       1.805   7.005  20.470  0.00  0.00    +0.000 A 
ATOM     25  C   UNL     1       1.837   5.605  20.514  0.00  0.00    +0.000 A 
ATOM     26  C   UNL     1       2.147   4.879  19.369  0.00  0.00    +0.000 A 
ATOM     27  C   UNL     1       2.436   5.548  18.183  0.00  0.00    +0.000 A 
ATOM     28  C   UNL     1       2.413   6.946  18.139  0.00  0.00    +0.000 A 
ENDBRANCH  22  23
ENDBRANCH  20  22
TORSDOF 2
ENDMDL
MODEL 7
REMARK VINA RESULT:      -7.0      5.470      9.994
REMARK  Name = 
REMARK  2 active torsions:
REMARK  status: ('A' for Active; 'I' for Inactive)
REMARK    1  A    between atoms: N_20  and  C_21
REMARK    2  A    between atoms: C_21  and  C_22
REMARK                            x       y       z     vdW  Elec       q    Type
REMARK                         _______ _______ _______ _____ _____    ______ ____
ROOT
ATOM      1  O   UNL     1       2.194  10.318  18.227  0.00  0.00    +0.000 OA
ATOM      2  C   UNL     1       1.145  10.215  18.846  0.00  0.00    +0.000 C 
ATOM      3  C   UNL     1      -0.077  11.078  18.605  0.00  0.00    +0.000 C 
ATOM      4  C   UNL     1       0.243  12.534  18.373  0.00  0.00    +0.000 C 
ATOM      5  S   UNL     1      -0.675  13.485  19.593  0.00  0.00    +0.000 S 
ATOM      6  C   UNL     1      -1.381  11.992  20.501  0.00  0.00    +0.000 C 
ATOM      7  C   UNL     1      -1.013  12.239  22.019  0.00  0.00    +0.000 C 
ATOM      8  O   UNL     1       0.084  12.156  22.543  0.00  0.00    +0.000 OA
ATOM      9  N   UNL     1      -2.182  12.671  22.648  0.00  0.00    +0.000 N 
ATOM     10  C   UNL     1      -3.263  12.677  21.771  0.00  0.00    +0.000 A 
ATOM     11  C   UNL     1      -4.524  13.181  22.031  0.00  0.00    +0.000 A 
ATOM     12  C   UNL     1      -5.441  13.190  20.978  0.00  0.00    +0.000 A 
ATOM     13  C   UNL     1      -5.083  12.674  19.718  0.00  0.00    +0.000 A 
ATOM     14 BR   UNL     1      -6.332  12.763  18.299  0.00  0.00    +0.000 Br
ATOM     15  C   UNL     1      -3.804  12.156  19.477  0.00  0.00    +0.000 A 
ATOM     16  C   UNL     1      -2.882  12.184  20.513  0.00  0.00    +0.000 A 
ATOM     17  N   UNL     1      -0.821  10.840  19.818  0.00  0.00    +0.000 N 
ATOM     18  C   UNL     1      -0.278   9.758  20.515  0.00  0.00    +0.000 C 
ATOM     19  O   UNL     1      -0.686   9.348  21.591  0.00  0.00    +0.000 OA
ATOM     20  N   UNL     1       0.852   9.330  19.848  0.00  0.00    +0.000 N 
ATOM     21  H   UNL     1      -2.203  12.973  23.609  0.00  0.00    +0.000 HD
ENDROOT
BRANCH  20  22
ATOM     22  C   UNL     1       1.875   8.492  20.455  0.00  0.00    +0.000 C 
BRANCH  22  23
ATOM     23  C   UNL     1       1.975   7.076  19.915  0.00  0.00    +0.000 A 
ATOM     24  C   UNL     1       1.558   5.971  20.676  0.00  0.00    +0.000 A 
ATOM     25  C   UNL     1       1.547   4.682  20.127  0.00  0.00    +0.000 A 
ATOM     26  C   UNL     1       1.950   4.482  18.810  0.00  0.00    +0.000 A 
ATOM     27  C   UNL     1       2.375   5.565  18.045  0.00  0.00    +0.000 A 
ATOM     28  C   UNL     1       2.395   6.852  18.595  0.00  0.00    +0.000 A 
ENDBRANCH  22  23
ENDBRANCH  20  22
TORSDOF 2
ENDMDL
MODEL 8
REMARK VINA RESULT:      -7.0      5.880     10.411
REMARK  Name = 
REMARK  2 active torsions:
REMARK  status: ('A' for Active; 'I' for Inactive)
REMARK    1  A    between atoms: N_20  and  C_21
REMARK    2  A    between atoms: C_21  and  C_22
REMARK                            x       y       z     vdW  Elec       q    Type
REMARK                         _______ _______ _______ _____ _____    ______ ____
ROOT
ATOM      1  O   UNL     1       0.520   9.723  17.898  0.00  0.00    +0.000 OA
ATOM      2  C   UNL     1       0.090   9.963  19.016  0.00  0.00    +0.000 C 
ATOM      3  C   UNL     1      -1.141  10.803  19.296  0.00  0.00    +0.000 C 
ATOM      4  C   UNL     1      -1.248  12.032  18.427  0.00  0.00    +0.000 C 
ATOM      5  S   UNL     1      -1.370  13.452  19.524  0.00  0.00    +0.000 S 
ATOM      6  C   UNL     1      -1.150  12.476  21.121  0.00  0.00    +0.000 C 
ATOM      7  C   UNL     1       0.019  13.219  21.884  0.00  0.00    +0.000 C 
ATOM      8  O   UNL     1       1.208  13.217  21.610  0.00  0.00    +0.000 OA
ATOM      9  N   UNL     1      -0.579  13.970  22.896  0.00  0.00    +0.000 N 
ATOM     10  C   UNL     1      -1.956  13.770  22.937  0.00  0.00    +0.000 A 
ATOM     11  C   UNL     1      -2.860  14.463  23.720  0.00  0.00    +0.000 A 
ATOM     12  C   UNL     1      -4.215  14.185  23.534  0.00  0.00    +0.000 A 
ATOM     13  C   UNL     1      -4.620  13.212  22.602  0.00  0.00    +0.000 A 
ATOM     14 BR   UNL     1      -6.469  12.909  22.333  0.00  0.00    +0.000 Br
ATOM     15  C   UNL     1      -3.689  12.510  21.826  0.00  0.00    +0.000 A 
ATOM     16  C   UNL     1      -2.345  12.815  21.984  0.00  0.00    +0.000 A 
ATOM     17  N   UNL     1      -0.953  11.102  20.694  0.00  0.00    +0.000 N 
ATOM     18  C   UNL     1       0.055  10.297  21.231  0.00  0.00    +0.000 C 
ATOM     19  O   UNL     1       0.448  10.353  22.387  0.00  0.00    +0.000 OA
ATOM     20  N   UNL     1       0.599   9.540  20.214  0.00  0.00    +0.000 N 
ATOM     21  H   UNL     1      -0.059  14.602  23.485  0.00  0.00    +0.000 HD
ENDROOT
BRANCH  20  22
ATOM     22  C   UNL     1       1.891   8.878  20.308  0.00  0.00    +0.000 C 
BRANCH  22  23
ATOM     23  C   UNL     1       1.914   7.415  19.901  0.00  0.00    +0.000 A 
ATOM     24  C   UNL     1       2.437   7.008  18.661  0.00  0.00    +0.000 A 
ATOM     25  C   UNL     1       2.560   5.649  18.344  0.00  0.00    +0.000 A 
ATOM     26  C   UNL     1       2.162   4.680  19.260  0.00  0.00    +0.000 A 
ATOM     27  C   UNL     1       1.632   5.067  20.488  0.00  0.00    +0.000 A 
ATOM     28  C   UNL     1       1.501   6.424  20.804  0.00  0.00    +0.000 A 
ENDBRANCH  22  23
ENDBRANCH  20  22
TORSDOF 2
ENDMDL
MODEL 9
REMARK VINA RESULT:      -6.9      5.661     10.256
REMARK  Name = 
REMARK  2 active torsions:
REMARK  status: ('A' for Active; 'I' for Inactive)
REMARK    1  A    between atoms: N_20  and  C_21
REMARK    2  A    between atoms: C_21  and  C_22
REMARK                            x       y       z     vdW  Elec       q    Type
REMARK                         _______ _______ _______ _____ _____    ______ ____
ROOT
ATOM      1  O   UNL     1       2.010  10.968  18.335  0.00  0.00    +0.000 OA
ATOM      2  C   UNL     1       0.971  10.761  18.941  0.00  0.00    +0.000 C 
ATOM      3  C   UNL     1      -0.300  11.567  18.760  0.00  0.00    +0.000 C 
ATOM      4  C   UNL     1      -0.065  13.052  18.635  0.00  0.00    +0.000 C 
ATOM      5  S   UNL     1      -1.035  13.857  19.918  0.00  0.00    +0.000 S 
ATOM      6  C   UNL     1      -1.653  12.263  20.713  0.00  0.00    +0.000 C 
ATOM      7  C   UNL     1      -1.298  12.420  22.247  0.00  0.00    +0.000 C 
ATOM      8  O   UNL     1      -0.197  12.362  22.767  0.00  0.00    +0.000 OA
ATOM      9  N   UNL     1      -2.489  12.737  22.902  0.00  0.00    +0.000 N 
ATOM     10  C   UNL     1      -3.570  12.745  22.024  0.00  0.00    +0.000 A 
ATOM     11  C   UNL     1      -4.857  13.154  22.316  0.00  0.00    +0.000 A 
ATOM     12  C   UNL     1      -5.774  13.187  21.263  0.00  0.00    +0.000 A 
ATOM     13  C   UNL     1      -5.388  12.787  19.971  0.00  0.00    +0.000 A 
ATOM     14 BR   UNL     1      -6.642  12.907  18.559  0.00  0.00    +0.000 Br
ATOM     15  C   UNL     1      -4.082  12.362  19.696  0.00  0.00    +0.000 A 
ATOM     16  C   UNL     1      -3.162  12.367  20.734  0.00  0.00    +0.000 A 
ATOM     17  N   UNL     1      -1.027  11.199  19.950  0.00  0.00    +0.000 N 
ATOM     18  C   UNL     1      -0.422  10.101  20.568  0.00  0.00    +0.000 C 
ATOM     19  O   UNL     1      -0.805   9.592  21.611  0.00  0.00    +0.000 OA
ATOM     20  N   UNL     1       0.730   9.790  19.876  0.00  0.00    +0.000 N 
ATOM     21  H   UNL     1      -2.527  12.967  23.882  0.00  0.00    +0.000 HD
ENDROOT
BRANCH  20  22
ATOM     22  C   UNL     1       1.800   8.970  20.423  0.00  0.00    +0.000 C 
BRANCH  22  23
ATOM     23  C   UNL     1       1.915   7.567  19.852  0.00  0.00    +0.000 A 
ATOM     24  C   UNL     1       2.383   7.344  18.546  0.00  0.00    +0.000 A 
ATOM     25  C   UNL     1       2.594   6.043  18.070  0.00  0.00    +0.000 A 
ATOM     26  C   UNL     1       2.343   4.950  18.893  0.00  0.00    +0.000 A 
ATOM     27  C   UNL     1       1.869   5.154  20.186  0.00  0.00    +0.000 A 
ATOM     28  C   UNL     1       1.649   6.451  20.661  0.00  0.00    +0.000 A 
ENDBRANCH  22  23
ENDBRANCH  20  22
TORSDOF 2
ENDMDL
