MODEL 1
REMARK VINA RESULT:      -8.5      0.000      0.000
REMARK  Name = 
REMARK  5 active torsions:
REMARK  status: ('A' for Active; 'I' for Inactive)
REMARK    1  A    between atoms: C_1  and  C_2
REMARK    2  A    between atoms: C_5  and  C_6
REMARK    3  A    between atoms: C_6  and  N_7
REMARK    4  A    between atoms: N_9  and  C_10
REMARK    5  A    between atoms: C_10  and  C_11
REMARK                            x       y       z     vdW  Elec       q    Type
REMARK                         _______ _______ _______ _____ _____    ______ ____
ROOT
ATOM      1  N   UNL     1       0.658   9.589  18.929  0.00  0.00    +0.000 N 
ATOM      2  C   UNL     1       1.455   8.529  18.707  0.00  0.00    +0.000 A 
ATOM      3  N   UNL     1       1.824   8.004  19.888  0.00  0.00    +0.000 N 
ATOM      4  C   UNL     1       1.138   8.666  20.904  0.00  0.00    +0.000 A 
ATOM      5  C   UNL     1       1.131   8.495  22.289  0.00  0.00    +0.000 A 
ATOM      6  C   UNL     1       0.338   9.390  23.022  0.00  0.00    +0.000 A 
ATOM      7  C   UNL     1      -0.414  10.404  22.398  0.00  0.00    +0.000 A 
ATOM      8  C   UNL     1      -0.398  10.576  21.009  0.00  0.00    +0.000 A 
ATOM      9  C   UNL     1       0.395   9.684  20.289  0.00  0.00    +0.000 A 
ENDROOT
BRANCH   1  10
ATOM     10  C   UNL     1       0.251  10.541  17.890  0.00  0.00    +0.000 C 
BRANCH  10  15
ATOM     11  C   UNL     1      -5.562  11.046  17.793  0.00  0.00    +0.000 C 
ATOM     12  C   UNL     1      -4.067  10.919  17.778  0.00  0.00    +0.000 A 
ATOM     13  C   UNL     1      -3.450   9.804  17.207  0.00  0.00    +0.000 A 
ATOM     14  C   UNL     1      -2.057   9.682  17.209  0.00  0.00    +0.000 A 
ATOM     15  C   UNL     1      -1.247  10.675  17.775  0.00  0.00    +0.000 A 
ATOM     16  C   UNL     1      -1.877  11.788  18.360  0.00  0.00    +0.000 A 
ATOM     17  C   UNL     1      -3.270  11.912  18.354  0.00  0.00    +0.000 A 
ENDBRANCH  10  15
ENDBRANCH   1  10
BRANCH   3  18
ATOM     18  C   UNL     1       2.907   7.019  20.039  0.00  0.00    +0.000 C 
BRANCH  18  19
ATOM     19  C   UNL     1       2.833   5.882  19.061  0.00  0.00    +0.000 A 
ATOM     20  C   UNL     1       2.005   4.765  19.247  0.00  0.00    +0.000 A 
ATOM     21  C   UNL     1       1.995   3.703  18.335  0.00  0.00    +0.000 A 
ATOM     22  C   UNL     1       2.839   3.638  17.249  0.00  0.00    +0.000 A 
ATOM     23  C   UNL     1       3.731   4.683  17.116  0.00  0.00    +0.000 A 
ATOM     24  C   UNL     1       3.709   5.781  17.980  0.00  0.00    +0.000 A 
ATOM     25  O   UNL     1       4.675   6.710  17.683  0.00  0.00    +0.000 OA
ATOM     26  C   UNL     1       5.490   6.091  16.654  0.00  0.00    +0.000 C 
ATOM     27  C   UNL     1       4.830   4.815  16.138  0.00  0.00    +0.000 C 
ATOM     28  O   UNL     1       1.100   2.710  18.637  0.00  0.00    +0.000 OA
ATOM     29  C   UNL     1       0.761   2.959  20.013  0.00  0.00    +0.000 C 
ATOM     30  C   UNL     1       1.060   4.426  20.345  0.00  0.00    +0.000 C 
ENDBRANCH  18  19
ENDBRANCH   3  18
TORSDOF 4
ENDMDL
MODEL 2
REMARK VINA RESULT:      -8.1      4.381      9.191
REMARK  Name = 
REMARK  5 active torsions:
REMARK  status: ('A' for Active; 'I' for Inactive)
REMARK    1  A    between atoms: C_1  and  C_2
REMARK    2  A    between atoms: C_5  and  C_6
REMARK    3  A    between atoms: C_6  and  N_7
REMARK    4  A    between atoms: N_9  and  C_10
REMARK    5  A    between atoms: C_10  and  C_11
REMARK                            x       y       z     vdW  Elec       q    Type
REMARK                         _______ _______ _______ _____ _____    ______ ____
ROOT
ATOM      1  N   UNL     1      -0.578  11.595  19.180  0.00  0.00    +0.000 N 
ATOM      2  C   UNL     1      -1.091  12.486  20.047  0.00  0.00    +0.000 A 
ATOM      3  N   UNL     1      -2.397  12.658  19.778  0.00  0.00    +0.000 N 
ATOM      4  C   UNL     1      -2.770  11.751  18.787  0.00  0.00    +0.000 A 
ATOM      5  C   UNL     1      -3.998  11.493  18.175  0.00  0.00    +0.000 A 
ATOM      6  C   UNL     1      -3.996  10.520  17.165  0.00  0.00    +0.000 A 
ATOM      7  C   UNL     1      -2.823   9.836  16.790  0.00  0.00    +0.000 A 
ATOM      8  C   UNL     1      -1.594  10.103  17.403  0.00  0.00    +0.000 A 
ATOM      9  C   UNL     1      -1.604  11.074  18.403  0.00  0.00    +0.000 A 
ENDROOT
BRANCH   1  10
ATOM     10  C   UNL     1       0.856  11.332  19.028  0.00  0.00    +0.000 C 
BRANCH  10  15
ATOM     11  C   UNL     1       2.450   5.817  20.081  0.00  0.00    +0.000 C 
ATOM     12  C   UNL     1       2.013   7.222  19.784  0.00  0.00    +0.000 A 
ATOM     13  C   UNL     1       2.237   7.789  18.528  0.00  0.00    +0.000 A 
ATOM     14  C   UNL     1       1.843   9.104  18.260  0.00  0.00    +0.000 A 
ATOM     15  C   UNL     1       1.209   9.881  19.238  0.00  0.00    +0.000 A 
ATOM     16  C   UNL     1       1.000   9.306  20.505  0.00  0.00    +0.000 A 
ATOM     17  C   UNL     1       1.390   7.989  20.771  0.00  0.00    +0.000 A 
ENDBRANCH  10  15
ENDBRANCH   1  10
BRANCH   3  18
ATOM     18  C   UNL     1      -3.207  13.753  20.334  0.00  0.00    +0.000 C 
BRANCH  18  19
ATOM     19  C   UNL     1      -3.754  13.467  21.703  0.00  0.00    +0.000 A 
ATOM     20  C   UNL     1      -5.014  12.889  21.917  0.00  0.00    +0.000 A 
ATOM     21  C   UNL     1      -5.511  12.677  23.209  0.00  0.00    +0.000 A 
ATOM     22  C   UNL     1      -4.848  13.086  24.344  0.00  0.00    +0.000 A 
ATOM     23  C   UNL     1      -3.656  13.751  24.139  0.00  0.00    +0.000 A 
ATOM     24  C   UNL     1      -3.116  13.912  22.860  0.00  0.00    +0.000 A 
ATOM     25  O   UNL     1      -1.929  14.601  22.868  0.00  0.00    +0.000 OA
ATOM     26  C   UNL     1      -1.771  15.066  24.234  0.00  0.00    +0.000 C 
ATOM     27  C   UNL     1      -2.804  14.413  25.148  0.00  0.00    +0.000 C 
ATOM     28  O   UNL     1      -6.735  12.062  23.248  0.00  0.00    +0.000 OA
ATOM     29  C   UNL     1      -7.234  12.204  21.906  0.00  0.00    +0.000 C 
ATOM     30  C   UNL     1      -6.053  12.435  20.954  0.00  0.00    +0.000 C 
ENDBRANCH  18  19
ENDBRANCH   3  18
TORSDOF 4
ENDMDL
MODEL 3
REMARK VINA RESULT:      -7.9      1.906      3.001
REMARK  Name = 
REMARK  5 active torsions:
REMARK  status: ('A' for Active; 'I' for Inactive)
REMARK    1  A    between atoms: C_1  and  C_2
REMARK    2  A    between atoms: C_5  and  C_6
REMARK    3  A    between atoms: C_6  and  N_7
REMARK    4  A    between atoms: N_9  and  C_10
REMARK    5  A    between atoms: C_10  and  C_11
REMARK                            x       y       z     vdW  Elec       q    Type
REMARK                         _______ _______ _______ _____ _____    ______ ____
ROOT
ATOM      1  N   UNL     1       0.812   9.726  18.922  0.00  0.00    +0.000 N 
ATOM      2  C   UNL     1       1.616   8.670  18.712  0.00  0.00    +0.000 A 
ATOM      3  N   UNL     1       1.859   8.061  19.885  0.00  0.00    +0.000 N 
ATOM      4  C   UNL     1       1.079   8.667  20.870  0.00  0.00    +0.000 A 
ATOM      5  C   UNL     1       0.930   8.404  22.232  0.00  0.00    +0.000 A 
ATOM      6  C   UNL     1       0.075   9.263  22.940  0.00  0.00    +0.000 A 
ATOM      7  C   UNL     1      -0.599  10.328  22.313  0.00  0.00    +0.000 A 
ATOM      8  C   UNL     1      -0.441  10.591  20.947  0.00  0.00    +0.000 A 
ATOM      9  C   UNL     1       0.413   9.735  20.253  0.00  0.00    +0.000 A 
ENDROOT
BRANCH   1  10
ATOM     10  C   UNL     1       0.522  10.750  17.914  0.00  0.00    +0.000 C 
BRANCH  10  15
ATOM     11  C   UNL     1       2.602  16.093  19.006  0.00  0.00    +0.000 C 
ATOM     12  C   UNL     1       2.085  14.706  18.759  0.00  0.00    +0.000 A 
ATOM     13  C   UNL     1       2.959  13.664  18.443  0.00  0.00    +0.000 A 
ATOM     14  C   UNL     1       2.473  12.376  18.197  0.00  0.00    +0.000 A 
ATOM     15  C   UNL     1       1.101  12.097  18.267  0.00  0.00    +0.000 A 
ATOM     16  C   UNL     1       0.227  13.156  18.573  0.00  0.00    +0.000 A 
ATOM     17  C   UNL     1       0.715  14.443  18.823  0.00  0.00    +0.000 A 
ENDBRANCH  10  15
ENDBRANCH   1  10
BRANCH   3  18
ATOM     18  C   UNL     1       2.910   7.050  20.078  0.00  0.00    +0.000 C 
BRANCH  18  19
ATOM     19  C   UNL     1       2.832   5.903  19.113  0.00  0.00    +0.000 A 
ATOM     20  C   UNL     1       2.007   4.787  19.318  0.00  0.00    +0.000 A 
ATOM     21  C   UNL     1       1.992   3.714  18.418  0.00  0.00    +0.000 A 
ATOM     22  C   UNL     1       2.829   3.637  17.327  0.00  0.00    +0.000 A 
ATOM     23  C   UNL     1       3.719   4.682  17.177  0.00  0.00    +0.000 A 
ATOM     24  C   UNL     1       3.701   5.790  18.028  0.00  0.00    +0.000 A 
ATOM     25  O   UNL     1       4.663   6.717  17.714  0.00  0.00    +0.000 OA
ATOM     26  C   UNL     1       5.473   6.087  16.687  0.00  0.00    +0.000 C 
ATOM     27  C   UNL     1       4.811   4.805  16.190  0.00  0.00    +0.000 C 
ATOM     28  O   UNL     1       1.101   2.723  18.737  0.00  0.00    +0.000 OA
ATOM     29  C   UNL     1       0.770   2.988  20.112  0.00  0.00    +0.000 C 
ATOM     30  C   UNL     1       1.069   4.458  20.426  0.00  0.00    +0.000 C 
ENDBRANCH  18  19
ENDBRANCH   3  18
TORSDOF 4
ENDMDL
MODEL 4
REMARK VINA RESULT:      -7.9      4.260      9.012
REMARK  Name = 
REMARK  5 active torsions:
REMARK  status: ('A' for Active; 'I' for Inactive)
REMARK    1  A    between atoms: C_1  and  C_2
REMARK    2  A    between atoms: C_5  and  C_6
REMARK    3  A    between atoms: C_6  and  N_7
REMARK    4  A    between atoms: N_9  and  C_10
REMARK    5  A    between atoms: C_10  and  C_11
REMARK                            x       y       z     vdW  Elec       q    Type
REMARK                         _______ _______ _______ _____ _____    ______ ____
ROOT
ATOM      1  N   UNL     1      -0.210  11.354  18.937  0.00  0.00    +0.000 N 
ATOM      2  C   UNL     1      -0.530  12.337  19.796  0.00  0.00    +0.000 A 
ATOM      3  N   UNL     1      -1.827  12.653  19.639  0.00  0.00    +0.000 N 
ATOM      4  C   UNL     1      -2.398  11.754  18.739  0.00  0.00    +0.000 A 
ATOM      5  C   UNL     1      -3.700  11.618  18.257  0.00  0.00    +0.000 A 
ATOM      6  C   UNL     1      -3.909  10.607  17.306  0.00  0.00    +0.000 A 
ATOM      7  C   UNL     1      -2.865   9.772  16.864  0.00  0.00    +0.000 A 
ATOM      8  C   UNL     1      -1.559   9.917  17.346  0.00  0.00    +0.000 A 
ATOM      9  C   UNL     1      -1.360  10.926  18.287  0.00  0.00    +0.000 A 
ENDROOT
BRANCH   1  10
ATOM     10  C   UNL     1       1.163  10.915  18.669  0.00  0.00    +0.000 C 
BRANCH  10  15
ATOM     11  C   UNL     1       2.086   5.471  20.559  0.00  0.00    +0.000 C 
ATOM     12  C   UNL     1       1.874   6.884  20.101  0.00  0.00    +0.000 A 
ATOM     13  C   UNL     1       1.236   7.814  20.924  0.00  0.00    +0.000 A 
ATOM     14  C   UNL     1       1.026   9.125  20.488  0.00  0.00    +0.000 A 
ATOM     15  C   UNL     1       1.455   9.541  19.220  0.00  0.00    +0.000 A 
ATOM     16  C   UNL     1       2.085   8.595  18.393  0.00  0.00    +0.000 A 
ATOM     17  C   UNL     1       2.298   7.284  18.832  0.00  0.00    +0.000 A 
ENDBRANCH  10  15
ENDBRANCH   1  10
BRANCH   3  18
ATOM     18  C   UNL     1      -2.447  13.860  20.205  0.00  0.00    +0.000 C 
BRANCH  18  19
ATOM     19  C   UNL     1      -2.831  13.724  21.650  0.00  0.00    +0.000 A 
ATOM     20  C   UNL     1      -4.057  13.185  22.069  0.00  0.00    +0.000 A 
ATOM     21  C   UNL     1      -4.400  13.114  23.424  0.00  0.00    +0.000 A 
ATOM     22  C   UNL     1      -3.609  13.630  24.426  0.00  0.00    +0.000 A 
ATOM     23  C   UNL     1      -2.449  14.257  24.016  0.00  0.00    +0.000 A 
ATOM     24  C   UNL     1      -2.062  14.278  22.673  0.00  0.00    +0.000 A 
ATOM     25  O   UNL     1      -0.883  14.950  22.472  0.00  0.00    +0.000 OA
ATOM     26  C   UNL     1      -0.566  15.552  23.755  0.00  0.00    +0.000 C 
ATOM     27  C   UNL     1      -1.486  15.009  24.845  0.00  0.00    +0.000 C 
ATOM     28  O   UNL     1      -5.611  12.521  23.669  0.00  0.00    +0.000 OA
ATOM     29  C   UNL     1      -6.263  12.530  22.386  0.00  0.00    +0.000 C 
ATOM     30  C   UNL     1      -5.202  12.647  21.285  0.00  0.00    +0.000 C 
ENDBRANCH  18  19
ENDBRANCH   3  18
TORSDOF 4
ENDMDL
MODEL 5
REMARK VINA RESULT:      -7.7      3.160      6.086
REMARK  Name = 
REMARK  5 active torsions:
REMARK  status: ('A' for Active; 'I' for Inactive)
REMARK    1  A    between atoms: C_1  and  C_2
REMARK    2  A    between atoms: C_5  and  C_6
REMARK    3  A    between atoms: C_6  and  N_7
REMARK    4  A    between atoms: N_9  and  C_10
REMARK    5  A    between atoms: C_10  and  C_11
REMARK                            x       y       z     vdW  Elec       q    Type
REMARK                         _______ _______ _______ _____ _____    ______ ____
ROOT
ATOM      1  N   UNL     1      -3.386  12.441  19.447  0.00  0.00    +0.000 N 
ATOM      2  C   UNL     1      -2.084  12.638  19.714  0.00  0.00    +0.000 A 
ATOM      3  N   UNL     1      -1.344  11.901  18.867  0.00  0.00    +0.000 N 
ATOM      4  C   UNL     1      -2.195  11.308  17.935  0.00  0.00    +0.000 A 
ATOM      5  C   UNL     1      -1.944  10.483  16.838  0.00  0.00    +0.000 A 
ATOM      6  C   UNL     1      -3.069  10.026  16.134  0.00  0.00    +0.000 A 
ATOM      7  C   UNL     1      -4.379  10.382  16.509  0.00  0.00    +0.000 A 
ATOM      8  C   UNL     1      -4.624  11.205  17.615  0.00  0.00    +0.000 A 
ATOM      9  C   UNL     1      -3.502  11.651  18.310  0.00  0.00    +0.000 A 
ENDROOT
BRANCH   1  10
ATOM     10  C   UNL     1      -4.480  12.900  20.309  0.00  0.00    +0.000 C 
BRANCH  10  15
ATOM     11  C   UNL     1      -2.893  14.980  25.526  0.00  0.00    +0.000 C 
ATOM     12  C   UNL     1      -3.265  14.455  24.170  0.00  0.00    +0.000 A 
ATOM     13  C   UNL     1      -3.399  15.319  23.082  0.00  0.00    +0.000 A 
ATOM     14  C   UNL     1      -3.761  14.829  21.823  0.00  0.00    +0.000 A 
ATOM     15  C   UNL     1      -3.992  13.462  21.621  0.00  0.00    +0.000 A 
ATOM     16  C   UNL     1      -3.867  12.600  22.726  0.00  0.00    +0.000 A 
ATOM     17  C   UNL     1      -3.501  13.091  23.983  0.00  0.00    +0.000 A 
ENDBRANCH  10  15
ENDBRANCH   1  10
BRANCH   3  18
ATOM     18  C   UNL     1       0.095  11.652  19.045  0.00  0.00    +0.000 C 
BRANCH  18  19
ATOM     19  C   UNL     1       0.406  10.339  19.702  0.00  0.00    +0.000 A 
ATOM     20  C   UNL     1       0.056  10.045  21.029  0.00  0.00    +0.000 A 
ATOM     21  C   UNL     1       0.401   8.825  21.623  0.00  0.00    +0.000 A 
ATOM     22  C   UNL     1       1.166   7.871  20.989  0.00  0.00    +0.000 A 
ATOM     23  C   UNL     1       1.604   8.196  19.720  0.00  0.00    +0.000 A 
ATOM     24  C   UNL     1       1.213   9.381  19.090  0.00  0.00    +0.000 A 
ATOM     25  O   UNL     1       1.756   9.519  17.837  0.00  0.00    +0.000 OA
ATOM     26  C   UNL     1       2.701   8.424  17.711  0.00  0.00    +0.000 C 
ATOM     27  C   UNL     1       2.537   7.436  18.863  0.00  0.00    +0.000 C 
ATOM     28  O   UNL     1      -0.052   8.675  22.907  0.00  0.00    +0.000 OA
ATOM     29  C   UNL     1      -0.403  10.013  23.306  0.00  0.00    +0.000 C 
ATOM     30  C   UNL     1      -0.653  10.860  22.052  0.00  0.00    +0.000 C 
ENDBRANCH  18  19
ENDBRANCH   3  18
TORSDOF 4
ENDMDL
MODEL 6
REMARK VINA RESULT:      -7.7      2.082      5.299
REMARK  Name = 
REMARK  5 active torsions:
REMARK  status: ('A' for Active; 'I' for Inactive)
REMARK    1  A    between atoms: C_1  and  C_2
REMARK    2  A    between atoms: C_5  and  C_6
REMARK    3  A    between atoms: C_6  and  N_7
REMARK    4  A    between atoms: N_9  and  C_10
REMARK    5  A    between atoms: C_10  and  C_11
REMARK                            x       y       z     vdW  Elec       q    Type
REMARK                         _______ _______ _______ _____ _____    ______ ____
ROOT
ATOM      1  N   UNL     1       2.570   6.075  19.157  0.00  0.00    +0.000 N 
ATOM      2  C   UNL     1       3.006   5.837  17.908  0.00  0.00    +0.000 A 
ATOM      3  N   UNL     1       2.943   4.516  17.665  0.00  0.00    +0.000 N 
ATOM      4  C   UNL     1       2.321   3.894  18.747  0.00  0.00    +0.000 A 
ATOM      5  C   UNL     1       1.984   2.561  18.987  0.00  0.00    +0.000 A 
ATOM      6  C   UNL     1       1.395   2.284  20.230  0.00  0.00    +0.000 A 
ATOM      7  C   UNL     1       1.153   3.293  21.183  0.00  0.00    +0.000 A 
ATOM      8  C   UNL     1       1.500   4.627  20.939  0.00  0.00    +0.000 A 
ATOM      9  C   UNL     1       2.087   4.893  19.703  0.00  0.00    +0.000 A 
ENDROOT
BRANCH   1  10
ATOM     10  C   UNL     1       2.709   7.364  19.843  0.00  0.00    +0.000 C 
BRANCH  10  15
ATOM     11  C   UNL     1      -1.401  11.299  18.545  0.00  0.00    +0.000 C 
ATOM     12  C   UNL     1      -0.373  10.260  18.885  0.00  0.00    +0.000 A 
ATOM     13  C   UNL     1      -0.285   9.737  20.176  0.00  0.00    +0.000 A 
ATOM     14  C   UNL     1       0.684   8.780  20.493  0.00  0.00    +0.000 A 
ATOM     15  C   UNL     1       1.585   8.318  19.525  0.00  0.00    +0.000 A 
ATOM     16  C   UNL     1       1.499   8.861  18.230  0.00  0.00    +0.000 A 
ATOM     17  C   UNL     1       0.526   9.814  17.913  0.00  0.00    +0.000 A 
ENDBRANCH  10  15
ENDBRANCH   1  10
BRANCH   3  18
ATOM     18  C   UNL     1       3.594   3.866  16.517  0.00  0.00    +0.000 C 
BRANCH  18  19
ATOM     19  C   UNL     1       4.980   4.371  16.241  0.00  0.00    +0.000 A 
ATOM     20  C   UNL     1       5.566   4.337  14.966  0.00  0.00    +0.000 A 
ATOM     21  C   UNL     1       6.878   4.776  14.753  0.00  0.00    +0.000 A 
ATOM     22  C   UNL     1       7.706   5.192  15.773  0.00  0.00    +0.000 A 
ATOM     23  C   UNL     1       7.172   5.127  17.045  0.00  0.00    +0.000 A 
ATOM     24  C   UNL     1       5.844   4.755  17.266  0.00  0.00    +0.000 A 
ATOM     25  O   UNL     1       5.508   4.752  18.597  0.00  0.00    +0.000 OA
ATOM     26  C   UNL     1       6.756   4.979  19.302  0.00  0.00    +0.000 C 
ATOM     27  C   UNL     1       7.860   5.378  18.328  0.00  0.00    +0.000 C 
ATOM     28  O   UNL     1       7.287   4.720  13.446  0.00  0.00    +0.000 OA
ATOM     29  C   UNL     1       6.318   3.860  12.821  0.00  0.00    +0.000 C 
ATOM     30  C   UNL     1       5.037   3.851  13.663  0.00  0.00    +0.000 C 
ENDBRANCH  18  19
ENDBRANCH   3  18
TORSDOF 4
ENDMDL
MODEL 7
REMARK VINA RESULT:      -7.6      4.351      9.079
REMARK  Name = 
REMARK  5 active torsions:
REMARK  status: ('A' for Active; 'I' for Inactive)
REMARK    1  A    between atoms: C_1  and  C_2
REMARK    2  A    between atoms: C_5  and  C_6
REMARK    3  A    between atoms: C_6  and  N_7
REMARK    4  A    between atoms: N_9  and  C_10
REMARK    5  A    between atoms: C_10  and  C_11
REMARK                            x       y       z     vdW  Elec       q    Type
REMARK                         _______ _______ _______ _____ _____    ______ ____
ROOT
ATOM      1  N   UNL     1       0.941  10.716  18.720  0.00  0.00    +0.000 N 
ATOM      2  C   UNL     1       1.332  11.646  19.608  0.00  0.00    +0.000 A 
ATOM      3  N   UNL     1       0.290  12.444  19.896  0.00  0.00    +0.000 N 
ATOM      4  C   UNL     1      -0.848  11.933  19.273  0.00  0.00    +0.000 A 
ATOM      5  C   UNL     1      -2.178  12.354  19.271  0.00  0.00    +0.000 A 
ATOM      6  C   UNL     1      -3.065  11.609  18.479  0.00  0.00    +0.000 A 
ATOM      7  C   UNL     1      -2.640  10.495  17.730  0.00  0.00    +0.000 A 
ATOM      8  C   UNL     1      -1.303  10.081  17.730  0.00  0.00    +0.000 A 
ATOM      9  C   UNL     1      -0.428  10.829  18.517  0.00  0.00    +0.000 A 
ENDROOT
BRANCH   1  10
ATOM     10  C   UNL     1       1.861   9.822  18.009  0.00  0.00    +0.000 C 
BRANCH  10  15
ATOM     11  C   UNL     1       2.422   4.652  20.658  0.00  0.00    +0.000 C 
ATOM     12  C   UNL     1       2.250   5.965  19.953  0.00  0.00    +0.000 A 
ATOM     13  C   UNL     1       2.615   6.111  18.614  0.00  0.00    +0.000 A 
ATOM     14  C   UNL     1       2.468   7.340  17.965  0.00  0.00    +0.000 A 
ATOM     15  C   UNL     1       1.946   8.453  18.637  0.00  0.00    +0.000 A 
ATOM     16  C   UNL     1       1.592   8.301  19.990  0.00  0.00    +0.000 A 
ATOM     17  C   UNL     1       1.736   7.070  20.637  0.00  0.00    +0.000 A 
ENDBRANCH  10  15
ENDBRANCH   1  10
BRANCH   3  18
ATOM     18  C   UNL     1       0.416  13.726  20.606  0.00  0.00    +0.000 C 
BRANCH  18  19
ATOM     19  C   UNL     1       0.396  14.925  19.703  0.00  0.00    +0.000 A 
ATOM     20  C   UNL     1       1.517  15.353  18.975  0.00  0.00    +0.000 A 
ATOM     21  C   UNL     1       1.474  16.501  18.175  0.00  0.00    +0.000 A 
ATOM     22  C   UNL     1       0.375  17.327  18.105  0.00  0.00    +0.000 A 
ATOM     23  C   UNL     1      -0.697  16.971  18.900  0.00  0.00    +0.000 A 
ATOM     24  C   UNL     1      -0.693  15.793  19.653  0.00  0.00    +0.000 A 
ATOM     25  O   UNL     1      -1.848  15.622  20.375  0.00  0.00    +0.000 OA
ATOM     26  C   UNL     1      -2.586  16.861  20.208  0.00  0.00    +0.000 C 
ATOM     27  C   UNL     1      -1.944  17.729  19.130  0.00  0.00    +0.000 C 
ATOM     28  O   UNL     1       2.636  16.758  17.496  0.00  0.00    +0.000 OA
ATOM     29  C   UNL     1       3.613  15.940  18.164  0.00  0.00    +0.000 C 
ATOM     30  C   UNL     1       2.895  14.798  18.895  0.00  0.00    +0.000 C 
ENDBRANCH  18  19
ENDBRANCH   3  18
TORSDOF 4
ENDMDL
MODEL 8
REMARK VINA RESULT:      -7.6      4.214      8.897
REMARK  Name = 
REMARK  5 active torsions:
REMARK  status: ('A' for Active; 'I' for Inactive)
REMARK    1  A    between atoms: C_1  and  C_2
REMARK    2  A    between atoms: C_5  and  C_6
REMARK    3  A    between atoms: C_6  and  N_7
REMARK    4  A    between atoms: N_9  and  C_10
REMARK    5  A    between atoms: C_10  and  C_11
REMARK                            x       y       z     vdW  Elec       q    Type
REMARK                         _______ _______ _______ _____ _____    ______ ____
ROOT
ATOM      1  N   UNL     1       0.986  10.381  18.637  0.00  0.00    +0.000 N 
ATOM      2  C   UNL     1       1.414  11.276  19.544  0.00  0.00    +0.000 A 
ATOM      3  N   UNL     1       0.428  12.155  19.793  0.00  0.00    +0.000 N 
ATOM      4  C   UNL     1      -0.721  11.736  19.123  0.00  0.00    +0.000 A 
ATOM      5  C   UNL     1      -2.013  12.261  19.071  0.00  0.00    +0.000 A 
ATOM      6  C   UNL     1      -2.924  11.590  18.241  0.00  0.00    +0.000 A 
ATOM      7  C   UNL     1      -2.559  10.446  17.505  0.00  0.00    +0.000 A 
ATOM      8  C   UNL     1      -1.260   9.927  17.557  0.00  0.00    +0.000 A 
ATOM      9  C   UNL     1      -0.361  10.603  18.380  0.00  0.00    +0.000 A 
ENDROOT
BRANCH   1  10
ATOM     10  C   UNL     1       1.859   9.417  17.960  0.00  0.00    +0.000 C 
BRANCH  10  15
ATOM     11  C   UNL     1       2.280   4.317  20.767  0.00  0.00    +0.000 C 
ATOM     12  C   UNL     1       2.200   5.643  20.069  0.00  0.00    +0.000 A 
ATOM     13  C   UNL     1       1.734   6.776  20.738  0.00  0.00    +0.000 A 
ATOM     14  C   UNL     1       1.647   8.007  20.080  0.00  0.00    +0.000 A 
ATOM     15  C   UNL     1       2.029   8.136  18.739  0.00  0.00    +0.000 A 
ATOM     16  C   UNL     1       2.485   6.987  18.068  0.00  0.00    +0.000 A 
ATOM     17  C   UNL     1       2.576   5.757  18.728  0.00  0.00    +0.000 A 
ENDBRANCH  10  15
ENDBRANCH   1  10
BRANCH   3  18
ATOM     18  C   UNL     1       0.627  13.422  20.513  0.00  0.00    +0.000 C 
BRANCH  18  19
ATOM     19  C   UNL     1       0.779  14.613  19.612  0.00  0.00    +0.000 A 
ATOM     20  C   UNL     1       1.981  14.931  18.961  0.00  0.00    +0.000 A 
ATOM     21  C   UNL     1       2.099  16.075  18.162  0.00  0.00    +0.000 A 
ATOM     22  C   UNL     1       1.089  17.000  18.021  0.00  0.00    +0.000 A 
ATOM     23  C   UNL     1      -0.061  16.750  18.743  0.00  0.00    +0.000 A 
ATOM     24  C   UNL     1      -0.218  15.580  19.492  0.00  0.00    +0.000 A 
ATOM     25  O   UNL     1      -1.429  15.521  20.136  0.00  0.00    +0.000 OA
ATOM     26  C   UNL     1      -2.034  16.823  19.923  0.00  0.00    +0.000 C 
ATOM     27  C   UNL     1      -1.244  17.622  18.891  0.00  0.00    +0.000 C 
ATOM     28  O   UNL     1       3.322  16.219  17.561  0.00  0.00    +0.000 OA
ATOM     29  C   UNL     1       4.172  15.315  18.290  0.00  0.00    +0.000 C 
ATOM     30  C   UNL     1       3.303  14.249  18.970  0.00  0.00    +0.000 C 
ENDBRANCH  18  19
ENDBRANCH   3  18
TORSDOF 4
ENDMDL
MODEL 9
REMARK VINA RESULT:      -7.6      3.332      6.590
REMARK  Name = 
REMARK  5 active torsions:
REMARK  status: ('A' for Active; 'I' for Inactive)
REMARK    1  A    between atoms: C_1  and  C_2
REMARK    2  A    between atoms: C_5  and  C_6
REMARK    3  A    between atoms: C_6  and  N_7
REMARK    4  A    between atoms: N_9  and  C_10
REMARK    5  A    between atoms: C_10  and  C_11
REMARK                            x       y       z     vdW  Elec       q    Type
REMARK                         _______ _______ _______ _____ _____    ______ ____
ROOT
ATOM      1  N   UNL     1      -2.941  13.088  19.781  0.00  0.00    +0.000 N 
ATOM      2  C   UNL     1      -1.610  13.269  19.847  0.00  0.00    +0.000 A 
ATOM      3  N   UNL     1      -0.999  12.293  19.154  0.00  0.00    +0.000 N 
ATOM      4  C   UNL     1      -1.971  11.530  18.508  0.00  0.00    +0.000 A 
ATOM      5  C   UNL     1      -1.876  10.434  17.649  0.00  0.00    +0.000 A 
ATOM      6  C   UNL     1      -3.089   9.879  17.215  0.00  0.00    +0.000 A 
ATOM      7  C   UNL     1      -4.335  10.399  17.618  0.00  0.00    +0.000 A 
ATOM      8  C   UNL     1      -4.423  11.495  18.484  0.00  0.00    +0.000 A 
ATOM      9  C   UNL     1      -3.213  12.038  18.914  0.00  0.00    +0.000 A 
ENDROOT
BRANCH   1  10
ATOM     10  C   UNL     1      -3.911  13.822  20.600  0.00  0.00    +0.000 C 
BRANCH  10  15
ATOM     11  C   UNL     1      -2.004  15.511  25.851  0.00  0.00    +0.000 C 
ATOM     12  C   UNL     1      -2.457  15.081  24.486  0.00  0.00    +0.000 A 
ATOM     13  C   UNL     1      -2.466  15.982  23.420  0.00  0.00    +0.000 A 
ATOM     14  C   UNL     1      -2.904  15.583  22.153  0.00  0.00    +0.000 A 
ATOM     15  C   UNL     1      -3.337  14.271  21.921  0.00  0.00    +0.000 A 
ATOM     16  C   UNL     1      -3.338  13.373  23.003  0.00  0.00    +0.000 A 
ATOM     17  C   UNL     1      -2.895  13.773  24.269  0.00  0.00    +0.000 A 
ENDBRANCH  10  15
ENDBRANCH   1  10
BRANCH   3  18
ATOM     18  C   UNL     1       0.443  12.012  19.239  0.00  0.00    +0.000 C 
BRANCH  18  19
ATOM     19  C   UNL     1       0.769  10.724  19.937  0.00  0.00    +0.000 A 
ATOM     20  C   UNL     1       1.386   9.641  19.293  0.00  0.00    +0.000 A 
ATOM     21  C   UNL     1       1.637   8.438  19.965  0.00  0.00    +0.000 A 
ATOM     22  C   UNL     1       1.232   8.203  21.260  0.00  0.00    +0.000 A 
ATOM     23  C   UNL     1       0.530   9.226  21.866  0.00  0.00    +0.000 A 
ATOM     24  C   UNL     1       0.330  10.455  21.233  0.00  0.00    +0.000 A 
ATOM     25  O   UNL     1      -0.391  11.336  21.999  0.00  0.00    +0.000 OA
ATOM     26  C   UNL     1      -0.833  10.564  23.147  0.00  0.00    +0.000 C 
ATOM     27  C   UNL     1      -0.135   9.208  23.185  0.00  0.00    +0.000 C 
ATOM     28  O   UNL     1       2.285   7.496  19.210  0.00  0.00    +0.000 OA
ATOM     29  C   UNL     1       2.130   7.971  17.860  0.00  0.00    +0.000 C 
ATOM     30  C   UNL     1       1.849   9.478  17.889  0.00  0.00    +0.000 C 
ENDBRANCH  18  19
ENDBRANCH   3  18
TORSDOF 4
ENDMDL
