MODEL 1
REMARK VINA RESULT:      -7.6      0.000      0.000
REMARK  Name = 
REMARK  7 active torsions:
REMARK  status: ('A' for Active; 'I' for Inactive)
REMARK    1  A    between atoms: C_1  and  O_2
REMARK    2  A    between atoms: O_2  and  C_3
REMARK    3  A    between atoms: C_3  and  C_5
REMARK    4  A    between atoms: C_13  and  C_14
REMARK    5  A    between atoms: C_15  and  C_16
REMARK    6  A    between atoms: C_19  and  O_20
REMARK    7  A    between atoms: O_20  and  C_21
REMARK                            x       y       z     vdW  Elec       q    Type
REMARK                         _______ _______ _______ _____ _____    ______ ____
ROOT
ATOM      1  C   UNL     1       4.303   5.595  17.076  0.00  0.00    +0.000 A 
ATOM      2  S   UNL     1       4.676   3.936  16.846  0.00  0.00    +0.000 S 
ATOM      3  C   UNL     1       3.338   3.400  17.770  0.00  0.00    +0.000 A 
ATOM      4  C   UNL     1       2.985   2.061  18.029  0.00  0.00    +0.000 A 
ATOM      5  C   UNL     1       1.853   1.795  18.799  0.00  0.00    +0.000 A 
ATOM      6  C   UNL     1       1.089   2.836  19.302  0.00  0.00    +0.000 A 
ATOM      7  C   UNL     1       1.449   4.167  19.046  0.00  0.00    +0.000 A 
ATOM      8  C   UNL     1       2.597   4.473  18.266  0.00  0.00    +0.000 A 
ATOM      9  C   UNL     1       3.170   5.740  17.862  0.00  0.00    +0.000 A 
ENDROOT
BRANCH   1  10
ATOM     10  C   UNL     1       5.186   6.559  16.440  0.00  0.00    +0.000 C 
ATOM     11  O   UNL     1       5.234   6.810  15.239  0.00  0.00    +0.000 OA
BRANCH  10  13
ATOM     12  C   UNL     1       7.318   6.644  17.412  0.00  0.00    +0.000 C 
ATOM     13  O   UNL     1       5.992   7.170  17.355  0.00  0.00    +0.000 OA
ENDBRANCH  10  13
ENDBRANCH   1  10
BRANCH   9  14
ATOM     14  C   UNL     1       2.605   7.012  18.228  0.00  0.00    +0.000 C 
ATOM     15  C   UNL     1       2.110   8.052  18.576  0.00  0.00    +0.000 C 
BRANCH  15  16
ATOM     16  C   UNL     1       1.512   9.266  19.047  0.00  0.00    +0.000 A 
ATOM     17  C   UNL     1       0.780   9.280  20.234  0.00  0.00    +0.000 A 
ATOM     18  C   UNL     1       0.146  10.456  20.649  0.00  0.00    +0.000 A 
ATOM     19  C   UNL     1       0.254  11.630  19.900  0.00  0.00    +0.000 A 
ATOM     20  C   UNL     1       1.006  11.623  18.725  0.00  0.00    +0.000 A 
ATOM     21  C   UNL     1       1.632  10.442  18.301  0.00  0.00    +0.000 A 
BRANCH  19  22
ATOM     22  O   UNL     1      -0.469  12.688  20.377  0.00  0.00    +0.000 OA
ATOM     23  C   UNL     1      -1.610  12.378  21.168  0.00  0.00    +0.000 C 
ENDBRANCH  19  22
ENDBRANCH  15  16
ENDBRANCH   9  14
TORSDOF 5
ENDMDL
MODEL 2
REMARK VINA RESULT:      -7.6      0.510      1.124
REMARK  Name = 
REMARK  7 active torsions:
REMARK  status: ('A' for Active; 'I' for Inactive)
REMARK    1  A    between atoms: C_1  and  O_2
REMARK    2  A    between atoms: O_2  and  C_3
REMARK    3  A    between atoms: C_3  and  C_5
REMARK    4  A    between atoms: C_13  and  C_14
REMARK    5  A    between atoms: C_15  and  C_16
REMARK    6  A    between atoms: C_19  and  O_20
REMARK    7  A    between atoms: O_20  and  C_21
REMARK                            x       y       z     vdW  Elec       q    Type
REMARK                         _______ _______ _______ _____ _____    ______ ____
ROOT
ATOM      1  C   UNL     1       4.305   5.573  17.076  0.00  0.00    +0.000 A 
ATOM      2  S   UNL     1       4.667   3.904  16.908  0.00  0.00    +0.000 S 
ATOM      3  C   UNL     1       3.318   3.412  17.839  0.00  0.00    +0.000 A 
ATOM      4  C   UNL     1       2.952   2.086  18.143  0.00  0.00    +0.000 A 
ATOM      5  C   UNL     1       1.811   1.855  18.912  0.00  0.00    +0.000 A 
ATOM      6  C   UNL     1       1.052   2.919  19.371  0.00  0.00    +0.000 A 
ATOM      7  C   UNL     1       1.423   4.237  19.070  0.00  0.00    +0.000 A 
ATOM      8  C   UNL     1       2.580   4.507  18.290  0.00  0.00    +0.000 A 
ATOM      9  C   UNL     1       3.166   5.755  17.846  0.00  0.00    +0.000 A 
ENDROOT
BRANCH   1  10
ATOM     10  C   UNL     1       5.201   6.507  16.413  0.00  0.00    +0.000 C 
ATOM     11  O   UNL     1       5.278   6.696  15.203  0.00  0.00    +0.000 OA
BRANCH  10  13
ATOM     12  C   UNL     1       7.321   6.681  17.399  0.00  0.00    +0.000 C 
ATOM     13  O   UNL     1       5.982   7.168  17.316  0.00  0.00    +0.000 OA
ENDBRANCH  10  13
ENDBRANCH   1  10
BRANCH   9  14
ATOM     14  C   UNL     1       2.608   7.043  18.161  0.00  0.00    +0.000 C 
ATOM     15  C   UNL     1       2.119   8.098  18.467  0.00  0.00    +0.000 C 
BRANCH  15  16
ATOM     16  C   UNL     1       1.530   9.334  18.892  0.00  0.00    +0.000 A 
ATOM     17  C   UNL     1       1.799  10.519  18.207  0.00  0.00    +0.000 A 
ATOM     18  C   UNL     1       1.271  11.728  18.670  0.00  0.00    +0.000 A 
ATOM     19  C   UNL     1       0.455  11.765  19.803  0.00  0.00    +0.000 A 
ATOM     20  C   UNL     1       0.166  10.578  20.475  0.00  0.00    +0.000 A 
ATOM     21  C   UNL     1       0.704   9.366  20.019  0.00  0.00    +0.000 A 
BRANCH  19  22
ATOM     22  O   UNL     1       0.062  13.017  20.190  0.00  0.00    +0.000 OA
ATOM     23  C   UNL     1       0.376  13.402  21.523  0.00  0.00    +0.000 C 
ENDBRANCH  19  22
ENDBRANCH  15  16
ENDBRANCH   9  14
TORSDOF 5
ENDMDL
MODEL 3
REMARK VINA RESULT:      -7.5      2.525      3.936
REMARK  Name = 
REMARK  7 active torsions:
REMARK  status: ('A' for Active; 'I' for Inactive)
REMARK    1  A    between atoms: C_1  and  O_2
REMARK    2  A    between atoms: O_2  and  C_3
REMARK    3  A    between atoms: C_3  and  C_5
REMARK    4  A    between atoms: C_13  and  C_14
REMARK    5  A    between atoms: C_15  and  C_16
REMARK    6  A    between atoms: C_19  and  O_20
REMARK    7  A    between atoms: O_20  and  C_21
REMARK                            x       y       z     vdW  Elec       q    Type
REMARK                         _______ _______ _______ _____ _____    ______ ____
ROOT
ATOM      1  C   UNL     1       2.360   4.073  18.670  0.00  0.00    +0.000 A 
ATOM      2  S   UNL     1       3.184   2.932  17.690  0.00  0.00    +0.000 S 
ATOM      3  C   UNL     1       4.191   4.118  16.974  0.00  0.00    +0.000 A 
ATOM      4  C   UNL     1       5.189   3.892  16.007  0.00  0.00    +0.000 A 
ATOM      5  C   UNL     1       5.930   4.974  15.531  0.00  0.00    +0.000 A 
ATOM      6  C   UNL     1       5.682   6.253  16.004  0.00  0.00    +0.000 A 
ATOM      7  C   UNL     1       4.683   6.472  16.963  0.00  0.00    +0.000 A 
ATOM      8  C   UNL     1       3.910   5.392  17.469  0.00  0.00    +0.000 A 
ATOM      9  C   UNL     1       2.842   5.354  18.447  0.00  0.00    +0.000 A 
ENDROOT
BRANCH   1  10
ATOM     10  C   UNL     1       1.328   3.553  19.552  0.00  0.00    +0.000 C 
ATOM     11  O   UNL     1       0.400   2.820  19.222  0.00  0.00    +0.000 OA
BRANCH  10  13
ATOM     12  C   UNL     1       2.292   3.122  21.645  0.00  0.00    +0.000 C 
ATOM     13  O   UNL     1       1.504   3.991  20.832  0.00  0.00    +0.000 OA
ENDBRANCH  10  13
ENDBRANCH   1  10
BRANCH   9  14
ATOM     14  C   UNL     1       2.352   6.525  19.123  0.00  0.00    +0.000 C 
ATOM     15  C   UNL     1       1.916   7.473  19.722  0.00  0.00    +0.000 C 
BRANCH  15  16
ATOM     16  C   UNL     1       1.385   8.564  20.484  0.00  0.00    +0.000 A 
ATOM     17  C   UNL     1       1.192   8.439  21.860  0.00  0.00    +0.000 A 
ATOM     18  C   UNL     1       0.612   9.487  22.582  0.00  0.00    +0.000 A 
ATOM     19  C   UNL     1       0.240  10.674  21.945  0.00  0.00    +0.000 A 
ATOM     20  C   UNL     1       0.454  10.809  20.574  0.00  0.00    +0.000 A 
ATOM     21  C   UNL     1       1.025   9.755  19.847  0.00  0.00    +0.000 A 
BRANCH  19  22
ATOM     22  O   UNL     1      -0.378  11.590  22.750  0.00  0.00    +0.000 OA
ATOM     23  C   UNL     1      -1.749  11.355  23.051  0.00  0.00    +0.000 C 
ENDBRANCH  19  22
ENDBRANCH  15  16
ENDBRANCH   9  14
TORSDOF 5
ENDMDL
MODEL 4
REMARK VINA RESULT:      -7.5      1.242      1.523
REMARK  Name = 
REMARK  7 active torsions:
REMARK  status: ('A' for Active; 'I' for Inactive)
REMARK    1  A    between atoms: C_1  and  O_2
REMARK    2  A    between atoms: O_2  and  C_3
REMARK    3  A    between atoms: C_3  and  C_5
REMARK    4  A    between atoms: C_13  and  C_14
REMARK    5  A    between atoms: C_15  and  C_16
REMARK    6  A    between atoms: C_19  and  O_20
REMARK    7  A    between atoms: O_20  and  C_21
REMARK                            x       y       z     vdW  Elec       q    Type
REMARK                         _______ _______ _______ _____ _____    ______ ____
ROOT
ATOM      1  C   UNL     1       4.254   5.828  17.410  0.00  0.00    +0.000 A 
ATOM      2  S   UNL     1       4.631   4.162  17.575  0.00  0.00    +0.000 S 
ATOM      3  C   UNL     1       3.293   3.854  18.598  0.00  0.00    +0.000 A 
ATOM      4  C   UNL     1       2.942   2.612  19.163  0.00  0.00    +0.000 A 
ATOM      5  C   UNL     1       1.809   2.530  19.972  0.00  0.00    +0.000 A 
ATOM      6  C   UNL     1       1.043   3.659  20.217  0.00  0.00    +0.000 A 
ATOM      7  C   UNL     1       1.400   4.893  19.657  0.00  0.00    +0.000 A 
ATOM      8  C   UNL     1       2.549   5.011  18.828  0.00  0.00    +0.000 A 
ATOM      9  C   UNL     1       3.120   6.150  18.139  0.00  0.00    +0.000 A 
ENDROOT
BRANCH   1  10
ATOM     10  C   UNL     1       5.137   6.618  16.567  0.00  0.00    +0.000 C 
ATOM     11  O   UNL     1       5.122   6.651  15.340  0.00  0.00    +0.000 OA
BRANCH  10  13
ATOM     12  C   UNL     1       7.348   6.812  17.320  0.00  0.00    +0.000 C 
ATOM     13  O   UNL     1       6.022   7.338  17.315  0.00  0.00    +0.000 OA
ENDBRANCH  10  13
ENDBRANCH   1  10
BRANCH   9  14
ATOM     14  C   UNL     1       2.552   7.471  18.197  0.00  0.00    +0.000 C 
ATOM     15  C   UNL     1       2.029   8.553  18.242  0.00  0.00    +0.000 C 
BRANCH  15  16
ATOM     16  C   UNL     1       1.353   9.815  18.314  0.00  0.00    +0.000 A 
ATOM     17  C   UNL     1       2.078  11.005  18.376  0.00  0.00    +0.000 A 
ATOM     18  C   UNL     1       1.408  12.224  18.512  0.00  0.00    +0.000 A 
ATOM     19  C   UNL     1       0.012  12.272  18.567  0.00  0.00    +0.000 A 
ATOM     20  C   UNL     1      -0.715  11.085  18.481  0.00  0.00    +0.000 A 
ATOM     21  C   UNL     1      -0.044   9.860  18.356  0.00  0.00    +0.000 A 
BRANCH  19  22
ATOM     22  O   UNL     1      -0.515  13.517  18.771  0.00  0.00    +0.000 OA
ATOM     23  C   UNL     1       0.411  14.584  18.937  0.00  0.00    +0.000 C 
ENDBRANCH  19  22
ENDBRANCH  15  16
ENDBRANCH   9  14
TORSDOF 5
ENDMDL
MODEL 5
REMARK VINA RESULT:      -7.4      2.551      4.035
REMARK  Name = 
REMARK  7 active torsions:
REMARK  status: ('A' for Active; 'I' for Inactive)
REMARK    1  A    between atoms: C_1  and  O_2
REMARK    2  A    between atoms: O_2  and  C_3
REMARK    3  A    between atoms: C_3  and  C_5
REMARK    4  A    between atoms: C_13  and  C_14
REMARK    5  A    between atoms: C_15  and  C_16
REMARK    6  A    between atoms: C_19  and  O_20
REMARK    7  A    between atoms: O_20  and  C_21
REMARK                            x       y       z     vdW  Elec       q    Type
REMARK                         _______ _______ _______ _____ _____    ______ ____
ROOT
ATOM      1  C   UNL     1       2.989   4.009  19.337  0.00  0.00    +0.000 A 
ATOM      2  S   UNL     1       3.927   2.970  18.345  0.00  0.00    +0.000 S 
ATOM      3  C   UNL     1       4.491   4.250  17.358  0.00  0.00    +0.000 A 
ATOM      4  C   UNL     1       5.367   4.136  16.262  0.00  0.00    +0.000 A 
ATOM      5  C   UNL     1       5.737   5.286  15.565  0.00  0.00    +0.000 A 
ATOM      6  C   UNL     1       5.245   6.524  15.949  0.00  0.00    +0.000 A 
ATOM      7  C   UNL     1       4.369   6.631  17.038  0.00  0.00    +0.000 A 
ATOM      8  C   UNL     1       3.972   5.479  17.769  0.00  0.00    +0.000 A 
ATOM      9  C   UNL     1       3.097   5.325  18.913  0.00  0.00    +0.000 A 
ENDROOT
BRANCH   1  10
ATOM     10  C   UNL     1       2.256   3.386  20.427  0.00  0.00    +0.000 C 
ATOM     11  O   UNL     1       2.743   2.948  21.466  0.00  0.00    +0.000 OA
BRANCH  10  13
ATOM     12  C   UNL     1       0.580   2.505  19.045  0.00  0.00    +0.000 C 
ATOM     13  O   UNL     1       0.919   3.332  20.158  0.00  0.00    +0.000 OA
ENDBRANCH  10  13
ENDBRANCH   1  10
BRANCH   9  14
ATOM     14  C   UNL     1       2.428   6.430  19.548  0.00  0.00    +0.000 C 
ATOM     15  C   UNL     1       1.901   7.386  20.051  0.00  0.00    +0.000 C 
BRANCH  15  16
ATOM     16  C   UNL     1       1.296   8.562  20.605  0.00  0.00    +0.000 A 
ATOM     17  C   UNL     1       1.026   8.643  21.970  0.00  0.00    +0.000 A 
ATOM     18  C   UNL     1       0.375   9.767  22.487  0.00  0.00    +0.000 A 
ATOM     19  C   UNL     1       0.008  10.828  21.655  0.00  0.00    +0.000 A 
ATOM     20  C   UNL     1       0.299  10.758  20.293  0.00  0.00    +0.000 A 
ATOM     21  C   UNL     1       0.940   9.625  19.770  0.00  0.00    +0.000 A 
BRANCH  19  22
ATOM     22  O   UNL     1      -0.683  11.834  22.272  0.00  0.00    +0.000 OA
ATOM     23  C   UNL     1      -1.729  11.443  23.154  0.00  0.00    +0.000 C 
ENDBRANCH  19  22
ENDBRANCH  15  16
ENDBRANCH   9  14
TORSDOF 5
ENDMDL
MODEL 6
REMARK VINA RESULT:      -7.4      2.504      4.130
REMARK  Name = 
REMARK  7 active torsions:
REMARK  status: ('A' for Active; 'I' for Inactive)
REMARK    1  A    between atoms: C_1  and  O_2
REMARK    2  A    between atoms: O_2  and  C_3
REMARK    3  A    between atoms: C_3  and  C_5
REMARK    4  A    between atoms: C_13  and  C_14
REMARK    5  A    between atoms: C_15  and  C_16
REMARK    6  A    between atoms: C_19  and  O_20
REMARK    7  A    between atoms: O_20  and  C_21
REMARK                            x       y       z     vdW  Elec       q    Type
REMARK                         _______ _______ _______ _____ _____    ______ ____
ROOT
ATOM      1  C   UNL     1       3.097   4.090  19.223  0.00  0.00    +0.000 A 
ATOM      2  S   UNL     1       3.980   3.037  18.195  0.00  0.00    +0.000 S 
ATOM      3  C   UNL     1       4.518   4.309  17.183  0.00  0.00    +0.000 A 
ATOM      4  C   UNL     1       5.347   4.182  16.051  0.00  0.00    +0.000 A 
ATOM      5  C   UNL     1       5.701   5.327  15.337  0.00  0.00    +0.000 A 
ATOM      6  C   UNL     1       5.240   6.571  15.738  0.00  0.00    +0.000 A 
ATOM      7  C   UNL     1       4.411   6.691  16.862  0.00  0.00    +0.000 A 
ATOM      8  C   UNL     1       4.031   5.545  17.612  0.00  0.00    +0.000 A 
ATOM      9  C   UNL     1       3.203   5.403  18.792  0.00  0.00    +0.000 A 
ENDROOT
BRANCH   1  10
ATOM     10  C   UNL     1       2.403   3.478  20.344  0.00  0.00    +0.000 C 
ATOM     11  O   UNL     1       2.381   3.902  21.497  0.00  0.00    +0.000 OA
BRANCH  10  13
ATOM     12  C   UNL     1       0.604   2.553  19.160  0.00  0.00    +0.000 C 
ATOM     13  O   UNL     1       1.762   2.335  19.966  0.00  0.00    +0.000 OA
ENDBRANCH  10  13
ENDBRANCH   1  10
BRANCH   9  14
ATOM     14  C   UNL     1       2.575   6.517  19.451  0.00  0.00    +0.000 C 
ATOM     15  C   UNL     1       2.011   7.446  19.966  0.00  0.00    +0.000 C 
BRANCH  15  16
ATOM     16  C   UNL     1       1.287   8.537  20.550  0.00  0.00    +0.000 A 
ATOM     17  C   UNL     1       0.865   9.609  19.764  0.00  0.00    +0.000 A 
ATOM     18  C   UNL     1       0.217  10.697  20.357  0.00  0.00    +0.000 A 
ATOM     19  C   UNL     1      -0.035  10.717  21.731  0.00  0.00    +0.000 A 
ATOM     20  C   UNL     1       0.365   9.635  22.514  0.00  0.00    +0.000 A 
ATOM     21  C   UNL     1       1.025   8.548  21.923  0.00  0.00    +0.000 A 
BRANCH  19  22
ATOM     22  O   UNL     1      -0.611  11.868  22.194  0.00  0.00    +0.000 OA
ATOM     23  C   UNL     1      -1.743  11.719  23.044  0.00  0.00    +0.000 C 
ENDBRANCH  19  22
ENDBRANCH  15  16
ENDBRANCH   9  14
TORSDOF 5
ENDMDL
MODEL 7
REMARK VINA RESULT:      -7.4      2.452      4.034
REMARK  Name = 
REMARK  7 active torsions:
REMARK  status: ('A' for Active; 'I' for Inactive)
REMARK    1  A    between atoms: C_1  and  O_2
REMARK    2  A    between atoms: O_2  and  C_3
REMARK    3  A    between atoms: C_3  and  C_5
REMARK    4  A    between atoms: C_13  and  C_14
REMARK    5  A    between atoms: C_15  and  C_16
REMARK    6  A    between atoms: C_19  and  O_20
REMARK    7  A    between atoms: O_20  and  C_21
REMARK                            x       y       z     vdW  Elec       q    Type
REMARK                         _______ _______ _______ _____ _____    ______ ____
ROOT
ATOM      1  C   UNL     1       2.809   3.861  18.559  0.00  0.00    +0.000 A 
ATOM      2  S   UNL     1       3.717   2.738  17.633  0.00  0.00    +0.000 S 
ATOM      3  C   UNL     1       4.564   3.962  16.787  0.00  0.00    +0.000 A 
ATOM      4  C   UNL     1       5.547   3.766  15.798  0.00  0.00    +0.000 A 
ATOM      5  C   UNL     1       6.150   4.878  15.210  0.00  0.00    +0.000 A 
ATOM      6  C   UNL     1       5.782   6.157  15.596  0.00  0.00    +0.000 A 
ATOM      7  C   UNL     1       4.799   6.346  16.577  0.00  0.00    +0.000 A 
ATOM      8  C   UNL     1       4.165   5.235  17.196  0.00  0.00    +0.000 A 
ATOM      9  C   UNL     1       3.142   5.163  18.219  0.00  0.00    +0.000 A 
ENDROOT
BRANCH   1  10
ATOM     10  C   UNL     1       1.870   3.308  19.521  0.00  0.00    +0.000 C 
ATOM     11  O   UNL     1       0.652   3.458  19.508  0.00  0.00    +0.000 OA
BRANCH  10  13
ATOM     12  C   UNL     1       2.230   2.997  21.817  0.00  0.00    +0.000 C 
ATOM     13  O   UNL     1       2.514   2.582  20.481  0.00  0.00    +0.000 OA
ENDBRANCH  10  13
ENDBRANCH   1  10
BRANCH   9  14
ATOM     14  C   UNL     1       2.552   6.327  18.826  0.00  0.00    +0.000 C 
ATOM     15  C   UNL     1       2.051   7.271  19.376  0.00  0.00    +0.000 C 
BRANCH  15  16
ATOM     16  C   UNL     1       1.464   8.368  20.088  0.00  0.00    +0.000 A 
ATOM     17  C   UNL     1       1.117   9.541  19.419  0.00  0.00    +0.000 A 
ATOM     18  C   UNL     1       0.606  10.628  20.136  0.00  0.00    +0.000 A 
ATOM     19  C   UNL     1       0.418  10.550  21.518  0.00  0.00    +0.000 A 
ATOM     20  C   UNL     1       0.744   9.369  22.185  0.00  0.00    +0.000 A 
ATOM     21  C   UNL     1       1.267   8.282  21.469  0.00  0.00    +0.000 A 
BRANCH  19  22
ATOM     22  O   UNL     1      -0.020  11.703  22.107  0.00  0.00    +0.000 OA
ATOM     23  C   UNL     1      -1.166  11.598  22.944  0.00  0.00    +0.000 C 
ENDBRANCH  19  22
ENDBRANCH  15  16
ENDBRANCH   9  14
TORSDOF 5
ENDMDL
MODEL 8
REMARK VINA RESULT:      -7.2      3.380      8.120
REMARK  Name = 
REMARK  7 active torsions:
REMARK  status: ('A' for Active; 'I' for Inactive)
REMARK    1  A    between atoms: C_1  and  O_2
REMARK    2  A    between atoms: O_2  and  C_3
REMARK    3  A    between atoms: C_3  and  C_5
REMARK    4  A    between atoms: C_13  and  C_14
REMARK    5  A    between atoms: C_15  and  C_16
REMARK    6  A    between atoms: C_19  and  O_20
REMARK    7  A    between atoms: O_20  and  C_21
REMARK                            x       y       z     vdW  Elec       q    Type
REMARK                         _______ _______ _______ _____ _____    ______ ____
ROOT
ATOM      1  C   UNL     1      -0.476  11.365  20.105  0.00  0.00    +0.000 A 
ATOM      2  S   UNL     1      -1.898  12.318  19.977  0.00  0.00    +0.000 S 
ATOM      3  C   UNL     1      -2.433  11.515  18.562  0.00  0.00    +0.000 A 
ATOM      4  C   UNL     1      -3.615  11.784  17.846  0.00  0.00    +0.000 A 
ATOM      5  C   UNL     1      -3.910  11.028  16.712  0.00  0.00    +0.000 A 
ATOM      6  C   UNL     1      -3.047  10.026  16.297  0.00  0.00    +0.000 A 
ATOM      7  C   UNL     1      -1.868   9.766  17.011  0.00  0.00    +0.000 A 
ATOM      8  C   UNL     1      -1.538  10.519  18.170  0.00  0.00    +0.000 A 
ATOM      9  C   UNL     1      -0.405  10.446  19.069  0.00  0.00    +0.000 A 
ENDROOT
BRANCH   1  10
ATOM     10  C   UNL     1       0.401  11.647  21.230  0.00  0.00    +0.000 C 
ATOM     11  O   UNL     1       1.523  12.141  21.163  0.00  0.00    +0.000 OA
BRANCH  10  13
ATOM     12  C   UNL     1      -0.092   9.886  22.697  0.00  0.00    +0.000 C 
ATOM     13  O   UNL     1      -0.176  11.282  22.411  0.00  0.00    +0.000 OA
ENDBRANCH  10  13
ENDBRANCH   1  10
BRANCH   9  14
ATOM     14  C   UNL     1       0.670   9.503  18.906  0.00  0.00    +0.000 C 
ATOM     15  C   UNL     1       1.535   8.677  18.782  0.00  0.00    +0.000 C 
BRANCH  15  16
ATOM     16  C   UNL     1       2.521   7.647  18.628  0.00  0.00    +0.000 A 
ATOM     17  C   UNL     1       3.367   7.638  17.521  0.00  0.00    +0.000 A 
ATOM     18  C   UNL     1       4.280   6.593  17.348  0.00  0.00    +0.000 A 
ATOM     19  C   UNL     1       4.372   5.561  18.286  0.00  0.00    +0.000 A 
ATOM     20  C   UNL     1       3.541   5.582  19.406  0.00  0.00    +0.000 A 
ATOM     21  C   UNL     1       2.618   6.623  19.575  0.00  0.00    +0.000 A 
BRANCH  19  22
ATOM     22  O   UNL     1       5.253   4.566  17.965  0.00  0.00    +0.000 OA
ATOM     23  C   UNL     1       6.634   4.906  17.977  0.00  0.00    +0.000 C 
ENDBRANCH  19  22
ENDBRANCH  15  16
ENDBRANCH   9  14
TORSDOF 5
ENDMDL
MODEL 9
REMARK VINA RESULT:      -7.1      2.269      3.754
REMARK  Name = 
REMARK  7 active torsions:
REMARK  status: ('A' for Active; 'I' for Inactive)
REMARK    1  A    between atoms: C_1  and  O_2
REMARK    2  A    between atoms: O_2  and  C_3
REMARK    3  A    between atoms: C_3  and  C_5
REMARK    4  A    between atoms: C_13  and  C_14
REMARK    5  A    between atoms: C_15  and  C_16
REMARK    6  A    between atoms: C_19  and  O_20
REMARK    7  A    between atoms: O_20  and  C_21
REMARK                            x       y       z     vdW  Elec       q    Type
REMARK                         _______ _______ _______ _____ _____    ______ ____
ROOT
ATOM      1  C   UNL     1       2.842   4.110  18.503  0.00  0.00    +0.000 A 
ATOM      2  S   UNL     1       3.708   2.852  17.720  0.00  0.00    +0.000 S 
ATOM      3  C   UNL     1       4.622   3.938  16.762  0.00  0.00    +0.000 A 
ATOM      4  C   UNL     1       5.606   3.591  15.816  0.00  0.00    +0.000 A 
ATOM      5  C   UNL     1       6.268   4.604  15.122  0.00  0.00    +0.000 A 
ATOM      6  C   UNL     1       5.956   5.933  15.361  0.00  0.00    +0.000 A 
ATOM      7  C   UNL     1       4.971   6.272  16.300  0.00  0.00    +0.000 A 
ATOM      8  C   UNL     1       4.278   5.264  17.024  0.00  0.00    +0.000 A 
ATOM      9  C   UNL     1       3.241   5.351  18.031  0.00  0.00    +0.000 A 
ENDROOT
BRANCH   1  10
ATOM     10  C   UNL     1       1.867   3.707  19.503  0.00  0.00    +0.000 C 
ATOM     11  O   UNL     1       0.801   3.139  19.283  0.00  0.00    +0.000 OA
BRANCH  10  13
ATOM     12  C   UNL     1       2.080   3.026  21.736  0.00  0.00    +0.000 C 
ATOM     13  O   UNL     1       2.275   4.048  20.759  0.00  0.00    +0.000 OA
ENDBRANCH  10  13
ENDBRANCH   1  10
BRANCH   9  14
ATOM     14  C   UNL     1       2.698   6.599  18.498  0.00  0.00    +0.000 C 
ATOM     15  C   UNL     1       2.212   7.642  18.847  0.00  0.00    +0.000 C 
BRANCH  15  16
ATOM     16  C   UNL     1       1.583   8.872  19.228  0.00  0.00    +0.000 A 
ATOM     17  C   UNL     1       0.990   9.005  20.483  0.00  0.00    +0.000 A 
ATOM     18  C   UNL     1       0.321  10.187  20.817  0.00  0.00    +0.000 A 
ATOM     19  C   UNL     1       0.256  11.252  19.915  0.00  0.00    +0.000 A 
ATOM     20  C   UNL     1       0.869  11.129  18.668  0.00  0.00    +0.000 A 
ATOM     21  C   UNL     1       1.529   9.940  18.327  0.00  0.00    +0.000 A 
BRANCH  19  22
ATOM     22  O   UNL     1      -0.485  12.321  20.337  0.00  0.00    +0.000 OA
ATOM     23  C   UNL     1      -1.059  13.141  19.325  0.00  0.00    +0.000 C 
ENDBRANCH  19  22
ENDBRANCH  15  16
ENDBRANCH   9  14
TORSDOF 5
ENDMDL
