MODEL 1
REMARK VINA RESULT:      -8.6      0.000      0.000
REMARK  Name = 
REMARK  9 active torsions:
REMARK  status: ('A' for Active; 'I' for Inactive)
REMARK    1  A    between atoms: C_1  and  S_2
REMARK    2  A    between atoms: S_2  and  C_3
REMARK    3  A    between atoms: C_6  and  C_7
REMARK    4  A    between atoms: N_9  and  C_10
REMARK    5  A    between atoms: C_14  and  O_15
REMARK    6  A    between atoms: C_16  and  N_17
REMARK    7  A    between atoms: C_18  and  C_20
REMARK    8  A    between atoms: C_23  and  N_24
REMARK    9  A    between atoms: N_28  and  C_29
REMARK                            x       y       z     vdW  Elec       q    Type
REMARK                         _______ _______ _______ _____ _____    ______ ____
ROOT
ATOM      1  C   UNL     1       4.639   5.688  17.411  0.00  0.00    +0.000 A 
ATOM      2  C   UNL     1       4.257   4.377  17.093  0.00  0.00    +0.000 A 
ATOM      3  C   UNL     1       5.046   3.582  16.259  0.00  0.00    +0.000 A 
ATOM      4  C   UNL     1       6.203   4.104  15.689  0.00  0.00    +0.000 A 
ATOM      5  C   UNL     1       6.588   5.407  15.998  0.00  0.00    +0.000 A 
ATOM      6  C   UNL     1       5.856   6.190  16.904  0.00  0.00    +0.000 A 
ENDROOT
BRANCH   1   9
ATOM      7  C   UNL     1       3.079   7.575  17.719  0.00  0.00    +0.000 C 
ATOM      8  O   UNL     1       3.183   8.000  16.569  0.00  0.00    +0.000 OA
ATOM      9  N   UNL     1       3.782   6.489  18.208  0.00  0.00    +0.000 N 
ATOM     10  H   UNL     1       3.885   6.364  19.209  0.00  0.00    +0.000 HD
BRANCH   7  14
ATOM     11  C   UNL     1       0.680   9.669  20.633  0.00  0.00    +0.000 A 
ATOM     12  C   UNL     1       1.230   8.418  20.907  0.00  0.00    +0.000 A 
ATOM     13  C   UNL     1       1.973   7.749  19.930  0.00  0.00    +0.000 A 
ATOM     14  C   UNL     1       2.173   8.312  18.657  0.00  0.00    +0.000 A 
ATOM     15  C   UNL     1       1.583   9.547  18.368  0.00  0.00    +0.000 A 
ATOM     16  C   UNL     1       0.834  10.214  19.353  0.00  0.00    +0.000 A 
BRANCH  11  18
ATOM     17  C   UNL     1       0.018   9.466  23.300  0.00  0.00    +0.000 C 
ATOM     18  S   UNL     1      -0.225  10.570  21.878  0.00  0.00    +0.000 S 
ENDBRANCH  11  18
ENDBRANCH   7  14
ENDBRANCH   1   9
BRANCH   6  19
ATOM     19  N   UNL     1       6.395   7.473  17.199  0.00  0.00    +0.000 N 
ATOM     20  C   UNL     1       7.522   7.637  17.973  0.00  0.00    +0.000 C 
ATOM     21  O   UNL     1       8.097   6.708  18.540  0.00  0.00    +0.000 OA
ATOM     22  H   UNL     1       6.183   8.171  16.497  0.00  0.00    +0.000 HD
BRANCH  20  23
ATOM     23  C   UNL     1       8.090   8.999  18.145  0.00  0.00    +0.000 A 
ATOM     24  C   UNL     1       9.002   9.140  19.194  0.00  0.00    +0.000 A 
ATOM     25  C   UNL     1       9.675  10.335  19.410  0.00  0.00    +0.000 A 
ATOM     26  C   UNL     1       9.484  11.440  18.574  0.00  0.00    +0.000 A 
ATOM     27  C   UNL     1       8.502  11.321  17.569  0.00  0.00    +0.000 A 
ATOM     28  C   UNL     1       7.814  10.112  17.343  0.00  0.00    +0.000 A 
BRANCH  26  29
ATOM     29  N   UNL     1      10.283  12.570  18.689  0.00  0.00    +0.000 N 
ATOM     30  C   UNL     1      11.056  12.772  19.918  0.00  0.00    +0.000 C 
ATOM     31  C   UNL     1      10.545  13.925  20.776  0.00  0.00    +0.000 C 
ATOM     32  C   UNL     1      10.879  15.282  20.155  0.00  0.00    +0.000 C 
ATOM     33  N   UNL     1       9.903  15.809  19.195  0.00  0.00    +0.000 NA
ATOM     34  C   UNL     1      10.486  16.914  18.435  0.00  0.00    +0.000 C 
ATOM     35  C   UNL     1       9.270  14.811  18.310  0.00  0.00    +0.000 C 
ATOM     36  C   UNL     1      10.170  13.686  17.743  0.00  0.00    +0.000 C 
ENDBRANCH  26  29
ENDBRANCH  20  23
ENDBRANCH   6  19
BRANCH   5  37
ATOM     37  O   UNL     1       7.728   5.942  15.446  0.00  0.00    +0.000 OA
ATOM     38  H   UNL     1       8.494   5.549  15.898  0.00  0.00    +0.000 HD
ENDBRANCH   5  37
TORSDOF 7
ENDMDL
MODEL 2
REMARK VINA RESULT:      -8.4      1.153      1.785
REMARK  Name = 
REMARK  9 active torsions:
REMARK  status: ('A' for Active; 'I' for Inactive)
REMARK    1  A    between atoms: C_1  and  S_2
REMARK    2  A    between atoms: S_2  and  C_3
REMARK    3  A    between atoms: C_6  and  C_7
REMARK    4  A    between atoms: N_9  and  C_10
REMARK    5  A    between atoms: C_14  and  O_15
REMARK    6  A    between atoms: C_16  and  N_17
REMARK    7  A    between atoms: C_18  and  C_20
REMARK    8  A    between atoms: C_23  and  N_24
REMARK    9  A    between atoms: N_28  and  C_29
REMARK                            x       y       z     vdW  Elec       q    Type
REMARK                         _______ _______ _______ _____ _____    ______ ____
ROOT
ATOM      1  C   UNL     1       4.666   5.980  17.016  0.00  0.00    +0.000 A 
ATOM      2  C   UNL     1       4.193   4.706  16.671  0.00  0.00    +0.000 A 
ATOM      3  C   UNL     1       4.978   3.827  15.922  0.00  0.00    +0.000 A 
ATOM      4  C   UNL     1       6.228   4.228  15.462  0.00  0.00    +0.000 A 
ATOM      5  C   UNL     1       6.705   5.494  15.798  0.00  0.00    +0.000 A 
ATOM      6  C   UNL     1       5.968   6.357  16.624  0.00  0.00    +0.000 A 
ENDROOT
BRANCH   1   9
ATOM      7  C   UNL     1       3.039   6.490  18.799  0.00  0.00    +0.000 C 
ATOM      8  O   UNL     1       2.943   5.332  19.204  0.00  0.00    +0.000 OA
ATOM      9  N   UNL     1       3.818   6.871  17.722  0.00  0.00    +0.000 N 
ATOM     10  H   UNL     1       3.640   7.754  17.256  0.00  0.00    +0.000 HD
BRANCH   7  14
ATOM     11  C   UNL     1       0.503   9.522  20.535  0.00  0.00    +0.000 A 
ATOM     12  C   UNL     1       1.055   9.674  19.264  0.00  0.00    +0.000 A 
ATOM     13  C   UNL     1       1.901   8.691  18.743  0.00  0.00    +0.000 A 
ATOM     14  C   UNL     1       2.219   7.540  19.485  0.00  0.00    +0.000 A 
ATOM     15  C   UNL     1       1.702   7.409  20.779  0.00  0.00    +0.000 A 
ATOM     16  C   UNL     1       0.854   8.402  21.298  0.00  0.00    +0.000 A 
BRANCH  11  18
ATOM     17  C   UNL     1      -0.671  10.191  22.935  0.00  0.00    +0.000 C 
ATOM     18  S   UNL     1      -0.623  10.733  21.202  0.00  0.00    +0.000 S 
ENDBRANCH  11  18
ENDBRANCH   7  14
ENDBRANCH   1   9
BRANCH   6  19
ATOM     19  N   UNL     1       6.597   7.588  16.961  0.00  0.00    +0.000 N 
ATOM     20  C   UNL     1       7.538   7.684  17.961  0.00  0.00    +0.000 C 
ATOM     21  O   UNL     1       7.845   6.745  18.696  0.00  0.00    +0.000 OA
ATOM     22  H   UNL     1       6.639   8.243  16.190  0.00  0.00    +0.000 HD
BRANCH  20  23
ATOM     23  C   UNL     1       8.233   8.979  18.180  0.00  0.00    +0.000 A 
ATOM     24  C   UNL     1       7.805  10.032  17.368  0.00  0.00    +0.000 A 
ATOM     25  C   UNL     1       8.306  11.317  17.529  0.00  0.00    +0.000 A 
ATOM     26  C   UNL     1       9.243  11.615  18.523  0.00  0.00    +0.000 A 
ATOM     27  C   UNL     1       9.734  10.534  19.285  0.00  0.00    +0.000 A 
ATOM     28  C   UNL     1       9.231   9.227  19.128  0.00  0.00    +0.000 A 
BRANCH  26  29
ATOM     29  N   UNL     1       9.609  12.927  18.791  0.00  0.00    +0.000 N 
ATOM     30  C   UNL     1       8.567  13.902  19.124  0.00  0.00    +0.000 C 
ATOM     31  C   UNL     1       8.337  14.945  18.035  0.00  0.00    +0.000 C 
ATOM     32  C   UNL     1       9.483  15.956  17.971  0.00  0.00    +0.000 C 
ATOM     33  N   UNL     1      10.619  15.587  17.119  0.00  0.00    +0.000 NA
ATOM     34  C   UNL     1      11.766  16.449  17.405  0.00  0.00    +0.000 C 
ATOM     35  C   UNL     1      10.993  14.159  17.130  0.00  0.00    +0.000 C 
ATOM     36  C   UNL     1      10.958  13.421  18.490  0.00  0.00    +0.000 C 
ENDBRANCH  26  29
ENDBRANCH  20  23
ENDBRANCH   6  19
BRANCH   5  37
ATOM     37  O   UNL     1       7.937   5.911  15.354  0.00  0.00    +0.000 OA
ATOM     38  H   UNL     1       8.115   6.786  15.739  0.00  0.00    +0.000 HD
ENDBRANCH   5  37
TORSDOF 7
ENDMDL
MODEL 3
REMARK VINA RESULT:      -8.4      5.602      9.958
REMARK  Name = 
REMARK  9 active torsions:
REMARK  status: ('A' for Active; 'I' for Inactive)
REMARK    1  A    between atoms: C_1  and  S_2
REMARK    2  A    between atoms: S_2  and  C_3
REMARK    3  A    between atoms: C_6  and  C_7
REMARK    4  A    between atoms: N_9  and  C_10
REMARK    5  A    between atoms: C_14  and  O_15
REMARK    6  A    between atoms: C_16  and  N_17
REMARK    7  A    between atoms: C_18  and  C_20
REMARK    8  A    between atoms: C_23  and  N_24
REMARK    9  A    between atoms: N_28  and  C_29
REMARK                            x       y       z     vdW  Elec       q    Type
REMARK                         _______ _______ _______ _____ _____    ______ ____
ROOT
ATOM      1  C   UNL     1       1.001  14.884  19.452  0.00  0.00    +0.000 A 
ATOM      2  C   UNL     1       0.987  16.239  19.092  0.00  0.00    +0.000 A 
ATOM      3  C   UNL     1       1.980  16.773  18.269  0.00  0.00    +0.000 A 
ATOM      4  C   UNL     1       3.032  15.972  17.836  0.00  0.00    +0.000 A 
ATOM      5  C   UNL     1       3.056  14.625  18.192  0.00  0.00    +0.000 A 
ATOM      6  C   UNL     1       2.019  14.049  18.944  0.00  0.00    +0.000 A 
ENDROOT
BRANCH   1   9
ATOM      7  C   UNL     1       0.229  14.200  21.694  0.00  0.00    +0.000 C 
ATOM      8  O   UNL     1       1.315  14.369  22.247  0.00  0.00    +0.000 OA
ATOM      9  N   UNL     1       0.013  14.388  20.341  0.00  0.00    +0.000 N 
ATOM     10  H   UNL     1      -0.793  13.965  19.894  0.00  0.00    +0.000 HD
BRANCH   7  14
ATOM     11  C   UNL     1      -3.204  13.045  24.042  0.00  0.00    +0.000 A 
ATOM     12  C   UNL     1      -2.576  14.276  24.227  0.00  0.00    +0.000 A 
ATOM     13  C   UNL     1      -1.445  14.607  23.476  0.00  0.00    +0.000 A 
ATOM     14  C   UNL     1      -0.913  13.711  22.531  0.00  0.00    +0.000 A 
ATOM     15  C   UNL     1      -1.516  12.458  22.378  0.00  0.00    +0.000 A 
ATOM     16  C   UNL     1      -2.652  12.130  23.138  0.00  0.00    +0.000 A 
BRANCH  11  18
ATOM     17  C   UNL     1      -5.921  12.841  23.637  0.00  0.00    +0.000 C 
ATOM     18  S   UNL     1      -4.681  12.619  24.946  0.00  0.00    +0.000 S 
ENDBRANCH  11  18
ENDBRANCH   7  14
ENDBRANCH   1   9
BRANCH   6  19
ATOM     19  N   UNL     1       2.117  12.649  19.173  0.00  0.00    +0.000 N 
ATOM     20  C   UNL     1       1.091  11.781  18.873  0.00  0.00    +0.000 C 
ATOM     21  O   UNL     1      -0.012  12.148  18.469  0.00  0.00    +0.000 OA
ATOM     22  H   UNL     1       3.068  12.302  19.153  0.00  0.00    +0.000 HD
BRANCH  20  23
ATOM     23  C   UNL     1       1.308  10.320  19.036  0.00  0.00    +0.000 A 
ATOM     24  C   UNL     1       1.873   9.672  17.934  0.00  0.00    +0.000 A 
ATOM     25  C   UNL     1       2.212   8.327  17.983  0.00  0.00    +0.000 A 
ATOM     26  C   UNL     1       2.021   7.569  19.144  0.00  0.00    +0.000 A 
ATOM     27  C   UNL     1       1.375   8.204  20.224  0.00  0.00    +0.000 A 
ATOM     28  C   UNL     1       1.027   9.570  20.183  0.00  0.00    +0.000 A 
BRANCH  26  29
ATOM     29  N   UNL     1       2.518   6.276  19.243  0.00  0.00    +0.000 N 
ATOM     30  C   UNL     1       2.898   5.565  18.019  0.00  0.00    +0.000 C 
ATOM     31  C   UNL     1       1.963   4.411  17.671  0.00  0.00    +0.000 C 
ATOM     32  C   UNL     1       2.160   3.221  18.612  0.00  0.00    +0.000 C 
ATOM     33  N   UNL     1       1.371   3.242  19.849  0.00  0.00    +0.000 NA
ATOM     34  C   UNL     1       1.889   2.255  20.796  0.00  0.00    +0.000 C 
ATOM     35  C   UNL     1       1.199   4.566  20.479  0.00  0.00    +0.000 C 
ATOM     36  C   UNL     1       2.422   5.515  20.494  0.00  0.00    +0.000 C 
ENDBRANCH  26  29
ENDBRANCH  20  23
ENDBRANCH   6  19
BRANCH   5  37
ATOM     37  O   UNL     1       4.086  13.815  17.776  0.00  0.00    +0.000 OA
ATOM     38  H   UNL     1       4.562  13.505  18.565  0.00  0.00    +0.000 HD
ENDBRANCH   5  37
TORSDOF 7
ENDMDL
MODEL 4
REMARK VINA RESULT:      -8.4      3.147      7.757
REMARK  Name = 
REMARK  9 active torsions:
REMARK  status: ('A' for Active; 'I' for Inactive)
REMARK    1  A    between atoms: C_1  and  S_2
REMARK    2  A    between atoms: S_2  and  C_3
REMARK    3  A    between atoms: C_6  and  C_7
REMARK    4  A    between atoms: N_9  and  C_10
REMARK    5  A    between atoms: C_14  and  O_15
REMARK    6  A    between atoms: C_16  and  N_17
REMARK    7  A    between atoms: C_18  and  C_20
REMARK    8  A    between atoms: C_23  and  N_24
REMARK    9  A    between atoms: N_28  and  C_29
REMARK                            x       y       z     vdW  Elec       q    Type
REMARK                         _______ _______ _______ _____ _____    ______ ____
ROOT
ATOM      1  C   UNL     1       6.480   6.314  16.556  0.00  0.00    +0.000 A 
ATOM      2  C   UNL     1       7.411   5.363  16.113  0.00  0.00    +0.000 A 
ATOM      3  C   UNL     1       7.018   4.055  15.825  0.00  0.00    +0.000 A 
ATOM      4  C   UNL     1       5.698   3.664  16.023  0.00  0.00    +0.000 A 
ATOM      5  C   UNL     1       4.767   4.601  16.465  0.00  0.00    +0.000 A 
ATOM      6  C   UNL     1       5.124   5.943  16.675  0.00  0.00    +0.000 A 
ENDROOT
BRANCH   1   9
ATOM      7  C   UNL     1       7.809   7.871  17.933  0.00  0.00    +0.000 C 
ATOM      8  O   UNL     1       8.239   7.011  18.700  0.00  0.00    +0.000 OA
ATOM      9  N   UNL     1       6.924   7.616  16.901  0.00  0.00    +0.000 N 
ATOM     10  H   UNL     1       6.385   8.375  16.498  0.00  0.00    +0.000 HD
BRANCH   7  14
ATOM     11  C   UNL     1       9.311  11.863  18.602  0.00  0.00    +0.000 A 
ATOM     12  C   UNL     1       9.711  10.791  19.399  0.00  0.00    +0.000 A 
ATOM     13  C   UNL     1       9.180   9.517  19.180  0.00  0.00    +0.000 A 
ATOM     14  C   UNL     1       8.232   9.290  18.167  0.00  0.00    +0.000 A 
ATOM     15  C   UNL     1       7.797  10.374  17.397  0.00  0.00    +0.000 A 
ATOM     16  C   UNL     1       8.332  11.654  17.623  0.00  0.00    +0.000 A 
BRANCH  11  18
ATOM     17  C   UNL     1      11.499  13.058  19.774  0.00  0.00    +0.000 C 
ATOM     18  S   UNL     1      10.013  13.488  18.822  0.00  0.00    +0.000 S 
ENDBRANCH  11  18
ENDBRANCH   7  14
ENDBRANCH   1   9
BRANCH   6  19
ATOM     19  N   UNL     1       4.068   6.820  17.048  0.00  0.00    +0.000 N 
ATOM     20  C   UNL     1       3.488   6.784  18.296  0.00  0.00    +0.000 C 
ATOM     21  O   UNL     1       3.769   5.945  19.151  0.00  0.00    +0.000 OA
ATOM     22  H   UNL     1       4.072   7.696  16.539  0.00  0.00    +0.000 HD
BRANCH  20  23
ATOM     23  C   UNL     1       2.468   7.806  18.649  0.00  0.00    +0.000 A 
ATOM     24  C   UNL     1       1.985   7.741  19.959  0.00  0.00    +0.000 A 
ATOM     25  C   UNL     1       1.096   8.689  20.447  0.00  0.00    +0.000 A 
ATOM     26  C   UNL     1       0.664   9.759  19.657  0.00  0.00    +0.000 A 
ATOM     27  C   UNL     1       1.087   9.773  18.312  0.00  0.00    +0.000 A 
ATOM     28  C   UNL     1       1.988   8.815  17.807  0.00  0.00    +0.000 A 
BRANCH  26  29
ATOM     29  N   UNL     1      -0.085  10.794  20.202  0.00  0.00    +0.000 N 
ATOM     30  C   UNL     1      -1.281  11.256  19.491  0.00  0.00    +0.000 C 
ATOM     31  C   UNL     1      -1.128  12.646  18.882  0.00  0.00    +0.000 C 
ATOM     32  C   UNL     1      -1.150  13.738  19.954  0.00  0.00    +0.000 C 
ATOM     33  N   UNL     1       0.143  14.066  20.564  0.00  0.00    +0.000 NA
ATOM     34  C   UNL     1      -0.057  14.854  21.780  0.00  0.00    +0.000 C 
ATOM     35  C   UNL     1       1.052  12.926  20.795  0.00  0.00    +0.000 C 
ATOM     36  C   UNL     1       0.428  11.607  21.310  0.00  0.00    +0.000 C 
ENDBRANCH  26  29
ENDBRANCH  20  23
ENDBRANCH   6  19
BRANCH   5  37
ATOM     37  O   UNL     1       3.457   4.236  16.669  0.00  0.00    +0.000 OA
ATOM     38  H   UNL     1       3.177   3.692  15.913  0.00  0.00    +0.000 HD
ENDBRANCH   5  37
TORSDOF 7
ENDMDL
MODEL 5
REMARK VINA RESULT:      -8.3      5.334      9.699
REMARK  Name = 
REMARK  9 active torsions:
REMARK  status: ('A' for Active; 'I' for Inactive)
REMARK    1  A    between atoms: C_1  and  S_2
REMARK    2  A    between atoms: S_2  and  C_3
REMARK    3  A    between atoms: C_6  and  C_7
REMARK    4  A    between atoms: N_9  and  C_10
REMARK    5  A    between atoms: C_14  and  O_15
REMARK    6  A    between atoms: C_16  and  N_17
REMARK    7  A    between atoms: C_18  and  C_20
REMARK    8  A    between atoms: C_23  and  N_24
REMARK    9  A    between atoms: N_28  and  C_29
REMARK                            x       y       z     vdW  Elec       q    Type
REMARK                         _______ _______ _______ _____ _____    ______ ____
ROOT
ATOM      1  C   UNL     1       0.986  14.825  19.478  0.00  0.00    +0.000 A 
ATOM      2  C   UNL     1       0.943  16.184  19.135  0.00  0.00    +0.000 A 
ATOM      3  C   UNL     1       1.929  16.752  18.327  0.00  0.00    +0.000 A 
ATOM      4  C   UNL     1       3.003  15.981  17.892  0.00  0.00    +0.000 A 
ATOM      5  C   UNL     1       3.055  14.631  18.231  0.00  0.00    +0.000 A 
ATOM      6  C   UNL     1       2.027  14.021  18.967  0.00  0.00    +0.000 A 
ENDROOT
BRANCH   1   9
ATOM      7  C   UNL     1       0.166  14.213  21.723  0.00  0.00    +0.000 C 
ATOM      8  O   UNL     1       1.202  14.517  22.312  0.00  0.00    +0.000 OA
ATOM      9  N   UNL     1       0.003  14.295  20.352  0.00  0.00    +0.000 N 
ATOM     10  H   UNL     1      -0.737  13.770  19.899  0.00  0.00    +0.000 HD
BRANCH   7  14
ATOM     11  C   UNL     1      -3.276  12.861  23.949  0.00  0.00    +0.000 A 
ATOM     12  C   UNL     1      -2.894  14.201  23.943  0.00  0.00    +0.000 A 
ATOM     13  C   UNL     1      -1.754  14.603  23.242  0.00  0.00    +0.000 A 
ATOM     14  C   UNL     1      -0.968  13.672  22.539  0.00  0.00    +0.000 A 
ATOM     15  C   UNL     1      -1.326  12.320  22.583  0.00  0.00    +0.000 A 
ATOM     16  C   UNL     1      -2.473  11.922  23.292  0.00  0.00    +0.000 A 
BRANCH  11  18
ATOM     17  C   UNL     1      -6.001  13.258  23.846  0.00  0.00    +0.000 C 
ATOM     18  S   UNL     1      -4.757  12.328  24.789  0.00  0.00    +0.000 S 
ENDBRANCH  11  18
ENDBRANCH   7  14
ENDBRANCH   1   9
BRANCH   6  19
ATOM     19  N   UNL     1       2.155  12.620  19.179  0.00  0.00    +0.000 N 
ATOM     20  C   UNL     1       1.178  11.727  18.804  0.00  0.00    +0.000 C 
ATOM     21  O   UNL     1       0.090  12.067  18.340  0.00  0.00    +0.000 OA
ATOM     22  H   UNL     1       3.117  12.304  19.210  0.00  0.00    +0.000 HD
BRANCH  20  23
ATOM     23  C   UNL     1       1.432  10.270  18.955  0.00  0.00    +0.000 A 
ATOM     24  C   UNL     1       2.064   9.657  17.871  0.00  0.00    +0.000 A 
ATOM     25  C   UNL     1       2.440   8.321  17.917  0.00  0.00    +0.000 A 
ATOM     26  C   UNL     1       2.222   7.541  19.056  0.00  0.00    +0.000 A 
ATOM     27  C   UNL     1       1.509   8.139  20.116  0.00  0.00    +0.000 A 
ATOM     28  C   UNL     1       1.123   9.495  20.078  0.00  0.00    +0.000 A 
BRANCH  26  29
ATOM     29  N   UNL     1       2.752   6.262  19.160  0.00  0.00    +0.000 N 
ATOM     30  C   UNL     1       4.187   6.067  18.928  0.00  0.00    +0.000 C 
ATOM     31  C   UNL     1       4.498   5.315  17.638  0.00  0.00    +0.000 C 
ATOM     32  C   UNL     1       4.153   3.829  17.752  0.00  0.00    +0.000 C 
ATOM     33  N   UNL     1       2.774   3.461  17.415  0.00  0.00    +0.000 NA
ATOM     34  C   UNL     1       2.484   2.106  17.882  0.00  0.00    +0.000 C 
ATOM     35  C   UNL     1       1.732   4.419  17.835  0.00  0.00    +0.000 C 
ATOM     36  C   UNL     1       1.888   5.079  19.227  0.00  0.00    +0.000 C 
ENDBRANCH  26  29
ENDBRANCH  20  23
ENDBRANCH   6  19
BRANCH   5  37
ATOM     37  O   UNL     1       4.107  13.851  17.812  0.00  0.00    +0.000 OA
ATOM     38  H   UNL     1       4.387  14.168  16.937  0.00  0.00    +0.000 HD
ENDBRANCH   5  37
TORSDOF 7
ENDMDL
MODEL 6
REMARK VINA RESULT:      -8.2      0.935      1.536
REMARK  Name = 
REMARK  9 active torsions:
REMARK  status: ('A' for Active; 'I' for Inactive)
REMARK    1  A    between atoms: C_1  and  S_2
REMARK    2  A    between atoms: S_2  and  C_3
REMARK    3  A    between atoms: C_6  and  C_7
REMARK    4  A    between atoms: N_9  and  C_10
REMARK    5  A    between atoms: C_14  and  O_15
REMARK    6  A    between atoms: C_16  and  N_17
REMARK    7  A    between atoms: C_18  and  C_20
REMARK    8  A    between atoms: C_23  and  N_24
REMARK    9  A    between atoms: N_28  and  C_29
REMARK                            x       y       z     vdW  Elec       q    Type
REMARK                         _______ _______ _______ _____ _____    ______ ____
ROOT
ATOM      1  C   UNL     1       4.709   5.744  17.384  0.00  0.00    +0.000 A 
ATOM      2  C   UNL     1       4.291   4.454  17.028  0.00  0.00    +0.000 A 
ATOM      3  C   UNL     1       5.060   3.660  16.174  0.00  0.00    +0.000 A 
ATOM      4  C   UNL     1       6.233   4.165  15.622  0.00  0.00    +0.000 A 
ATOM      5  C   UNL     1       6.654   5.447  15.969  0.00  0.00    +0.000 A 
ATOM      6  C   UNL     1       5.941   6.225  16.895  0.00  0.00    +0.000 A 
ENDROOT
BRANCH   1   9
ATOM      7  C   UNL     1       3.071   7.561  17.710  0.00  0.00    +0.000 C 
ATOM      8  O   UNL     1       3.059   7.919  16.533  0.00  0.00    +0.000 OA
ATOM      9  N   UNL     1       3.873   6.547  18.202  0.00  0.00    +0.000 N 
ATOM     10  H   UNL     1       4.061   6.489  19.196  0.00  0.00    +0.000 HD
BRANCH   7  14
ATOM     11  C   UNL     1       0.778   9.669  20.698  0.00  0.00    +0.000 A 
ATOM     12  C   UNL     1       1.307   8.404  20.945  0.00  0.00    +0.000 A 
ATOM     13  C   UNL     1       2.015   7.731  19.946  0.00  0.00    +0.000 A 
ATOM     14  C   UNL     1       2.201   8.306  18.676  0.00  0.00    +0.000 A 
ATOM     15  C   UNL     1       1.631   9.556  18.413  0.00  0.00    +0.000 A 
ATOM     16  C   UNL     1       0.917  10.227  19.421  0.00  0.00    +0.000 A 
BRANCH  11  18
ATOM     17  C   UNL     1       0.097  12.263  21.327  0.00  0.00    +0.000 C 
ATOM     18  S   UNL     1      -0.082  10.574  21.972  0.00  0.00    +0.000 S 
ENDBRANCH  11  18
ENDBRANCH   7  14
ENDBRANCH   1   9
BRANCH   6  19
ATOM     19  N   UNL     1       6.516   7.484  17.227  0.00  0.00    +0.000 N 
ATOM     20  C   UNL     1       7.615   7.597  18.049  0.00  0.00    +0.000 C 
ATOM     21  O   UNL     1       8.130   6.640  18.627  0.00  0.00    +0.000 OA
ATOM     22  H   UNL     1       6.359   8.197  16.525  0.00  0.00    +0.000 HD
BRANCH  20  23
ATOM     23  C   UNL     1       8.226   8.934  18.260  0.00  0.00    +0.000 A 
ATOM     24  C   UNL     1       7.783   9.938  17.396  0.00  0.00    +0.000 A 
ATOM     25  C   UNL     1       8.205  11.253  17.541  0.00  0.00    +0.000 A 
ATOM     26  C   UNL     1       9.074  11.631  18.569  0.00  0.00    +0.000 A 
ATOM     27  C   UNL     1       9.585  10.601  19.386  0.00  0.00    +0.000 A 
ATOM     28  C   UNL     1       9.162   9.264  19.247  0.00  0.00    +0.000 A 
BRANCH  26  29
ATOM     29  N   UNL     1       9.355  12.969  18.813  0.00  0.00    +0.000 N 
ATOM     30  C   UNL     1       8.243  13.914  18.955  0.00  0.00    +0.000 C 
ATOM     31  C   UNL     1       8.124  14.893  17.792  0.00  0.00    +0.000 C 
ATOM     32  C   UNL     1       9.232  15.947  17.825  0.00  0.00    +0.000 C 
ATOM     33  N   UNL     1      10.484  15.586  17.150  0.00  0.00    +0.000 NA
ATOM     34  C   UNL     1      11.551  16.508  17.537  0.00  0.00    +0.000 C 
ATOM     35  C   UNL     1      10.903  14.177  17.285  0.00  0.00    +0.000 C 
ATOM     36  C   UNL     1      10.713  13.504  18.666  0.00  0.00    +0.000 C 
ENDBRANCH  26  29
ENDBRANCH  20  23
ENDBRANCH   6  19
BRANCH   5  37
ATOM     37  O   UNL     1       7.810   5.966  15.435  0.00  0.00    +0.000 OA
ATOM     38  H   UNL     1       7.574   6.468  14.637  0.00  0.00    +0.000 HD
ENDBRANCH   5  37
TORSDOF 7
ENDMDL
MODEL 7
REMARK VINA RESULT:      -8.2      3.164      8.038
REMARK  Name = 
REMARK  9 active torsions:
REMARK  status: ('A' for Active; 'I' for Inactive)
REMARK    1  A    between atoms: C_1  and  S_2
REMARK    2  A    between atoms: S_2  and  C_3
REMARK    3  A    between atoms: C_6  and  C_7
REMARK    4  A    between atoms: N_9  and  C_10
REMARK    5  A    between atoms: C_14  and  O_15
REMARK    6  A    between atoms: C_16  and  N_17
REMARK    7  A    between atoms: C_18  and  C_20
REMARK    8  A    between atoms: C_23  and  N_24
REMARK    9  A    between atoms: N_28  and  C_29
REMARK                            x       y       z     vdW  Elec       q    Type
REMARK                         _______ _______ _______ _____ _____    ______ ____
ROOT
ATOM      1  C   UNL     1       6.275   6.271  16.649  0.00  0.00    +0.000 A 
ATOM      2  C   UNL     1       7.144   5.341  16.061  0.00  0.00    +0.000 A 
ATOM      3  C   UNL     1       6.718   4.044  15.772  0.00  0.00    +0.000 A 
ATOM      4  C   UNL     1       5.431   3.640  16.114  0.00  0.00    +0.000 A 
ATOM      5  C   UNL     1       4.562   4.557  16.702  0.00  0.00    +0.000 A 
ATOM      6  C   UNL     1       4.943   5.891  16.918  0.00  0.00    +0.000 A 
ENDROOT
BRANCH   1   9
ATOM      7  C   UNL     1       7.736   7.782  17.942  0.00  0.00    +0.000 C 
ATOM      8  O   UNL     1       8.226   6.898  18.643  0.00  0.00    +0.000 OA
ATOM      9  N   UNL     1       6.759   7.560  16.988  0.00  0.00    +0.000 N 
ATOM     10  H   UNL     1       6.193   8.333  16.656  0.00  0.00    +0.000 HD
BRANCH   7  14
ATOM     11  C   UNL     1       9.325  11.739  18.614  0.00  0.00    +0.000 A 
ATOM     12  C   UNL     1       9.683  10.663  19.425  0.00  0.00    +0.000 A 
ATOM     13  C   UNL     1       9.125   9.401  19.204  0.00  0.00    +0.000 A 
ATOM     14  C   UNL     1       8.190   9.191  18.175  0.00  0.00    +0.000 A 
ATOM     15  C   UNL     1       7.797  10.280  17.390  0.00  0.00    +0.000 A 
ATOM     16  C   UNL     1       8.360  11.548  17.618  0.00  0.00    +0.000 A 
BRANCH  11  18
ATOM     17  C   UNL     1       9.120  13.925  20.278  0.00  0.00    +0.000 C 
ATOM     18  S   UNL     1      10.063  13.347  18.837  0.00  0.00    +0.000 S 
ENDBRANCH  11  18
ENDBRANCH   7  14
ENDBRANCH   1   9
BRANCH   6  19
ATOM     19  N   UNL     1       3.941   6.749  17.449  0.00  0.00    +0.000 N 
ATOM     20  C   UNL     1       3.459   6.612  18.732  0.00  0.00    +0.000 C 
ATOM     21  O   UNL     1       3.786   5.695  19.485  0.00  0.00    +0.000 OA
ATOM     22  H   UNL     1       3.927   7.666  17.021  0.00  0.00    +0.000 HD
BRANCH  20  23
ATOM     23  C   UNL     1       2.495   7.615  19.254  0.00  0.00    +0.000 A 
ATOM     24  C   UNL     1       2.146   8.631  18.361  0.00  0.00    +0.000 A 
ATOM     25  C   UNL     1       1.188   9.581  18.688  0.00  0.00    +0.000 A 
ATOM     26  C   UNL     1       0.518   9.549  19.916  0.00  0.00    +0.000 A 
ATOM     27  C   UNL     1       0.933   8.573  20.846  0.00  0.00    +0.000 A 
ATOM     28  C   UNL     1       1.905   7.605  20.523  0.00  0.00    +0.000 A 
BRANCH  26  29
ATOM     29  N   UNL     1      -0.555  10.393  20.167  0.00  0.00    +0.000 N 
ATOM     30  C   UNL     1      -1.288  10.967  19.035  0.00  0.00    +0.000 C 
ATOM     31  C   UNL     1      -1.072  12.467  18.868  0.00  0.00    +0.000 C 
ATOM     32  C   UNL     1      -1.801  13.267  19.950  0.00  0.00    +0.000 C 
ATOM     33  N   UNL     1      -1.061  13.487  21.196  0.00  0.00    +0.000 NA
ATOM     34  C   UNL     1      -1.966  13.951  22.247  0.00  0.00    +0.000 C 
ATOM     35  C   UNL     1      -0.223  12.360  21.654  0.00  0.00    +0.000 C 
ATOM     36  C   UNL     1      -0.805  10.933  21.508  0.00  0.00    +0.000 C 
ENDBRANCH  26  29
ENDBRANCH  20  23
ENDBRANCH   6  19
BRANCH   5  37
ATOM     37  O   UNL     1       3.286   4.180  17.048  0.00  0.00    +0.000 OA
ATOM     38  H   UNL     1       3.049   3.401  16.517  0.00  0.00    +0.000 HD
ENDBRANCH   5  37
TORSDOF 7
ENDMDL
MODEL 8
REMARK VINA RESULT:      -8.1      3.852      8.974
REMARK  Name = 
REMARK  9 active torsions:
REMARK  status: ('A' for Active; 'I' for Inactive)
REMARK    1  A    between atoms: C_1  and  S_2
REMARK    2  A    between atoms: S_2  and  C_3
REMARK    3  A    between atoms: C_6  and  C_7
REMARK    4  A    between atoms: N_9  and  C_10
REMARK    5  A    between atoms: C_14  and  O_15
REMARK    6  A    between atoms: C_16  and  N_17
REMARK    7  A    between atoms: C_18  and  C_20
REMARK    8  A    between atoms: C_23  and  N_24
REMARK    9  A    between atoms: N_28  and  C_29
REMARK                            x       y       z     vdW  Elec       q    Type
REMARK                         _______ _______ _______ _____ _____    ______ ____
ROOT
ATOM      1  C   UNL     1      10.177  12.336  20.658  0.00  0.00    +0.000 A 
ATOM      2  C   UNL     1      10.872  13.553  20.711  0.00  0.00    +0.000 A 
ATOM      3  C   UNL     1      11.710  13.947  19.667  0.00  0.00    +0.000 A 
ATOM      4  C   UNL     1      11.907  13.107  18.575  0.00  0.00    +0.000 A 
ATOM      5  C   UNL     1      11.222  11.894  18.515  0.00  0.00    +0.000 A 
ATOM      6  C   UNL     1      10.307  11.522  19.513  0.00  0.00    +0.000 A 
ENDROOT
BRANCH   1   9
ATOM      7  C   UNL     1       8.760  12.829  22.617  0.00  0.00    +0.000 C 
ATOM      8  O   UNL     1       8.889  14.050  22.550  0.00  0.00    +0.000 OA
ATOM      9  N   UNL     1       9.384  11.937  21.764  0.00  0.00    +0.000 N 
ATOM     10  H   UNL     1       9.482  10.964  22.033  0.00  0.00    +0.000 HD
BRANCH   7  14
ATOM     11  C   UNL     1       6.351  11.497  25.942  0.00  0.00    +0.000 A 
ATOM     12  C   UNL     1       7.605  12.073  26.136  0.00  0.00    +0.000 A 
ATOM     13  C   UNL     1       8.376  12.462  25.038  0.00  0.00    +0.000 A 
ATOM     14  C   UNL     1       7.914  12.275  23.723  0.00  0.00    +0.000 A 
ATOM     15  C   UNL     1       6.675  11.656  23.527  0.00  0.00    +0.000 A 
ATOM     16  C   UNL     1       5.905  11.264  24.635  0.00  0.00    +0.000 A 
BRANCH  11  18
ATOM     17  C   UNL     1       4.525  12.641  27.659  0.00  0.00    +0.000 C 
ATOM     18  S   UNL     1       5.321  11.043  27.325  0.00  0.00    +0.000 S 
ENDBRANCH  11  18
ENDBRANCH   7  14
ENDBRANCH   1   9
BRANCH   6  19
ATOM     19  N   UNL     1       9.611  10.299  19.298  0.00  0.00    +0.000 N 
ATOM     20  C   UNL     1       8.646  10.164  18.325  0.00  0.00    +0.000 C 
ATOM     21  O   UNL     1       8.247  11.098  17.630  0.00  0.00    +0.000 OA
ATOM     22  H   UNL     1      10.139   9.481  19.576  0.00  0.00    +0.000 HD
BRANCH  20  23
ATOM     23  C   UNL     1       8.043   8.827  18.085  0.00  0.00    +0.000 A 
ATOM     24  C   UNL     1       8.562   7.788  18.862  0.00  0.00    +0.000 A 
ATOM     25  C   UNL     1       8.029   6.508  18.804  0.00  0.00    +0.000 A 
ATOM     26  C   UNL     1       6.938   6.209  17.981  0.00  0.00    +0.000 A 
ATOM     27  C   UNL     1       6.472   7.238  17.137  0.00  0.00    +0.000 A 
ATOM     28  C   UNL     1       7.007   8.541  17.190  0.00  0.00    +0.000 A 
BRANCH  26  29
ATOM     29  N   UNL     1       6.303   4.977  18.055  0.00  0.00    +0.000 N 
ATOM     30  C   UNL     1       6.012   4.251  16.814  0.00  0.00    +0.000 C 
ATOM     31  C   UNL     1       4.526   4.192  16.478  0.00  0.00    +0.000 C 
ATOM     32  C   UNL     1       3.776   3.231  17.402  0.00  0.00    +0.000 C 
ATOM     33  N   UNL     1       3.279   3.802  18.658  0.00  0.00    +0.000 NA
ATOM     34  C   UNL     1       2.894   2.735  19.582  0.00  0.00    +0.000 C 
ATOM     35  C   UNL     1       4.160   4.794  19.306  0.00  0.00    +0.000 C 
ATOM     36  C   UNL     1       5.681   4.510  19.299  0.00  0.00    +0.000 C 
ENDBRANCH  26  29
ENDBRANCH  20  23
ENDBRANCH   6  19
BRANCH   5  37
ATOM     37  O   UNL     1      11.401  11.049  17.446  0.00  0.00    +0.000 OA
ATOM     38  H   UNL     1      10.737  10.341  17.509  0.00  0.00    +0.000 HD
ENDBRANCH   5  37
TORSDOF 7
ENDMDL
MODEL 9
REMARK VINA RESULT:      -8.1      0.866      1.476
REMARK  Name = 
REMARK  9 active torsions:
REMARK  status: ('A' for Active; 'I' for Inactive)
REMARK    1  A    between atoms: C_1  and  S_2
REMARK    2  A    between atoms: S_2  and  C_3
REMARK    3  A    between atoms: C_6  and  C_7
REMARK    4  A    between atoms: N_9  and  C_10
REMARK    5  A    between atoms: C_14  and  O_15
REMARK    6  A    between atoms: C_16  and  N_17
REMARK    7  A    between atoms: C_18  and  C_20
REMARK    8  A    between atoms: C_23  and  N_24
REMARK    9  A    between atoms: N_28  and  C_29
REMARK                            x       y       z     vdW  Elec       q    Type
REMARK                         _______ _______ _______ _____ _____    ______ ____
ROOT
ATOM      1  C   UNL     1       4.814   5.547  17.261  0.00  0.00    +0.000 A 
ATOM      2  C   UNL     1       4.392   4.254  16.919  0.00  0.00    +0.000 A 
ATOM      3  C   UNL     1       5.116   3.479  16.011  0.00  0.00    +0.000 A 
ATOM      4  C   UNL     1       6.245   4.005  15.391  0.00  0.00    +0.000 A 
ATOM      5  C   UNL     1       6.670   5.290  15.723  0.00  0.00    +0.000 A 
ATOM      6  C   UNL     1       6.007   6.050  16.699  0.00  0.00    +0.000 A 
ENDROOT
BRANCH   1   9
ATOM      7  C   UNL     1       3.235   7.389  17.715  0.00  0.00    +0.000 C 
ATOM      8  O   UNL     1       3.205   7.804  16.557  0.00  0.00    +0.000 OA
ATOM      9  N   UNL     1       4.020   6.331  18.137  0.00  0.00    +0.000 N 
ATOM     10  H   UNL     1       4.231   6.220  19.123  0.00  0.00    +0.000 HD
BRANCH   7  14
ATOM     11  C   UNL     1       0.650   9.501  20.451  0.00  0.00    +0.000 A 
ATOM     12  C   UNL     1       0.988  10.036  19.210  0.00  0.00    +0.000 A 
ATOM     13  C   UNL     1       1.856   9.344  18.360  0.00  0.00    +0.000 A 
ATOM     14  C   UNL     1       2.410   8.108  18.738  0.00  0.00    +0.000 A 
ATOM     15  C   UNL     1       2.107   7.593  20.003  0.00  0.00    +0.000 A 
ATOM     16  C   UNL     1       1.235   8.295  20.854  0.00  0.00    +0.000 A 
BRANCH  11  18
ATOM     17  C   UNL     1      -0.087   9.526  23.106  0.00  0.00    +0.000 C 
ATOM     18  S   UNL     1      -0.498  10.334  21.532  0.00  0.00    +0.000 S 
ENDBRANCH  11  18
ENDBRANCH   7  14
ENDBRANCH   1   9
BRANCH   6  19
ATOM     19  N   UNL     1       6.584   7.314  17.007  0.00  0.00    +0.000 N 
ATOM     20  C   UNL     1       7.541   7.466  17.985  0.00  0.00    +0.000 C 
ATOM     21  O   UNL     1       7.907   6.553  18.724  0.00  0.00    +0.000 OA
ATOM     22  H   UNL     1       6.579   7.960  16.227  0.00  0.00    +0.000 HD
BRANCH  20  23
ATOM     23  C   UNL     1       8.178   8.795  18.173  0.00  0.00    +0.000 A 
ATOM     24  C   UNL     1       7.729   9.801  17.313  0.00  0.00    +0.000 A 
ATOM     25  C   UNL     1       8.175  11.110  17.439  0.00  0.00    +0.000 A 
ATOM     26  C   UNL     1       9.076  11.480  18.444  0.00  0.00    +0.000 A 
ATOM     27  C   UNL     1       9.590  10.448  19.255  0.00  0.00    +0.000 A 
ATOM     28  C   UNL     1       9.143   9.116  19.134  0.00  0.00    +0.000 A 
BRANCH  26  29
ATOM     29  N   UNL     1       9.383  12.815  18.672  0.00  0.00    +0.000 N 
ATOM     30  C   UNL     1      10.732  13.165  19.126  0.00  0.00    +0.000 C 
ATOM     31  C   UNL     1      10.781  13.650  20.572  0.00  0.00    +0.000 C 
ATOM     32  C   UNL     1      10.196  15.057  20.715  0.00  0.00    +0.000 C 
ATOM     33  N   UNL     1       8.747  15.131  20.934  0.00  0.00    +0.000 NA
ATOM     34  C   UNL     1       8.272  16.498  20.716  0.00  0.00    +0.000 C 
ATOM     35  C   UNL     1       7.934  14.146  20.194  0.00  0.00    +0.000 C 
ATOM     36  C   UNL     1       8.337  13.841  18.731  0.00  0.00    +0.000 C 
ENDBRANCH  26  29
ENDBRANCH  20  23
ENDBRANCH   6  19
BRANCH   5  37
ATOM     37  O   UNL     1       7.783   5.830  15.122  0.00  0.00    +0.000 OA
ATOM     38  H   UNL     1       8.555   5.617  15.674  0.00  0.00    +0.000 HD
ENDBRANCH   5  37
TORSDOF 7
ENDMDL
