MODEL 1
REMARK VINA RESULT:      -8.9      0.000      0.000
REMARK  Name = 
REMARK  8 active torsions:
REMARK  status: ('A' for Active; 'I' for Inactive)
REMARK    1  A    between atoms: C_2  and  C_4
REMARK    2  A    between atoms: C_5  and  C_6
REMARK    3  A    between atoms: C_9  and  O_10
REMARK    4  A    between atoms: O_10  and  C_11
REMARK    5  A    between atoms: C_25  and  O_26
REMARK    6  A    between atoms: O_26  and  C_27
REMARK    7  A    between atoms: C_27  and  C_28
REMARK    8  A    between atoms: C_28  and  O_30
REMARK                            x       y       z     vdW  Elec       q    Type
REMARK                         _______ _______ _______ _____ _____    ______ ____
ROOT
ATOM      1  C   UNL     1       0.274  10.071  21.269  0.00  0.00    +0.000 A 
ATOM      2  C   UNL     1      -0.179  11.244  20.600  0.00  0.00    +0.000 A 
ATOM      3  N   UNL     1       0.125  11.192  19.284  0.00  0.00    +0.000 NA
ATOM      4  N   UNL     1       0.779  10.000  19.131  0.00  0.00    +0.000 N 
ATOM      5  C   UNL     1       0.877   9.301  20.295  0.00  0.00    +0.000 A 
ATOM      6  N   UNL     1       1.356   8.062  20.476  0.00  0.00    +0.000 N 
ATOM      7  C   UNL     1       2.109   7.182  19.696  0.00  0.00    +0.000 A 
ATOM      8  C   UNL     1       2.461   5.984  20.356  0.00  0.00    +0.000 A 
ATOM      9  C   UNL     1       3.231   4.993  19.761  0.00  0.00    +0.000 A 
ATOM     10  C   UNL     1       3.661   5.188  18.459  0.00  0.00    +0.000 A 
ATOM     11  C   UNL     1       3.352   6.392  17.800  0.00  0.00    +0.000 A 
ATOM     12  C   UNL     1       2.584   7.416  18.407  0.00  0.00    +0.000 A 
ATOM     13  C   UNL     1       2.438   8.749  17.697  0.00  0.00    +0.000 C 
ATOM     14  C   UNL     1       1.099   9.494  17.810  0.00  0.00    +0.000 C 
ATOM     15  H   UNL     1       1.090   7.630  21.360  0.00  0.00    +0.000 HD
ENDROOT
BRANCH   2  16
ATOM     16  C   UNL     1      -0.931  12.325  21.262  0.00  0.00    +0.000 A 
ATOM     17  C   UNL     1      -0.492  12.793  22.516  0.00  0.00    +0.000 A 
ATOM     18  C   UNL     1      -1.343  13.500  23.365  0.00  0.00    +0.000 A 
ATOM     19  C   UNL     1      -2.626  13.829  22.942  0.00  0.00    +0.000 A 
ATOM     20  C   UNL     1      -3.039  13.464  21.654  0.00  0.00    +0.000 A 
ATOM     21  C   UNL     1      -2.189  12.731  20.807  0.00  0.00    +0.000 A 
BRANCH  19  22
ATOM     22  O   UNL     1      -3.423  14.427  23.895  0.00  0.00    +0.000 OA
BRANCH  22  23
ATOM     23  C   UNL     1      -4.764  14.137  23.929  0.00  0.00    +0.000 A 
ATOM     24  C   UNL     1      -5.648  15.197  23.722  0.00  0.00    +0.000 A 
ATOM     25  C   UNL     1      -7.025  14.976  23.789  0.00  0.00    +0.000 A 
ATOM     26  C   UNL     1      -7.513  13.695  24.056  0.00  0.00    +0.000 A 
ATOM     27  C   UNL     1      -6.629  12.626  24.197  0.00  0.00    +0.000 A 
ATOM     28  C   UNL     1      -5.257  12.842  24.104  0.00  0.00    +0.000 A 
ENDBRANCH  22  23
ENDBRANCH  19  22
ENDBRANCH   2  16
BRANCH   1  30
ATOM     29  N   UNL     1      -1.134   9.203  22.970  0.00  0.00    +0.000 N 
ATOM     30  C   UNL     1       0.118   9.657  22.651  0.00  0.00    +0.000 C 
ATOM     31  O   UNL     1       1.001   9.683  23.498  0.00  0.00    +0.000 OA
ATOM     32  H   UNL     1      -1.232   8.766  23.873  0.00  0.00    +0.000 HD
ATOM     33  H   UNL     1      -1.787   8.959  22.233  0.00  0.00    +0.000 HD
ENDBRANCH   1  30
BRANCH   9  34
ATOM     34  O   UNL     1       3.540   3.962  20.598  0.00  0.00    +0.000 OA
BRANCH  34  35
ATOM     35  C   UNL     1       2.890   2.717  20.352  0.00  0.00    +0.000 C 
BRANCH  35  36
ATOM     36  C   UNL     1       1.597   2.697  21.157  0.00  0.00    +0.000 C 
ATOM     37  O   UNL     1       1.536   2.415  22.344  0.00  0.00    +0.000 OA
BRANCH  36  38
ATOM     38  O   UNL     1       0.497   3.027  20.433  0.00  0.00    +0.000 OA
ATOM     39  H   UNL     1       0.627   2.767  19.495  0.00  0.00    +0.000 HD
ENDBRANCH  36  38
ENDBRANCH  35  36
ENDBRANCH  34  35
ENDBRANCH   9  34
TORSDOF 8
ENDMDL
MODEL 2
REMARK VINA RESULT:      -8.7      0.804      1.230
REMARK  Name = 
REMARK  8 active torsions:
REMARK  status: ('A' for Active; 'I' for Inactive)
REMARK    1  A    between atoms: C_2  and  C_4
REMARK    2  A    between atoms: C_5  and  C_6
REMARK    3  A    between atoms: C_9  and  O_10
REMARK    4  A    between atoms: O_10  and  C_11
REMARK    5  A    between atoms: C_25  and  O_26
REMARK    6  A    between atoms: O_26  and  C_27
REMARK    7  A    between atoms: C_27  and  C_28
REMARK    8  A    between atoms: C_28  and  O_30
REMARK                            x       y       z     vdW  Elec       q    Type
REMARK                         _______ _______ _______ _____ _____    ______ ____
ROOT
ATOM      1  C   UNL     1       0.276  10.088  21.264  0.00  0.00    +0.000 A 
ATOM      2  C   UNL     1      -0.190  11.255  20.593  0.00  0.00    +0.000 A 
ATOM      3  N   UNL     1       0.100  11.196  19.274  0.00  0.00    +0.000 NA
ATOM      4  N   UNL     1       0.757  10.007  19.121  0.00  0.00    +0.000 N 
ATOM      5  C   UNL     1       0.872   9.316  20.288  0.00  0.00    +0.000 A 
ATOM      6  N   UNL     1       1.359   8.080  20.470  0.00  0.00    +0.000 N 
ATOM      7  C   UNL     1       2.108   7.199  19.688  0.00  0.00    +0.000 A 
ATOM      8  C   UNL     1       2.473   6.006  20.350  0.00  0.00    +0.000 A 
ATOM      9  C   UNL     1       3.241   5.016  19.752  0.00  0.00    +0.000 A 
ATOM     10  C   UNL     1       3.655   5.204  18.445  0.00  0.00    +0.000 A 
ATOM     11  C   UNL     1       3.333   6.403  17.782  0.00  0.00    +0.000 A 
ATOM     12  C   UNL     1       2.567   7.427  18.392  0.00  0.00    +0.000 A 
ATOM     13  C   UNL     1       2.406   8.755  17.676  0.00  0.00    +0.000 C 
ATOM     14  C   UNL     1       1.065   9.494  17.799  0.00  0.00    +0.000 C 
ATOM     15  H   UNL     1       1.105   7.651  21.361  0.00  0.00    +0.000 HD
ENDROOT
BRANCH   2  16
ATOM     16  C   UNL     1      -0.939  12.336  21.258  0.00  0.00    +0.000 A 
ATOM     17  C   UNL     1      -0.518  12.779  22.527  0.00  0.00    +0.000 A 
ATOM     18  C   UNL     1      -1.377  13.484  23.370  0.00  0.00    +0.000 A 
ATOM     19  C   UNL     1      -2.645  13.838  22.927  0.00  0.00    +0.000 A 
ATOM     20  C   UNL     1      -3.039  13.500  21.626  0.00  0.00    +0.000 A 
ATOM     21  C   UNL     1      -2.182  12.768  20.784  0.00  0.00    +0.000 A 
BRANCH  19  22
ATOM     22  O   UNL     1      -3.453  14.433  23.874  0.00  0.00    +0.000 OA
BRANCH  22  23
ATOM     23  C   UNL     1      -4.785  14.104  23.925  0.00  0.00    +0.000 A 
ATOM     24  C   UNL     1      -5.702  15.138  23.724  0.00  0.00    +0.000 A 
ATOM     25  C   UNL     1      -7.071  14.877  23.808  0.00  0.00    +0.000 A 
ATOM     26  C   UNL     1      -7.518  13.583  24.086  0.00  0.00    +0.000 A 
ATOM     27  C   UNL     1      -6.601  12.541  24.221  0.00  0.00    +0.000 A 
ATOM     28  C   UNL     1      -5.238  12.796  24.110  0.00  0.00    +0.000 A 
ENDBRANCH  22  23
ENDBRANCH  19  22
ENDBRANCH   2  16
BRANCH   1  30
ATOM     29  N   UNL     1      -1.127   9.300  23.006  0.00  0.00    +0.000 N 
ATOM     30  C   UNL     1       0.139   9.682  22.650  0.00  0.00    +0.000 C 
ATOM     31  O   UNL     1       1.046   9.657  23.470  0.00  0.00    +0.000 OA
ATOM     32  H   UNL     1      -1.223   8.868  23.911  0.00  0.00    +0.000 HD
ATOM     33  H   UNL     1      -1.814   9.094  22.289  0.00  0.00    +0.000 HD
ENDBRANCH   1  30
BRANCH   9  34
ATOM     34  O   UNL     1       3.564   3.991  20.592  0.00  0.00    +0.000 OA
BRANCH  34  35
ATOM     35  C   UNL     1       2.953   2.730  20.333  0.00  0.00    +0.000 C 
BRANCH  35  36
ATOM     36  C   UNL     1       3.923   1.902  19.498  0.00  0.00    +0.000 C 
ATOM     37  O   UNL     1       3.622   1.345  18.453  0.00  0.00    +0.000 OA
BRANCH  36  38
ATOM     38  O   UNL     1       5.175   1.837  20.019  0.00  0.00    +0.000 OA
ATOM     39  H   UNL     1       5.581   2.731  20.019  0.00  0.00    +0.000 HD
ENDBRANCH  36  38
ENDBRANCH  35  36
ENDBRANCH  34  35
ENDBRANCH   9  34
TORSDOF 8
ENDMDL
MODEL 3
REMARK VINA RESULT:      -8.6      1.505      2.113
REMARK  Name = 
REMARK  8 active torsions:
REMARK  status: ('A' for Active; 'I' for Inactive)
REMARK    1  A    between atoms: C_2  and  C_4
REMARK    2  A    between atoms: C_5  and  C_6
REMARK    3  A    between atoms: C_9  and  O_10
REMARK    4  A    between atoms: O_10  and  C_11
REMARK    5  A    between atoms: C_25  and  O_26
REMARK    6  A    between atoms: O_26  and  C_27
REMARK    7  A    between atoms: C_27  and  C_28
REMARK    8  A    between atoms: C_28  and  O_30
REMARK                            x       y       z     vdW  Elec       q    Type
REMARK                         _______ _______ _______ _____ _____    ______ ____
ROOT
ATOM      1  C   UNL     1       0.179  10.211  21.498  0.00  0.00    +0.000 A 
ATOM      2  C   UNL     1      -0.391  11.395  20.948  0.00  0.00    +0.000 A 
ATOM      3  N   UNL     1      -0.173  11.454  19.615  0.00  0.00    +0.000 NA
ATOM      4  N   UNL     1       0.541  10.323  19.334  0.00  0.00    +0.000 N 
ATOM      5  C   UNL     1       0.761   9.553  20.434  0.00  0.00    +0.000 A 
ATOM      6  N   UNL     1       1.328   8.339  20.493  0.00  0.00    +0.000 N 
ATOM      7  C   UNL     1       2.080   7.568  19.605  0.00  0.00    +0.000 A 
ATOM      8  C   UNL     1       2.550   6.353  20.150  0.00  0.00    +0.000 A 
ATOM      9  C   UNL     1       3.338   5.460  19.437  0.00  0.00    +0.000 A 
ATOM     10  C   UNL     1       3.666   5.773  18.128  0.00  0.00    +0.000 A 
ATOM     11  C   UNL     1       3.239   6.996  17.581  0.00  0.00    +0.000 A 
ATOM     12  C   UNL     1       2.451   7.922  18.309  0.00  0.00    +0.000 A 
ATOM     13  C   UNL     1       2.174   9.288  17.709  0.00  0.00    +0.000 C 
ATOM     14  C   UNL     1       0.802   9.932  17.961  0.00  0.00    +0.000 C 
ATOM     15  H   UNL     1       1.150   7.830  21.358  0.00  0.00    +0.000 HD
ENDROOT
BRANCH   2  16
ATOM     16  C   UNL     1      -1.161  12.375  21.734  0.00  0.00    +0.000 A 
ATOM     17  C   UNL     1      -0.470  13.373  22.447  0.00  0.00    +0.000 A 
ATOM     18  C   UNL     1      -1.073  14.060  23.501  0.00  0.00    +0.000 A 
ATOM     19  C   UNL     1      -2.408  13.826  23.807  0.00  0.00    +0.000 A 
ATOM     20  C   UNL     1      -3.140  12.914  23.034  0.00  0.00    +0.000 A 
ATOM     21  C   UNL     1      -2.525  12.203  21.988  0.00  0.00    +0.000 A 
BRANCH  19  22
ATOM     22  O   UNL     1      -2.875  14.471  24.932  0.00  0.00    +0.000 OA
BRANCH  22  23
ATOM     23  C   UNL     1      -3.582  15.639  24.794  0.00  0.00    +0.000 A 
ATOM     24  C   UNL     1      -2.951  16.815  25.207  0.00  0.00    +0.000 A 
ATOM     25  C   UNL     1      -3.633  18.031  25.134  0.00  0.00    +0.000 A 
ATOM     26  C   UNL     1      -4.940  18.068  24.642  0.00  0.00    +0.000 A 
ATOM     27  C   UNL     1      -5.543  16.903  24.170  0.00  0.00    +0.000 A 
ATOM     28  C   UNL     1      -4.853  15.696  24.218  0.00  0.00    +0.000 A 
ENDBRANCH  22  23
ENDBRANCH  19  22
ENDBRANCH   2  16
BRANCH   1  30
ATOM     29  N   UNL     1      -1.076   9.208  23.244  0.00  0.00    +0.000 N 
ATOM     30  C   UNL     1       0.144   9.693  22.853  0.00  0.00    +0.000 C 
ATOM     31  O   UNL     1       1.096   9.662  23.620  0.00  0.00    +0.000 OA
ATOM     32  H   UNL     1      -1.095   8.704  24.116  0.00  0.00    +0.000 HD
ATOM     33  H   UNL     1      -1.790   9.016  22.549  0.00  0.00    +0.000 HD
ENDBRANCH   1  30
BRANCH   9  34
ATOM     34  O   UNL     1       3.766   4.396  20.175  0.00  0.00    +0.000 OA
BRANCH  34  35
ATOM     35  C   UNL     1       3.007   3.195  20.072  0.00  0.00    +0.000 C 
BRANCH  35  36
ATOM     36  C   UNL     1       3.854   2.167  19.332  0.00  0.00    +0.000 C 
ATOM     37  O   UNL     1       3.482   1.562  18.338  0.00  0.00    +0.000 OA
BRANCH  36  38
ATOM     38  O   UNL     1       5.083   1.977  19.878  0.00  0.00    +0.000 OA
ATOM     39  H   UNL     1       5.769   2.369  19.294  0.00  0.00    +0.000 HD
ENDBRANCH  36  38
ENDBRANCH  35  36
ENDBRANCH  34  35
ENDBRANCH   9  34
TORSDOF 8
ENDMDL
MODEL 4
REMARK VINA RESULT:      -8.6      0.393      1.038
REMARK  Name = 
REMARK  8 active torsions:
REMARK  status: ('A' for Active; 'I' for Inactive)
REMARK    1  A    between atoms: C_2  and  C_4
REMARK    2  A    between atoms: C_5  and  C_6
REMARK    3  A    between atoms: C_9  and  O_10
REMARK    4  A    between atoms: O_10  and  C_11
REMARK    5  A    between atoms: C_25  and  O_26
REMARK    6  A    between atoms: O_26  and  C_27
REMARK    7  A    between atoms: C_27  and  C_28
REMARK    8  A    between atoms: C_28  and  O_30
REMARK                            x       y       z     vdW  Elec       q    Type
REMARK                         _______ _______ _______ _____ _____    ______ ____
ROOT
ATOM      1  C   UNL     1       0.286  10.010  21.227  0.00  0.00    +0.000 A 
ATOM      2  C   UNL     1      -0.119  11.202  20.560  0.00  0.00    +0.000 A 
ATOM      3  N   UNL     1       0.227  11.161  19.254  0.00  0.00    +0.000 NA
ATOM      4  N   UNL     1       0.860   9.957  19.106  0.00  0.00    +0.000 N 
ATOM      5  C   UNL     1       0.904   9.241  20.262  0.00  0.00    +0.000 A 
ATOM      6  N   UNL     1       1.351   7.989  20.440  0.00  0.00    +0.000 N 
ATOM      7  C   UNL     1       2.110   7.104  19.673  0.00  0.00    +0.000 A 
ATOM      8  C   UNL     1       2.415   5.889  20.326  0.00  0.00    +0.000 A 
ATOM      9  C   UNL     1       3.183   4.890  19.743  0.00  0.00    +0.000 A 
ATOM     10  C   UNL     1       3.659   5.093  18.458  0.00  0.00    +0.000 A 
ATOM     11  C   UNL     1       3.398   6.313  17.807  0.00  0.00    +0.000 A 
ATOM     12  C   UNL     1       2.632   7.345  18.404  0.00  0.00    +0.000 A 
ATOM     13  C   UNL     1       2.538   8.690  17.709  0.00  0.00    +0.000 C 
ATOM     14  C   UNL     1       1.212   9.462  17.788  0.00  0.00    +0.000 C 
ATOM     15  H   UNL     1       1.047   7.551  21.309  0.00  0.00    +0.000 HD
ENDROOT
BRANCH   2  16
ATOM     16  C   UNL     1      -0.869  12.290  21.213  0.00  0.00    +0.000 A 
ATOM     17  C   UNL     1      -0.398  12.805  22.437  0.00  0.00    +0.000 A 
ATOM     18  C   UNL     1      -1.235  13.523  23.291  0.00  0.00    +0.000 A 
ATOM     19  C   UNL     1      -2.536  13.816  22.901  0.00  0.00    +0.000 A 
ATOM     20  C   UNL     1      -2.984  13.404  21.638  0.00  0.00    +0.000 A 
ATOM     21  C   UNL     1      -2.148  12.660  20.787  0.00  0.00    +0.000 A 
BRANCH  19  22
ATOM     22  O   UNL     1      -3.313  14.430  23.860  0.00  0.00    +0.000 OA
BRANCH  22  23
ATOM     23  C   UNL     1      -4.657  14.152  23.917  0.00  0.00    +0.000 A 
ATOM     24  C   UNL     1      -5.020  12.838  24.217  0.00  0.00    +0.000 A 
ATOM     25  C   UNL     1      -6.370  12.482  24.245  0.00  0.00    +0.000 A 
ATOM     26  C   UNL     1      -7.350  13.441  23.980  0.00  0.00    +0.000 A 
ATOM     27  C   UNL     1      -6.986  14.766  23.745  0.00  0.00    +0.000 A 
ATOM     28  C   UNL     1      -5.642  15.127  23.744  0.00  0.00    +0.000 A 
ENDBRANCH  22  23
ENDBRANCH  19  22
ENDBRANCH   2  16
BRANCH   1  30
ATOM     29  N   UNL     1      -1.102   8.916  22.809  0.00  0.00    +0.000 N 
ATOM     30  C   UNL     1       0.077   9.581  22.597  0.00  0.00    +0.000 C 
ATOM     31  O   UNL     1       0.858   9.765  23.520  0.00  0.00    +0.000 OA
ATOM     32  H   UNL     1      -1.206   8.472  23.708  0.00  0.00    +0.000 HD
ATOM     33  H   UNL     1      -1.630   8.559  22.021  0.00  0.00    +0.000 HD
ENDBRANCH   1  30
BRANCH   9  34
ATOM     34  O   UNL     1       3.441   3.841  20.575  0.00  0.00    +0.000 OA
BRANCH  34  35
ATOM     35  C   UNL     1       3.011   2.554  20.139  0.00  0.00    +0.000 C 
BRANCH  35  36
ATOM     36  C   UNL     1       1.490   2.571  20.059  0.00  0.00    +0.000 C 
ATOM     37  O   UNL     1       0.858   2.427  19.023  0.00  0.00    +0.000 OA
BRANCH  36  38
ATOM     38  O   UNL     1       0.881   2.758  21.259  0.00  0.00    +0.000 OA
ATOM     39  H   UNL     1      -0.043   3.058  21.118  0.00  0.00    +0.000 HD
ENDBRANCH  36  38
ENDBRANCH  35  36
ENDBRANCH  34  35
ENDBRANCH   9  34
TORSDOF 8
ENDMDL
MODEL 5
REMARK VINA RESULT:      -8.5      2.069     10.263
REMARK  Name = 
REMARK  8 active torsions:
REMARK  status: ('A' for Active; 'I' for Inactive)
REMARK    1  A    between atoms: C_2  and  C_4
REMARK    2  A    between atoms: C_5  and  C_6
REMARK    3  A    between atoms: C_9  and  O_10
REMARK    4  A    between atoms: O_10  and  C_11
REMARK    5  A    between atoms: C_25  and  O_26
REMARK    6  A    between atoms: O_26  and  C_27
REMARK    7  A    between atoms: C_27  and  C_28
REMARK    8  A    between atoms: C_28  and  O_30
REMARK                            x       y       z     vdW  Elec       q    Type
REMARK                         _______ _______ _______ _____ _____    ______ ____
ROOT
ATOM      1  C   UNL     1       0.023   9.913  20.575  0.00  0.00    +0.000 A 
ATOM      2  C   UNL     1       0.555   9.532  19.310  0.00  0.00    +0.000 A 
ATOM      3  N   UNL     1      -0.102  10.155  18.307  0.00  0.00    +0.000 NA
ATOM      4  N   UNL     1      -1.051  10.911  18.938  0.00  0.00    +0.000 N 
ATOM      5  C   UNL     1      -0.998  10.797  20.294  0.00  0.00    +0.000 A 
ATOM      6  N   UNL     1      -1.706  11.477  21.207  0.00  0.00    +0.000 N 
ATOM      7  C   UNL     1      -2.841  12.289  21.158  0.00  0.00    +0.000 A 
ATOM      8  C   UNL     1      -3.289  12.731  22.423  0.00  0.00    +0.000 A 
ATOM      9  C   UNL     1      -4.417  13.524  22.589  0.00  0.00    +0.000 A 
ATOM     10  C   UNL     1      -5.124  13.905  21.462  0.00  0.00    +0.000 A 
ATOM     11  C   UNL     1      -4.715  13.442  20.198  0.00  0.00    +0.000 A 
ATOM     12  C   UNL     1      -3.577  12.617  20.022  0.00  0.00    +0.000 A 
ATOM     13  C   UNL     1      -3.301  12.022  18.653  0.00  0.00    +0.000 C 
ATOM     14  C   UNL     1      -1.839  11.880  18.200  0.00  0.00    +0.000 C 
ATOM     15  H   UNL     1      -1.325  11.439  22.152  0.00  0.00    +0.000 HD
ENDROOT
BRANCH   2  16
ATOM     16  C   UNL     1       1.707   8.627  19.146  0.00  0.00    +0.000 A 
ATOM     17  C   UNL     1       2.482   8.714  17.973  0.00  0.00    +0.000 A 
ATOM     18  C   UNL     1       3.307   7.664  17.570  0.00  0.00    +0.000 A 
ATOM     19  C   UNL     1       3.442   6.540  18.376  0.00  0.00    +0.000 A 
ATOM     20  C   UNL     1       2.761   6.487  19.600  0.00  0.00    +0.000 A 
ATOM     21  C   UNL     1       1.911   7.535  19.995  0.00  0.00    +0.000 A 
BRANCH  19  22
ATOM     22  O   UNL     1       4.189   5.516  17.835  0.00  0.00    +0.000 OA
BRANCH  22  23
ATOM     23  C   UNL     1       3.896   4.218  18.172  0.00  0.00    +0.000 A 
ATOM     24  C   UNL     1       2.953   3.555  17.384  0.00  0.00    +0.000 A 
ATOM     25  C   UNL     1       2.577   2.249  17.702  0.00  0.00    +0.000 A 
ATOM     26  C   UNL     1       3.150   1.608  18.802  0.00  0.00    +0.000 A 
ATOM     27  C   UNL     1       4.139   2.248  19.548  0.00  0.00    +0.000 A 
ATOM     28  C   UNL     1       4.532   3.540  19.214  0.00  0.00    +0.000 A 
ENDBRANCH  22  23
ENDBRANCH  19  22
ENDBRANCH   2  16
BRANCH   1  30
ATOM     29  N   UNL     1      -0.453   8.783  22.606  0.00  0.00    +0.000 N 
ATOM     30  C   UNL     1       0.443   9.558  21.918  0.00  0.00    +0.000 C 
ATOM     31  O   UNL     1       1.499   9.889  22.436  0.00  0.00    +0.000 OA
ATOM     32  H   UNL     1      -0.127   8.393  23.476  0.00  0.00    +0.000 HD
ATOM     33  H   UNL     1      -1.204   8.316  22.110  0.00  0.00    +0.000 HD
ENDBRANCH   1  30
BRANCH   9  34
ATOM     34  O   UNL     1      -4.733  13.760  23.895  0.00  0.00    +0.000 OA
BRANCH  34  35
ATOM     35  C   UNL     1      -5.265  12.665  24.635  0.00  0.00    +0.000 C 
BRANCH  35  36
ATOM     36  C   UNL     1      -6.760  12.587  24.347  0.00  0.00    +0.000 C 
ATOM     37  O   UNL     1      -7.316  11.602  23.887  0.00  0.00    +0.000 OA
BRANCH  36  38
ATOM     38  O   UNL     1      -7.435  13.725  24.653  0.00  0.00    +0.000 OA
ATOM     39  H   UNL     1      -7.121  14.076  25.515  0.00  0.00    +0.000 HD
ENDBRANCH  36  38
ENDBRANCH  35  36
ENDBRANCH  34  35
ENDBRANCH   9  34
TORSDOF 8
ENDMDL
MODEL 6
REMARK VINA RESULT:      -8.5      0.972      1.036
REMARK  Name = 
REMARK  8 active torsions:
REMARK  status: ('A' for Active; 'I' for Inactive)
REMARK    1  A    between atoms: C_2  and  C_4
REMARK    2  A    between atoms: C_5  and  C_6
REMARK    3  A    between atoms: C_9  and  O_10
REMARK    4  A    between atoms: O_10  and  C_11
REMARK    5  A    between atoms: C_25  and  O_26
REMARK    6  A    between atoms: O_26  and  C_27
REMARK    7  A    between atoms: C_27  and  C_28
REMARK    8  A    between atoms: C_28  and  O_30
REMARK                            x       y       z     vdW  Elec       q    Type
REMARK                         _______ _______ _______ _____ _____    ______ ____
ROOT
ATOM      1  C   UNL     1       0.328   9.872  21.350  0.00  0.00    +0.000 A 
ATOM      2  C   UNL     1      -0.213  11.059  20.778  0.00  0.00    +0.000 A 
ATOM      3  N   UNL     1       0.037  11.107  19.451  0.00  0.00    +0.000 NA
ATOM      4  N   UNL     1       0.745   9.965  19.194  0.00  0.00    +0.000 N 
ATOM      5  C   UNL     1       0.929   9.201  20.305  0.00  0.00    +0.000 A 
ATOM      6  N   UNL     1       1.480   7.980  20.385  0.00  0.00    +0.000 N 
ATOM      7  C   UNL     1       2.243   7.195  19.521  0.00  0.00    +0.000 A 
ATOM      8  C   UNL     1       2.686   5.978  20.086  0.00  0.00    +0.000 A 
ATOM      9  C   UNL     1       3.480   5.071  19.397  0.00  0.00    +0.000 A 
ATOM     10  C   UNL     1       3.844   5.370  18.095  0.00  0.00    +0.000 A 
ATOM     11  C   UNL     1       3.445   6.596  17.530  0.00  0.00    +0.000 A 
ATOM     12  C   UNL     1       2.651   7.535  18.232  0.00  0.00    +0.000 A 
ATOM     13  C   UNL     1       2.405   8.901  17.617  0.00  0.00    +0.000 C 
ATOM     14  C   UNL     1       1.035   9.562  17.831  0.00  0.00    +0.000 C 
ATOM     15  H   UNL     1       1.274   7.479  21.249  0.00  0.00    +0.000 HD
ENDROOT
BRANCH   2  16
ATOM     16  C   UNL     1      -0.991  12.053  21.538  0.00  0.00    +0.000 A 
ATOM     17  C   UNL     1      -1.680  11.641  22.696  0.00  0.00    +0.000 A 
ATOM     18  C   UNL     1      -2.728  12.395  23.223  0.00  0.00    +0.000 A 
ATOM     19  C   UNL     1      -3.053  13.621  22.655  0.00  0.00    +0.000 A 
ATOM     20  C   UNL     1      -2.305  14.095  21.569  0.00  0.00    +0.000 A 
ATOM     21  C   UNL     1      -1.264  13.324  21.023  0.00  0.00    +0.000 A 
BRANCH  19  22
ATOM     22  O   UNL     1      -4.173  14.232  23.178  0.00  0.00    +0.000 OA
BRANCH  22  23
ATOM     23  C   UNL     1      -5.404  13.653  22.995  0.00  0.00    +0.000 A 
ATOM     24  C   UNL     1      -5.816  13.441  21.678  0.00  0.00    +0.000 A 
ATOM     25  C   UNL     1      -7.076  12.896  21.424  0.00  0.00    +0.000 A 
ATOM     26  C   UNL     1      -7.916  12.560  22.487  0.00  0.00    +0.000 A 
ATOM     27  C   UNL     1      -7.476  12.712  23.802  0.00  0.00    +0.000 A 
ATOM     28  C   UNL     1      -6.210  13.229  24.054  0.00  0.00    +0.000 A 
ENDBRANCH  22  23
ENDBRANCH  19  22
ENDBRANCH   2  16
BRANCH   1  30
ATOM     29  N   UNL     1      -0.788   8.504  22.934  0.00  0.00    +0.000 N 
ATOM     30  C   UNL     1       0.254   9.364  22.707  0.00  0.00    +0.000 C 
ATOM     31  O   UNL     1       1.033   9.642  23.607  0.00  0.00    +0.000 OA
ATOM     32  H   UNL     1      -0.777   8.016  23.815  0.00  0.00    +0.000 HD
ATOM     33  H   UNL     1      -1.284   8.093  22.151  0.00  0.00    +0.000 HD
ENDBRANCH   1  30
BRANCH   9  34
ATOM     34  O   UNL     1       3.878   4.007  20.153  0.00  0.00    +0.000 OA
BRANCH  34  35
ATOM     35  C   UNL     1       3.089   2.823  20.060  0.00  0.00    +0.000 C 
BRANCH  35  36
ATOM     36  C   UNL     1       2.033   2.876  21.157  0.00  0.00    +0.000 C 
ATOM     37  O   UNL     1       2.288   2.864  22.352  0.00  0.00    +0.000 OA
BRANCH  36  38
ATOM     38  O   UNL     1       0.760   2.944  20.688  0.00  0.00    +0.000 OA
ATOM     39  H   UNL     1       0.772   3.076  19.715  0.00  0.00    +0.000 HD
ENDBRANCH  36  38
ENDBRANCH  35  36
ENDBRANCH  34  35
ENDBRANCH   9  34
TORSDOF 8
ENDMDL
MODEL 7
REMARK VINA RESULT:      -8.4      1.202      1.605
REMARK  Name = 
REMARK  8 active torsions:
REMARK  status: ('A' for Active; 'I' for Inactive)
REMARK    1  A    between atoms: C_2  and  C_4
REMARK    2  A    between atoms: C_5  and  C_6
REMARK    3  A    between atoms: C_9  and  O_10
REMARK    4  A    between atoms: O_10  and  C_11
REMARK    5  A    between atoms: C_25  and  O_26
REMARK    6  A    between atoms: O_26  and  C_27
REMARK    7  A    between atoms: C_27  and  C_28
REMARK    8  A    between atoms: C_28  and  O_30
REMARK                            x       y       z     vdW  Elec       q    Type
REMARK                         _______ _______ _______ _____ _____    ______ ____
ROOT
ATOM      1  C   UNL     1       0.514   9.514  20.712  0.00  0.00    +0.000 A 
ATOM      2  C   UNL     1       0.361  10.761  20.040  0.00  0.00    +0.000 A 
ATOM      3  N   UNL     1       0.981  10.736  18.839  0.00  0.00    +0.000 NA
ATOM      4  N   UNL     1       1.532   9.487  18.764  0.00  0.00    +0.000 N 
ATOM      5  C   UNL     1       1.265   8.728  19.862  0.00  0.00    +0.000 A 
ATOM      6  N   UNL     1       1.560   7.435  20.064  0.00  0.00    +0.000 N 
ATOM      7  C   UNL     1       2.396   6.514  19.431  0.00  0.00    +0.000 A 
ATOM      8  C   UNL     1       2.452   5.254  20.067  0.00  0.00    +0.000 A 
ATOM      9  C   UNL     1       3.246   4.211  19.609  0.00  0.00    +0.000 A 
ATOM     10  C   UNL     1       4.008   4.416  18.471  0.00  0.00    +0.000 A 
ATOM     11  C   UNL     1       3.994   5.677  17.846  0.00  0.00    +0.000 A 
ATOM     12  C   UNL     1       3.201   6.752  18.319  0.00  0.00    +0.000 A 
ATOM     13  C   UNL     1       3.370   8.125  17.695  0.00  0.00    +0.000 C 
ATOM     14  C   UNL     1       2.124   9.009  17.529  0.00  0.00    +0.000 C 
ATOM     15  H   UNL     1       1.039   6.995  20.822  0.00  0.00    +0.000 HD
ENDROOT
BRANCH   2  16
ATOM     16  C   UNL     1      -0.424  11.888  20.574  0.00  0.00    +0.000 A 
ATOM     17  C   UNL     1       0.130  12.681  21.598  0.00  0.00    +0.000 A 
ATOM     18  C   UNL     1      -0.674  13.480  22.411  0.00  0.00    +0.000 A 
ATOM     19  C   UNL     1      -2.038  13.571  22.161  0.00  0.00    +0.000 A 
ATOM     20  C   UNL     1      -2.586  12.873  21.077  0.00  0.00    +0.000 A 
ATOM     21  C   UNL     1      -1.779  12.048  20.272  0.00  0.00    +0.000 A 
BRANCH  19  22
ATOM     22  O   UNL     1      -2.758  14.295  23.088  0.00  0.00    +0.000 OA
BRANCH  22  23
ATOM     23  C   UNL     1      -4.004  13.857  23.464  0.00  0.00    +0.000 A 
ATOM     24  C   UNL     1      -4.057  12.751  24.315  0.00  0.00    +0.000 A 
ATOM     25  C   UNL     1      -5.294  12.229  24.697  0.00  0.00    +0.000 A 
ATOM     26  C   UNL     1      -6.472  12.819  24.235  0.00  0.00    +0.000 A 
ATOM     27  C   UNL     1      -6.416  13.962  23.438  0.00  0.00    +0.000 A 
ATOM     28  C   UNL     1      -5.183  14.498  23.079  0.00  0.00    +0.000 A 
ENDBRANCH  22  23
ENDBRANCH  19  22
ENDBRANCH   2  16
BRANCH   1  30
ATOM     29  N   UNL     1       0.598   9.578  23.082  0.00  0.00    +0.000 N 
ATOM     30  C   UNL     1      -0.024   9.057  21.979  0.00  0.00    +0.000 C 
ATOM     31  O   UNL     1      -0.959   8.278  22.107  0.00  0.00    +0.000 OA
ATOM     32  H   UNL     1       0.152   9.404  23.968  0.00  0.00    +0.000 HD
ATOM     33  H   UNL     1       1.201  10.388  22.986  0.00  0.00    +0.000 HD
ENDBRANCH   1  30
BRANCH   9  34
ATOM     34  O   UNL     1       3.232   3.114  20.419  0.00  0.00    +0.000 OA
BRANCH  34  35
ATOM     35  C   UNL     1       1.972   2.476  20.614  0.00  0.00    +0.000 C 
BRANCH  35  36
ATOM     36  C   UNL     1       1.465   2.015  19.253  0.00  0.00    +0.000 C 
ATOM     37  O   UNL     1       0.356   2.274  18.813  0.00  0.00    +0.000 OA
BRANCH  36  38
ATOM     38  O   UNL     1       2.368   1.280  18.553  0.00  0.00    +0.000 OA
ATOM     39  H   UNL     1       3.257   1.372  18.960  0.00  0.00    +0.000 HD
ENDBRANCH  36  38
ENDBRANCH  35  36
ENDBRANCH  34  35
ENDBRANCH   9  34
TORSDOF 8
ENDMDL
MODEL 8
REMARK VINA RESULT:      -8.3      2.003      2.809
REMARK  Name = 
REMARK  8 active torsions:
REMARK  status: ('A' for Active; 'I' for Inactive)
REMARK    1  A    between atoms: C_2  and  C_4
REMARK    2  A    between atoms: C_5  and  C_6
REMARK    3  A    between atoms: C_9  and  O_10
REMARK    4  A    between atoms: O_10  and  C_11
REMARK    5  A    between atoms: C_25  and  O_26
REMARK    6  A    between atoms: O_26  and  C_27
REMARK    7  A    between atoms: C_27  and  C_28
REMARK    8  A    between atoms: C_28  and  O_30
REMARK                            x       y       z     vdW  Elec       q    Type
REMARK                         _______ _______ _______ _____ _____    ______ ____
ROOT
ATOM      1  C   UNL     1       0.133  10.238  21.528  0.00  0.00    +0.000 A 
ATOM      2  C   UNL     1      -0.384  11.455  20.998  0.00  0.00    +0.000 A 
ATOM      3  N   UNL     1      -0.124  11.550  19.675  0.00  0.00    +0.000 NA
ATOM      4  N   UNL     1       0.565  10.407  19.379  0.00  0.00    +0.000 N 
ATOM      5  C   UNL     1       0.728   9.596  20.461  0.00  0.00    +0.000 A 
ATOM      6  N   UNL     1       1.257   8.365  20.497  0.00  0.00    +0.000 N 
ATOM      7  C   UNL     1       2.013   7.599  19.607  0.00  0.00    +0.000 A 
ATOM      8  C   UNL     1       2.430   6.354  20.127  0.00  0.00    +0.000 A 
ATOM      9  C   UNL     1       3.213   5.460  19.409  0.00  0.00    +0.000 A 
ATOM     10  C   UNL     1       3.590   5.804  18.122  0.00  0.00    +0.000 A 
ATOM     11  C   UNL     1       3.216   7.056  17.602  0.00  0.00    +0.000 A 
ATOM     12  C   UNL     1       2.434   7.982  18.335  0.00  0.00    +0.000 A 
ATOM     13  C   UNL     1       2.216   9.375  17.772  0.00  0.00    +0.000 C 
ATOM     14  C   UNL     1       0.857  10.051  18.003  0.00  0.00    +0.000 C 
ATOM     15  H   UNL     1       1.037   7.834  21.339  0.00  0.00    +0.000 HD
ENDROOT
BRANCH   2  16
ATOM     16  C   UNL     1      -1.150  12.433  21.792  0.00  0.00    +0.000 A 
ATOM     17  C   UNL     1      -0.455  13.433  22.499  0.00  0.00    +0.000 A 
ATOM     18  C   UNL     1      -1.049  14.119  23.558  0.00  0.00    +0.000 A 
ATOM     19  C   UNL     1      -2.380  13.880  23.878  0.00  0.00    +0.000 A 
ATOM     20  C   UNL     1      -3.117  12.966  23.113  0.00  0.00    +0.000 A 
ATOM     21  C   UNL     1      -2.511  12.258  22.060  0.00  0.00    +0.000 A 
BRANCH  19  22
ATOM     22  O   UNL     1      -2.837  14.524  25.008  0.00  0.00    +0.000 OA
BRANCH  22  23
ATOM     23  C   UNL     1      -2.486  15.833  25.226  0.00  0.00    +0.000 A 
ATOM     24  C   UNL     1      -1.470  16.070  26.154  0.00  0.00    +0.000 A 
ATOM     25  C   UNL     1      -1.097  17.382  26.454  0.00  0.00    +0.000 A 
ATOM     26  C   UNL     1      -1.736  18.450  25.820  0.00  0.00    +0.000 A 
ATOM     27  C   UNL     1      -2.705  18.207  24.847  0.00  0.00    +0.000 A 
ATOM     28  C   UNL     1      -3.057  16.899  24.528  0.00  0.00    +0.000 A 
ENDBRANCH  22  23
ENDBRANCH  19  22
ENDBRANCH   2  16
BRANCH   1  30
ATOM     29  N   UNL     1      -1.107   8.970  23.103  0.00  0.00    +0.000 N 
ATOM     30  C   UNL     1       0.040   9.679  22.863  0.00  0.00    +0.000 C 
ATOM     31  O   UNL     1       0.890   9.795  23.736  0.00  0.00    +0.000 OA
ATOM     32  H   UNL     1      -1.132   8.443  23.961  0.00  0.00    +0.000 HD
ATOM     33  H   UNL     1      -1.691   8.675  22.328  0.00  0.00    +0.000 HD
ENDBRANCH   1  30
BRANCH   9  34
ATOM     34  O   UNL     1       3.587   4.361  20.125  0.00  0.00    +0.000 OA
BRANCH  34  35
ATOM     35  C   UNL     1       2.912   3.141  19.829  0.00  0.00    +0.000 C 
BRANCH  35  36
ATOM     36  C   UNL     1       3.922   2.187  19.204  0.00  0.00    +0.000 C 
ATOM     37  O   UNL     1       3.618   1.237  18.498  0.00  0.00    +0.000 OA
BRANCH  36  38
ATOM     38  O   UNL     1       5.213   2.487  19.499  0.00  0.00    +0.000 OA
ATOM     39  H   UNL     1       5.243   3.130  20.240  0.00  0.00    +0.000 HD
ENDBRANCH  36  38
ENDBRANCH  35  36
ENDBRANCH  34  35
ENDBRANCH   9  34
TORSDOF 8
ENDMDL
MODEL 9
REMARK VINA RESULT:      -8.3      2.147     10.684
REMARK  Name = 
REMARK  8 active torsions:
REMARK  status: ('A' for Active; 'I' for Inactive)
REMARK    1  A    between atoms: C_2  and  C_4
REMARK    2  A    between atoms: C_5  and  C_6
REMARK    3  A    between atoms: C_9  and  O_10
REMARK    4  A    between atoms: O_10  and  C_11
REMARK    5  A    between atoms: C_25  and  O_26
REMARK    6  A    between atoms: O_26  and  C_27
REMARK    7  A    between atoms: C_27  and  C_28
REMARK    8  A    between atoms: C_28  and  O_30
REMARK                            x       y       z     vdW  Elec       q    Type
REMARK                         _______ _______ _______ _____ _____    ______ ____
ROOT
ATOM      1  C   UNL     1       0.326   9.897  21.275  0.00  0.00    +0.000 A 
ATOM      2  C   UNL     1       0.600   9.377  19.977  0.00  0.00    +0.000 A 
ATOM      3  N   UNL     1      -0.090  10.056  19.034  0.00  0.00    +0.000 NA
ATOM      4  N   UNL     1      -0.805  10.987  19.737  0.00  0.00    +0.000 N 
ATOM      5  C   UNL     1      -0.573  10.925  21.077  0.00  0.00    +0.000 A 
ATOM      6  N   UNL     1      -1.023  11.753  22.031  0.00  0.00    +0.000 N 
ATOM      7  C   UNL     1      -2.010  12.739  22.084  0.00  0.00    +0.000 A 
ATOM      8  C   UNL     1      -2.192  13.305  23.365  0.00  0.00    +0.000 A 
ATOM      9  C   UNL     1      -3.144  14.280  23.631  0.00  0.00    +0.000 A 
ATOM     10  C   UNL     1      -3.939  14.724  22.588  0.00  0.00    +0.000 A 
ATOM     11  C   UNL     1      -3.798  14.144  21.314  0.00  0.00    +0.000 A 
ATOM     12  C   UNL     1      -2.843  13.134  21.039  0.00  0.00    +0.000 A 
ATOM     13  C   UNL     1      -2.867  12.442  19.689  0.00  0.00    +0.000 C 
ATOM     14  C   UNL     1      -1.529  12.040  19.050  0.00  0.00    +0.000 C 
ATOM     15  H   UNL     1      -0.518  11.693  22.915  0.00  0.00    +0.000 HD
ENDROOT
BRANCH   2  16
ATOM     16  C   UNL     1       1.558   8.287  19.718  0.00  0.00    +0.000 A 
ATOM     17  C   UNL     1       2.279   8.285  18.508  0.00  0.00    +0.000 A 
ATOM     18  C   UNL     1       2.878   7.123  18.023  0.00  0.00    +0.000 A 
ATOM     19  C   UNL     1       2.843   5.958  18.779  0.00  0.00    +0.000 A 
ATOM     20  C   UNL     1       2.223   5.973  20.036  0.00  0.00    +0.000 A 
ATOM     21  C   UNL     1       1.598   7.139  20.514  0.00  0.00    +0.000 A 
BRANCH  19  22
ATOM     22  O   UNL     1       3.364   4.840  18.162  0.00  0.00    +0.000 OA
BRANCH  22  23
ATOM     23  C   UNL     1       4.702   4.801  17.860  0.00  0.00    +0.000 A 
ATOM     24  C   UNL     1       5.050   4.394  16.570  0.00  0.00    +0.000 A 
ATOM     25  C   UNL     1       6.396   4.289  16.215  0.00  0.00    +0.000 A 
ATOM     26  C   UNL     1       7.388   4.599  17.147  0.00  0.00    +0.000 A 
ATOM     27  C   UNL     1       7.038   5.067  18.413  0.00  0.00    +0.000 A 
ATOM     28  C   UNL     1       5.696   5.197  18.758  0.00  0.00    +0.000 A 
ENDBRANCH  22  23
ENDBRANCH  19  22
ENDBRANCH   2  16
BRANCH   1  30
ATOM     29  N   UNL     1      -0.057   9.159  23.496  0.00  0.00    +0.000 N 
ATOM     30  C   UNL     1       0.876   9.536  22.568  0.00  0.00    +0.000 C 
ATOM     31  O   UNL     1       2.065   9.544  22.854  0.00  0.00    +0.000 OA
ATOM     32  H   UNL     1       0.300   8.757  24.348  0.00  0.00    +0.000 HD
ATOM     33  H   UNL     1      -1.000   8.926  23.201  0.00  0.00    +0.000 HD
ENDBRANCH   1  30
BRANCH   9  34
ATOM     34  O   UNL     1      -3.224  14.623  24.948  0.00  0.00    +0.000 OA
BRANCH  34  35
ATOM     35  C   UNL     1      -2.747  15.918  25.306  0.00  0.00    +0.000 C 
BRANCH  35  36
ATOM     36  C   UNL     1      -1.279  15.785  25.695  0.00  0.00    +0.000 C 
ATOM     37  O   UNL     1      -0.355  15.828  24.898  0.00  0.00    +0.000 OA
BRANCH  36  38
ATOM     38  O   UNL     1      -1.080  15.615  27.027  0.00  0.00    +0.000 OA
ATOM     39  H   UNL     1      -1.797  15.059  27.402  0.00  0.00    +0.000 HD
ENDBRANCH  36  38
ENDBRANCH  35  36
ENDBRANCH  34  35
ENDBRANCH   9  34
TORSDOF 8
ENDMDL
