MODEL 1
REMARK VINA RESULT:      -8.5      0.000      0.000
REMARK  Name = 
REMARK  7 active torsions:
REMARK  status: ('A' for Active; 'I' for Inactive)
REMARK    1  A    between atoms: C_1  and  C_2
REMARK    2  A    between atoms: C_2  and  C_3
REMARK    3  A    between atoms: C_3  and  N_4
REMARK    4  A    between atoms: C_12  and  C_13
REMARK    5  A    between atoms: C_13  and  O_15
REMARK    6  A    between atoms: O_15  and  C_16
REMARK    7  A    between atoms: C_16  and  C_17
REMARK                            x       y       z     vdW  Elec       q    Type
REMARK                         _______ _______ _______ _____ _____    ______ ____
ROOT
ATOM      1  N   UNL     1       4.083   3.543  17.652  0.00  0.00    +0.000 N 
ATOM      2  C   UNL     1       5.254   3.746  18.338  0.00  0.00    +0.000 C 
ATOM      3  O   UNL     1       5.487   3.150  19.387  0.00  0.00    +0.000 OA
ATOM      4  N   UNL     1       6.136   4.652  17.791  0.00  0.00    +0.000 N 
ATOM      5  C   UNL     1       7.453   4.796  18.415  0.00  0.00    +0.000 C 
ATOM      6  C   UNL     1       7.710   6.236  18.841  0.00  0.00    +0.000 C 
ATOM      7  C   UNL     1       7.503   7.203  17.679  0.00  0.00    +0.000 C 
ATOM      8  C   UNL     1       6.135   6.993  17.027  0.00  0.00    +0.000 C 
ATOM      9  C   UNL     1       5.900   5.527  16.622  0.00  0.00    +0.000 C 
ATOM     10  H   UNL     1       4.212   3.537  16.650  0.00  0.00    +0.000 HD
ENDROOT
BRANCH   9  11
ATOM     11  C   UNL     1       6.756   5.136  15.401  0.00  0.00    +0.000 C 
ATOM     12  O   UNL     1       7.754   5.756  15.048  0.00  0.00    +0.000 OA
BRANCH  11  13
ATOM     13  O   UNL     1       6.234   4.070  14.726  0.00  0.00    +0.000 OA
BRANCH  13  14
ATOM     14  C   UNL     1       5.696   4.384  13.433  0.00  0.00    +0.000 C 
BRANCH  14  15
ATOM     15  C   UNL     1       6.080   3.329  12.429  0.00  0.00    +0.000 A 
ATOM     16  C   UNL     1       5.121   2.417  11.966  0.00  0.00    +0.000 A 
ATOM     17  C   UNL     1       5.476   1.417  11.061  0.00  0.00    +0.000 A 
ATOM     18  C   UNL     1       6.789   1.324  10.608  0.00  0.00    +0.000 A 
ATOM     19  C   UNL     1       7.749   2.232  11.056  0.00  0.00    +0.000 A 
ATOM     20  C   UNL     1       7.398   3.232  11.962  0.00  0.00    +0.000 A 
ENDBRANCH  14  15
ENDBRANCH  13  14
ENDBRANCH  11  13
ENDBRANCH   9  11
BRANCH   1  21
ATOM     21  C   UNL     1       3.155   2.542  18.175  0.00  0.00    +0.000 C 
BRANCH  21  23
ATOM     22  C   UNL     1       0.706   2.546  18.794  0.00  0.00    +0.000 C 
ATOM     23  C   UNL     1       2.102   3.089  19.156  0.00  0.00    +0.000 C 
ATOM     24  C   UNL     1       2.437   2.716  20.617  0.00  0.00    +0.000 C 
ATOM     25  C   UNL     1       1.682   3.737  21.472  0.00  0.00    +0.000 C 
ATOM     26  C   UNL     1       1.445   4.949  20.572  0.00  0.00    +0.000 C 
ATOM     27  C   UNL     1       2.126   4.621  19.245  0.00  0.00    +0.000 C 
ENDBRANCH  21  23
ENDBRANCH   1  21
TORSDOF 6
ENDMDL
MODEL 2
REMARK VINA RESULT:      -8.4      2.579      5.986
REMARK  Name = 
REMARK  7 active torsions:
REMARK  status: ('A' for Active; 'I' for Inactive)
REMARK    1  A    between atoms: C_1  and  C_2
REMARK    2  A    between atoms: C_2  and  C_3
REMARK    3  A    between atoms: C_3  and  N_4
REMARK    4  A    between atoms: C_12  and  C_13
REMARK    5  A    between atoms: C_13  and  O_15
REMARK    6  A    between atoms: O_15  and  C_16
REMARK    7  A    between atoms: C_16  and  C_17
REMARK                            x       y       z     vdW  Elec       q    Type
REMARK                         _______ _______ _______ _____ _____    ______ ____
ROOT
ATOM      1  N   UNL     1       4.817   3.197  19.176  0.00  0.00    +0.000 N 
ATOM      2  C   UNL     1       4.581   3.114  17.827  0.00  0.00    +0.000 C 
ATOM      3  O   UNL     1       3.851   2.242  17.363  0.00  0.00    +0.000 OA
ATOM      4  N   UNL     1       5.211   4.050  17.035  0.00  0.00    +0.000 N 
ATOM      5  C   UNL     1       4.878   4.083  15.610  0.00  0.00    +0.000 C 
ATOM      6  C   UNL     1       6.121   3.905  14.747  0.00  0.00    +0.000 C 
ATOM      7  C   UNL     1       7.204   4.913  15.120  0.00  0.00    +0.000 C 
ATOM      8  C   UNL     1       7.492   4.878  16.623  0.00  0.00    +0.000 C 
ATOM      9  C   UNL     1       6.216   5.045  17.466  0.00  0.00    +0.000 C 
ATOM     10  H   UNL     1       4.860   4.151  19.508  0.00  0.00    +0.000 HD
ENDROOT
BRANCH   9  11
ATOM     11  C   UNL     1       5.687   6.492  17.406  0.00  0.00    +0.000 C 
ATOM     12  O   UNL     1       6.342   7.434  16.969  0.00  0.00    +0.000 OA
BRANCH  11  13
ATOM     13  O   UNL     1       4.444   6.610  17.957  0.00  0.00    +0.000 OA
BRANCH  13  14
ATOM     14  C   UNL     1       3.544   7.459  17.230  0.00  0.00    +0.000 C 
BRANCH  14  15
ATOM     15  C   UNL     1       2.607   8.169  18.171  0.00  0.00    +0.000 A 
ATOM     16  C   UNL     1       2.365   7.644  19.449  0.00  0.00    +0.000 A 
ATOM     17  C   UNL     1       1.473   8.278  20.315  0.00  0.00    +0.000 A 
ATOM     18  C   UNL     1       0.823   9.442  19.913  0.00  0.00    +0.000 A 
ATOM     19  C   UNL     1       1.064   9.977  18.647  0.00  0.00    +0.000 A 
ATOM     20  C   UNL     1       1.953   9.344  17.779  0.00  0.00    +0.000 A 
ENDBRANCH  14  15
ENDBRANCH  13  14
ENDBRANCH  11  13
ENDBRANCH   9  11
BRANCH   1  21
ATOM     21  C   UNL     1       4.114   2.258  20.048  0.00  0.00    +0.000 C 
BRANCH  21  23
ATOM     22  C   UNL     1       2.517   2.328  22.004  0.00  0.00    +0.000 C 
ATOM     23  C   UNL     1       2.734   2.737  20.534  0.00  0.00    +0.000 C 
ATOM     24  C   UNL     1       2.581   4.267  20.397  0.00  0.00    +0.000 C 
ATOM     25  C   UNL     1       1.071   4.516  20.373  0.00  0.00    +0.000 C 
ATOM     26  C   UNL     1       0.433   3.205  19.914  0.00  0.00    +0.000 C 
ATOM     27  C   UNL     1       1.595   2.258  19.623  0.00  0.00    +0.000 C 
ENDBRANCH  21  23
ENDBRANCH   1  21
TORSDOF 6
ENDMDL
MODEL 3
REMARK VINA RESULT:      -8.0      2.882      7.922
REMARK  Name = 
REMARK  7 active torsions:
REMARK  status: ('A' for Active; 'I' for Inactive)
REMARK    1  A    between atoms: C_1  and  C_2
REMARK    2  A    between atoms: C_2  and  C_3
REMARK    3  A    between atoms: C_3  and  N_4
REMARK    4  A    between atoms: C_12  and  C_13
REMARK    5  A    between atoms: C_13  and  O_15
REMARK    6  A    between atoms: O_15  and  C_16
REMARK    7  A    between atoms: C_16  and  C_17
REMARK                            x       y       z     vdW  Elec       q    Type
REMARK                         _______ _______ _______ _____ _____    ______ ____
ROOT
ATOM      1  N   UNL     1       4.846   5.289  18.994  0.00  0.00    +0.000 N 
ATOM      2  C   UNL     1       4.644   3.947  19.198  0.00  0.00    +0.000 C 
ATOM      3  O   UNL     1       5.583   3.155  19.180  0.00  0.00    +0.000 OA
ATOM      4  N   UNL     1       3.343   3.548  19.413  0.00  0.00    +0.000 N 
ATOM      5  C   UNL     1       3.102   2.149  19.771  0.00  0.00    +0.000 C 
ATOM      6  C   UNL     1       2.146   1.482  18.789  0.00  0.00    +0.000 C 
ATOM      7  C   UNL     1       0.855   2.282  18.644  0.00  0.00    +0.000 C 
ATOM      8  C   UNL     1       1.150   3.746  18.312  0.00  0.00    +0.000 C 
ATOM      9  C   UNL     1       2.129   4.385  19.312  0.00  0.00    +0.000 C 
ATOM     10  H   UNL     1       4.260   5.867  19.581  0.00  0.00    +0.000 HD
ENDROOT
BRANCH   9  11
ATOM     11  C   UNL     1       1.458   4.631  20.678  0.00  0.00    +0.000 C 
ATOM     12  O   UNL     1       1.225   3.738  21.487  0.00  0.00    +0.000 OA
BRANCH  11  13
ATOM     13  O   UNL     1       1.095   5.935  20.847  0.00  0.00    +0.000 OA
BRANCH  13  14
ATOM     14  C   UNL     1       2.171   6.878  20.727  0.00  0.00    +0.000 C 
BRANCH  14  15
ATOM     15  C   UNL     1       1.746   8.065  19.904  0.00  0.00    +0.000 A 
ATOM     16  C   UNL     1       0.927   9.054  20.468  0.00  0.00    +0.000 A 
ATOM     17  C   UNL     1       0.502  10.140  19.702  0.00  0.00    +0.000 A 
ATOM     18  C   UNL     1       0.898  10.250  18.372  0.00  0.00    +0.000 A 
ATOM     19  C   UNL     1       1.720   9.276  17.804  0.00  0.00    +0.000 A 
ATOM     20  C   UNL     1       2.144   8.188  18.566  0.00  0.00    +0.000 A 
ENDBRANCH  14  15
ENDBRANCH  13  14
ENDBRANCH  11  13
ENDBRANCH   9  11
BRANCH   1  21
ATOM     21  C   UNL     1       6.222   5.752  18.824  0.00  0.00    +0.000 C 
BRANCH  21  23
ATOM     22  C   UNL     1       7.595   7.186  17.262  0.00  0.00    +0.000 C 
ATOM     23  C   UNL     1       6.654   5.970  17.363  0.00  0.00    +0.000 C 
ATOM     24  C   UNL     1       7.360   4.723  16.786  0.00  0.00    +0.000 C 
ATOM     25  C   UNL     1       7.228   4.857  15.267  0.00  0.00    +0.000 C 
ATOM     26  C   UNL     1       6.024   5.768  15.026  0.00  0.00    +0.000 C 
ATOM     27  C   UNL     1       5.456   6.080  16.409  0.00  0.00    +0.000 C 
ENDBRANCH  21  23
ENDBRANCH   1  21
TORSDOF 6
ENDMDL
MODEL 4
REMARK VINA RESULT:      -7.8      2.503      5.867
REMARK  Name = 
REMARK  7 active torsions:
REMARK  status: ('A' for Active; 'I' for Inactive)
REMARK    1  A    between atoms: C_1  and  C_2
REMARK    2  A    between atoms: C_2  and  C_3
REMARK    3  A    between atoms: C_3  and  N_4
REMARK    4  A    between atoms: C_12  and  C_13
REMARK    5  A    between atoms: C_13  and  O_15
REMARK    6  A    between atoms: O_15  and  C_16
REMARK    7  A    between atoms: C_16  and  C_17
REMARK                            x       y       z     vdW  Elec       q    Type
REMARK                         _______ _______ _______ _____ _____    ______ ____
ROOT
ATOM      1  N   UNL     1       4.834   3.097  18.799  0.00  0.00    +0.000 N 
ATOM      2  C   UNL     1       4.589   3.136  17.449  0.00  0.00    +0.000 C 
ATOM      3  O   UNL     1       3.827   2.332  16.918  0.00  0.00    +0.000 OA
ATOM      4  N   UNL     1       5.248   4.113  16.734  0.00  0.00    +0.000 N 
ATOM      5  C   UNL     1       4.910   4.278  15.319  0.00  0.00    +0.000 C 
ATOM      6  C   UNL     1       6.142   4.130  14.435  0.00  0.00    +0.000 C 
ATOM      7  C   UNL     1       7.261   5.065  14.884  0.00  0.00    +0.000 C 
ATOM      8  C   UNL     1       7.555   4.893  16.376  0.00  0.00    +0.000 C 
ATOM      9  C   UNL     1       6.289   5.032  17.239  0.00  0.00    +0.000 C 
ATOM     10  H   UNL     1       4.912   4.017  19.210  0.00  0.00    +0.000 HD
ENDROOT
BRANCH   9  11
ATOM     11  C   UNL     1       5.812   6.497  17.306  0.00  0.00    +0.000 C 
ATOM     12  O   UNL     1       6.456   7.439  16.855  0.00  0.00    +0.000 OA
BRANCH  11  13
ATOM     13  O   UNL     1       4.633   6.624  17.981  0.00  0.00    +0.000 OA
BRANCH  13  14
ATOM     14  C   UNL     1       3.585   7.270  17.243  0.00  0.00    +0.000 C 
BRANCH  14  15
ATOM     15  C   UNL     1       2.638   7.978  18.175  0.00  0.00    +0.000 A 
ATOM     16  C   UNL     1       2.002   9.159  17.767  0.00  0.00    +0.000 A 
ATOM     17  C   UNL     1       1.149   9.839  18.637  0.00  0.00    +0.000 A 
ATOM     18  C   UNL     1       0.919   9.340  19.916  0.00  0.00    +0.000 A 
ATOM     19  C   UNL     1       1.540   8.160  20.328  0.00  0.00    +0.000 A 
ATOM     20  C   UNL     1       2.395   7.480  19.462  0.00  0.00    +0.000 A 
ENDBRANCH  14  15
ENDBRANCH  13  14
ENDBRANCH  11  13
ENDBRANCH   9  11
BRANCH   1  21
ATOM     21  C   UNL     1       4.103   2.111  19.593  0.00  0.00    +0.000 C 
BRANCH  21  23
ATOM     22  C   UNL     1       1.638   1.784  19.146  0.00  0.00    +0.000 C 
ATOM     23  C   UNL     1       2.679   2.536  19.997  0.00  0.00    +0.000 C 
ATOM     24  C   UNL     1       2.409   2.272  21.494  0.00  0.00    +0.000 C 
ATOM     25  C   UNL     1       1.251   3.204  21.862  0.00  0.00    +0.000 C 
ATOM     26  C   UNL     1       1.276   4.334  20.833  0.00  0.00    +0.000 C 
ATOM     27  C   UNL     1       2.486   4.058  19.942  0.00  0.00    +0.000 C 
ENDBRANCH  21  23
ENDBRANCH   1  21
TORSDOF 6
ENDMDL
MODEL 5
REMARK VINA RESULT:      -7.7      4.250      6.854
REMARK  Name = 
REMARK  7 active torsions:
REMARK  status: ('A' for Active; 'I' for Inactive)
REMARK    1  A    between atoms: C_1  and  C_2
REMARK    2  A    between atoms: C_2  and  C_3
REMARK    3  A    between atoms: C_3  and  N_4
REMARK    4  A    between atoms: C_12  and  C_13
REMARK    5  A    between atoms: C_13  and  O_15
REMARK    6  A    between atoms: O_15  and  C_16
REMARK    7  A    between atoms: C_16  and  C_17
REMARK                            x       y       z     vdW  Elec       q    Type
REMARK                         _______ _______ _______ _____ _____    ______ ____
ROOT
ATOM      1  N   UNL     1       1.903   7.291  21.036  0.00  0.00    +0.000 N 
ATOM      2  C   UNL     1       1.983   6.979  19.702  0.00  0.00    +0.000 C 
ATOM      3  O   UNL     1       1.929   7.855  18.842  0.00  0.00    +0.000 OA
ATOM      4  N   UNL     1       2.117   5.644  19.391  0.00  0.00    +0.000 N 
ATOM      5  C   UNL     1       2.344   5.282  17.990  0.00  0.00    +0.000 C 
ATOM      6  C   UNL     1       1.276   4.320  17.486  0.00  0.00    +0.000 C 
ATOM      7  C   UNL     1       1.155   3.100  18.395  0.00  0.00    +0.000 C 
ATOM      8  C   UNL     1       0.961   3.520  19.854  0.00  0.00    +0.000 C 
ATOM      9  C   UNL     1       2.047   4.502  20.327  0.00  0.00    +0.000 C 
ATOM     10  H   UNL     1       2.517   6.727  21.608  0.00  0.00    +0.000 HD
ENDROOT
BRANCH   9  11
ATOM     11  C   UNL     1       3.405   3.795  20.510  0.00  0.00    +0.000 C 
ATOM     12  O   UNL     1       3.517   2.638  20.902  0.00  0.00    +0.000 OA
BRANCH  11  13
ATOM     13  O   UNL     1       4.457   4.626  20.254  0.00  0.00    +0.000 OA
BRANCH  13  14
ATOM     14  C   UNL     1       5.358   4.158  19.240  0.00  0.00    +0.000 C 
BRANCH  14  15
ATOM     15  C   UNL     1       6.143   5.304  18.659  0.00  0.00    +0.000 A 
ATOM     16  C   UNL     1       7.379   5.663  19.216  0.00  0.00    +0.000 A 
ATOM     17  C   UNL     1       8.097   6.744  18.704  0.00  0.00    +0.000 A 
ATOM     18  C   UNL     1       7.590   7.469  17.629  0.00  0.00    +0.000 A 
ATOM     19  C   UNL     1       6.365   7.115  17.063  0.00  0.00    +0.000 A 
ATOM     20  C   UNL     1       5.644   6.036  17.573  0.00  0.00    +0.000 A 
ENDBRANCH  14  15
ENDBRANCH  13  14
ENDBRANCH  11  13
ENDBRANCH   9  11
BRANCH   1  21
ATOM     21  C   UNL     1       1.822   8.704  21.400  0.00  0.00    +0.000 C 
BRANCH  21  23
ATOM     22  C   UNL     1      -0.642   8.161  21.273  0.00  0.00    +0.000 C 
ATOM     23  C   UNL     1       0.400   9.213  21.699  0.00  0.00    +0.000 C 
ATOM     24  C   UNL     1       0.217   9.545  23.195  0.00  0.00    +0.000 C 
ATOM     25  C   UNL     1      -0.967  10.515  23.247  0.00  0.00    +0.000 C 
ATOM     26  C   UNL     1      -1.048  11.156  21.862  0.00  0.00    +0.000 C 
ATOM     27  C   UNL     1       0.129  10.588  21.072  0.00  0.00    +0.000 C 
ENDBRANCH  21  23
ENDBRANCH   1  21
TORSDOF 6
ENDMDL
MODEL 6
REMARK VINA RESULT:      -7.7      2.970      8.633
REMARK  Name = 
REMARK  7 active torsions:
REMARK  status: ('A' for Active; 'I' for Inactive)
REMARK    1  A    between atoms: C_1  and  C_2
REMARK    2  A    between atoms: C_2  and  C_3
REMARK    3  A    between atoms: C_3  and  N_4
REMARK    4  A    between atoms: C_12  and  C_13
REMARK    5  A    between atoms: C_13  and  O_15
REMARK    6  A    between atoms: O_15  and  C_16
REMARK    7  A    between atoms: C_16  and  C_17
REMARK                            x       y       z     vdW  Elec       q    Type
REMARK                         _______ _______ _______ _____ _____    ______ ____
ROOT
ATOM      1  N   UNL     1       4.914   5.395  18.947  0.00  0.00    +0.000 N 
ATOM      2  C   UNL     1       4.700   4.056  19.154  0.00  0.00    +0.000 C 
ATOM      3  O   UNL     1       5.625   3.249  19.096  0.00  0.00    +0.000 OA
ATOM      4  N   UNL     1       3.402   3.675  19.418  0.00  0.00    +0.000 N 
ATOM      5  C   UNL     1       3.154   2.278  19.780  0.00  0.00    +0.000 C 
ATOM      6  C   UNL     1       2.151   1.630  18.833  0.00  0.00    +0.000 C 
ATOM      7  C   UNL     1       0.867   2.450  18.742  0.00  0.00    +0.000 C 
ATOM      8  C   UNL     1       1.171   3.911  18.404  0.00  0.00    +0.000 C 
ATOM      9  C   UNL     1       2.198   4.530  19.368  0.00  0.00    +0.000 C 
ATOM     10  H   UNL     1       4.360   5.979  19.559  0.00  0.00    +0.000 HD
ENDROOT
BRANCH   9  11
ATOM     11  C   UNL     1       1.584   4.780  20.760  0.00  0.00    +0.000 C 
ATOM     12  O   UNL     1       1.583   3.943  21.658  0.00  0.00    +0.000 OA
BRANCH  11  13
ATOM     13  O   UNL     1       0.987   6.003  20.849  0.00  0.00    +0.000 OA
BRANCH  13  14
ATOM     14  C   UNL     1       1.833   7.111  20.505  0.00  0.00    +0.000 C 
BRANCH  14  15
ATOM     15  C   UNL     1       1.148   8.416  20.812  0.00  0.00    +0.000 A 
ATOM     16  C   UNL     1       0.920   9.347  19.788  0.00  0.00    +0.000 A 
ATOM     17  C   UNL     1       0.316  10.573  20.070  0.00  0.00    +0.000 A 
ATOM     18  C   UNL     1      -0.069  10.874  21.373  0.00  0.00    +0.000 A 
ATOM     19  C   UNL     1       0.146   9.951  22.398  0.00  0.00    +0.000 A 
ATOM     20  C   UNL     1       0.752   8.727  22.119  0.00  0.00    +0.000 A 
ENDBRANCH  14  15
ENDBRANCH  13  14
ENDBRANCH  11  13
ENDBRANCH   9  11
BRANCH   1  21
ATOM     21  C   UNL     1       6.289   5.838  18.727  0.00  0.00    +0.000 C 
BRANCH  21  23
ATOM     22  C   UNL     1       7.618   7.210  17.073  0.00  0.00    +0.000 C 
ATOM     23  C   UNL     1       6.687   5.995  17.247  0.00  0.00    +0.000 C 
ATOM     24  C   UNL     1       7.386   4.728  16.708  0.00  0.00    +0.000 C 
ATOM     25  C   UNL     1       7.218   4.796  15.188  0.00  0.00    +0.000 C 
ATOM     26  C   UNL     1       6.004   5.689  14.937  0.00  0.00    +0.000 C 
ATOM     27  C   UNL     1       5.467   6.058  16.318  0.00  0.00    +0.000 C 
ENDBRANCH  21  23
ENDBRANCH   1  21
TORSDOF 6
ENDMDL
MODEL 7
REMARK VINA RESULT:      -7.7      2.699      7.799
REMARK  Name = 
REMARK  7 active torsions:
REMARK  status: ('A' for Active; 'I' for Inactive)
REMARK    1  A    between atoms: C_1  and  C_2
REMARK    2  A    between atoms: C_2  and  C_3
REMARK    3  A    between atoms: C_3  and  N_4
REMARK    4  A    between atoms: C_12  and  C_13
REMARK    5  A    between atoms: C_13  and  O_15
REMARK    6  A    between atoms: O_15  and  C_16
REMARK    7  A    between atoms: C_16  and  C_17
REMARK                            x       y       z     vdW  Elec       q    Type
REMARK                         _______ _______ _______ _____ _____    ______ ____
ROOT
ATOM      1  N   UNL     1       5.486   4.037  15.277  0.00  0.00    +0.000 N 
ATOM      2  C   UNL     1       5.822   4.028  16.607  0.00  0.00    +0.000 C 
ATOM      3  O   UNL     1       6.983   4.206  16.970  0.00  0.00    +0.000 OA
ATOM      4  N   UNL     1       4.796   3.803  17.498  0.00  0.00    +0.000 N 
ATOM      5  C   UNL     1       5.085   3.922  18.928  0.00  0.00    +0.000 C 
ATOM      6  C   UNL     1       4.748   2.635  19.672  0.00  0.00    +0.000 C 
ATOM      7  C   UNL     1       3.312   2.199  19.398  0.00  0.00    +0.000 C 
ATOM      8  C   UNL     1       3.036   2.127  17.895  0.00  0.00    +0.000 C 
ATOM      9  C   UNL     1       3.401   3.435  17.172  0.00  0.00    +0.000 C 
ATOM     10  H   UNL     1       4.595   4.481  15.101  0.00  0.00    +0.000 HD
ENDROOT
BRANCH   9  11
ATOM     11  C   UNL     1       2.396   4.557  17.497  0.00  0.00    +0.000 C 
ATOM     12  O   UNL     1       1.179   4.419  17.418  0.00  0.00    +0.000 OA
BRANCH  11  13
ATOM     13  O   UNL     1       3.018   5.731  17.811  0.00  0.00    +0.000 OA
BRANCH  13  14
ATOM     14  C   UNL     1       2.756   6.212  19.138  0.00  0.00    +0.000 C 
BRANCH  14  15
ATOM     15  C   UNL     1       2.170   7.599  19.093  0.00  0.00    +0.000 A 
ATOM     16  C   UNL     1       1.550   8.137  20.230  0.00  0.00    +0.000 A 
ATOM     17  C   UNL     1       0.976   9.408  20.187  0.00  0.00    +0.000 A 
ATOM     18  C   UNL     1       1.022  10.152  19.010  0.00  0.00    +0.000 A 
ATOM     19  C   UNL     1       1.644   9.628  17.876  0.00  0.00    +0.000 A 
ATOM     20  C   UNL     1       2.217   8.358  17.916  0.00  0.00    +0.000 A 
ENDBRANCH  14  15
ENDBRANCH  13  14
ENDBRANCH  11  13
ENDBRANCH   9  11
BRANCH   1  21
ATOM     21  C   UNL     1       6.542   4.335  14.311  0.00  0.00    +0.000 C 
BRANCH  21  23
ATOM     22  C   UNL     1       7.137   4.686  11.881  0.00  0.00    +0.000 C 
ATOM     23  C   UNL     1       6.226   3.923  12.861  0.00  0.00    +0.000 C 
ATOM     24  C   UNL     1       6.398   2.404  12.650  0.00  0.00    +0.000 C 
ATOM     25  C   UNL     1       5.556   2.074  11.415  0.00  0.00    +0.000 C 
ATOM     26  C   UNL     1       4.511   3.184  11.308  0.00  0.00    +0.000 C 
ATOM     27  C   UNL     1       4.738   4.086  12.519  0.00  0.00    +0.000 C 
ENDBRANCH  21  23
ENDBRANCH   1  21
TORSDOF 6
ENDMDL
MODEL 8
REMARK VINA RESULT:      -7.6      0.805      1.559
REMARK  Name = 
REMARK  7 active torsions:
REMARK  status: ('A' for Active; 'I' for Inactive)
REMARK    1  A    between atoms: C_1  and  C_2
REMARK    2  A    between atoms: C_2  and  C_3
REMARK    3  A    between atoms: C_3  and  N_4
REMARK    4  A    between atoms: C_12  and  C_13
REMARK    5  A    between atoms: C_13  and  O_15
REMARK    6  A    between atoms: O_15  and  C_16
REMARK    7  A    between atoms: C_16  and  C_17
REMARK                            x       y       z     vdW  Elec       q    Type
REMARK                         _______ _______ _______ _____ _____    ______ ____
ROOT
ATOM      1  N   UNL     1       4.444   3.604  17.702  0.00  0.00    +0.000 N 
ATOM      2  C   UNL     1       5.557   4.037  18.379  0.00  0.00    +0.000 C 
ATOM      3  O   UNL     1       5.796   3.650  19.520  0.00  0.00    +0.000 OA
ATOM      4  N   UNL     1       6.372   4.925  17.713  0.00  0.00    +0.000 N 
ATOM      5  C   UNL     1       7.639   5.304  18.343  0.00  0.00    +0.000 C 
ATOM      6  C   UNL     1       7.736   6.814  18.527  0.00  0.00    +0.000 C 
ATOM      7  C   UNL     1       7.492   7.548  17.212  0.00  0.00    +0.000 C 
ATOM      8  C   UNL     1       6.182   7.095  16.564  0.00  0.00    +0.000 C 
ATOM      9  C   UNL     1       6.108   5.566  16.407  0.00  0.00    +0.000 C 
ATOM     10  H   UNL     1       4.620   3.446  16.720  0.00  0.00    +0.000 HD
ENDROOT
BRANCH   9  11
ATOM     11  C   UNL     1       7.054   5.068  15.296  0.00  0.00    +0.000 C 
ATOM     12  O   UNL     1       8.038   4.367  15.510  0.00  0.00    +0.000 OA
BRANCH  11  13
ATOM     13  O   UNL     1       6.708   5.554  14.068  0.00  0.00    +0.000 OA
BRANCH  13  14
ATOM     14  C   UNL     1       7.462   5.012  12.974  0.00  0.00    +0.000 C 
BRANCH  14  15
ATOM     15  C   UNL     1       6.723   3.866  12.336  0.00  0.00    +0.000 A 
ATOM     16  C   UNL     1       7.434   2.818  11.735  0.00  0.00    +0.000 A 
ATOM     17  C   UNL     1       6.757   1.769  11.113  0.00  0.00    +0.000 A 
ATOM     18  C   UNL     1       5.364   1.757  11.092  0.00  0.00    +0.000 A 
ATOM     19  C   UNL     1       4.647   2.791  11.694  0.00  0.00    +0.000 A 
ATOM     20  C   UNL     1       5.322   3.842  12.315  0.00  0.00    +0.000 A 
ENDBRANCH  14  15
ENDBRANCH  13  14
ENDBRANCH  11  13
ENDBRANCH   9  11
BRANCH   1  21
ATOM     21  C   UNL     1       3.592   2.614  18.359  0.00  0.00    +0.000 C 
BRANCH  21  23
ATOM     22  C   UNL     1       2.284   4.708  18.892  0.00  0.00    +0.000 C 
ATOM     23  C   UNL     1       2.437   3.204  19.188  0.00  0.00    +0.000 C 
ATOM     24  C   UNL     1       1.102   2.484  18.898  0.00  0.00    +0.000 C 
ATOM     25  C   UNL     1       0.225   2.763  20.121  0.00  0.00    +0.000 C 
ATOM     26  C   UNL     1       1.185   3.085  21.266  0.00  0.00    +0.000 C 
ATOM     27  C   UNL     1       2.589   2.918  20.688  0.00  0.00    +0.000 C 
ENDBRANCH  21  23
ENDBRANCH   1  21
TORSDOF 6
ENDMDL
MODEL 9
REMARK VINA RESULT:      -7.5      0.836      1.279
REMARK  Name = 
REMARK  7 active torsions:
REMARK  status: ('A' for Active; 'I' for Inactive)
REMARK    1  A    between atoms: C_1  and  C_2
REMARK    2  A    between atoms: C_2  and  C_3
REMARK    3  A    between atoms: C_3  and  N_4
REMARK    4  A    between atoms: C_12  and  C_13
REMARK    5  A    between atoms: C_13  and  O_15
REMARK    6  A    between atoms: O_15  and  C_16
REMARK    7  A    between atoms: C_16  and  C_17
REMARK                            x       y       z     vdW  Elec       q    Type
REMARK                         _______ _______ _______ _____ _____    ______ ____
ROOT
ATOM      1  N   UNL     1       4.467   3.527  18.084  0.00  0.00    +0.000 N 
ATOM      2  C   UNL     1       5.618   3.988  18.671  0.00  0.00    +0.000 C 
ATOM      3  O   UNL     1       5.944   3.628  19.800  0.00  0.00    +0.000 OA
ATOM      4  N   UNL     1       6.371   4.875  17.932  0.00  0.00    +0.000 N 
ATOM      5  C   UNL     1       7.673   5.284  18.463  0.00  0.00    +0.000 C 
ATOM      6  C   UNL     1       7.760   6.798  18.610  0.00  0.00    +0.000 C 
ATOM      7  C   UNL     1       7.413   7.502  17.302  0.00  0.00    +0.000 C 
ATOM      8  C   UNL     1       6.067   7.018  16.758  0.00  0.00    +0.000 C 
ATOM      9  C   UNL     1       6.005   5.485  16.636  0.00  0.00    +0.000 C 
ATOM     10  H   UNL     1       4.575   3.351  17.095  0.00  0.00    +0.000 HD
ENDROOT
BRANCH   9  11
ATOM     11  C   UNL     1       6.877   4.978  15.470  0.00  0.00    +0.000 C 
ATOM     12  O   UNL     1       7.916   4.345  15.628  0.00  0.00    +0.000 OA
BRANCH  11  13
ATOM     13  O   UNL     1       6.396   5.375  14.256  0.00  0.00    +0.000 OA
BRANCH  13  14
ATOM     14  C   UNL     1       7.230   5.033  13.139  0.00  0.00    +0.000 C 
BRANCH  14  15
ATOM     15  C   UNL     1       6.663   3.854  12.394  0.00  0.00    +0.000 A 
ATOM     16  C   UNL     1       5.274   3.700  12.275  0.00  0.00    +0.000 A 
ATOM     17  C   UNL     1       4.740   2.594  11.615  0.00  0.00    +0.000 A 
ATOM     18  C   UNL     1       5.588   1.637  11.063  0.00  0.00    +0.000 A 
ATOM     19  C   UNL     1       6.972   1.786  11.168  0.00  0.00    +0.000 A 
ATOM     20  C   UNL     1       7.509   2.890  11.830  0.00  0.00    +0.000 A 
ENDBRANCH  14  15
ENDBRANCH  13  14
ENDBRANCH  11  13
ENDBRANCH   9  11
BRANCH   1  21
ATOM     21  C   UNL     1       3.680   2.538  18.818  0.00  0.00    +0.000 C 
BRANCH  21  23
ATOM     22  C   UNL     1       2.984   2.540  21.247  0.00  0.00    +0.000 C 
ATOM     23  C   UNL     1       2.703   3.130  19.852  0.00  0.00    +0.000 C 
ATOM     24  C   UNL     1       2.801   4.669  19.913  0.00  0.00    +0.000 C 
ATOM     25  C   UNL     1       1.471   5.131  20.513  0.00  0.00    +0.000 C 
ATOM     26  C   UNL     1       0.472   4.007  20.239  0.00  0.00    +0.000 C 
ATOM     27  C   UNL     1       1.236   2.959  19.432  0.00  0.00    +0.000 C 
ENDBRANCH  21  23
ENDBRANCH   1  21
TORSDOF 6
ENDMDL
