MODEL 1
REMARK VINA RESULT:      -8.3      0.000      0.000
REMARK  Name = 
REMARK  3 active torsions:
REMARK  status: ('A' for Active; 'I' for Inactive)
REMARK    1  A    between atoms: C_2  and  C_3
REMARK    2  A    between atoms: C_3  and  C_4
REMARK    3  A    between atoms: N_16  and  C_17
REMARK                            x       y       z     vdW  Elec       q    Type
REMARK                         _______ _______ _______ _____ _____    ______ ____
ROOT
ATOM      1  O   UNL     1       1.902   7.980  19.664  0.00  0.00    +0.000 OA
ATOM      2  C   UNL     1       2.053   8.333  18.497  0.00  0.00    +0.000 C 
ATOM      3  N   UNL     1       1.329   9.316  17.854  0.00  0.00    +0.000 N 
ATOM      4  H   UNL     1       1.324   9.314  16.843  0.00  0.00    +0.000 HD
ENDROOT
BRANCH   3   5
ATOM      5  C   UNL     1       0.340  10.114  18.449  0.00  0.00    +0.000 A 
ATOM      6  C   UNL     1       0.632  11.065  19.446  0.00  0.00    +0.000 A 
ATOM      7  C   UNL     1      -0.378  11.886  19.963  0.00  0.00    +0.000 A 
ATOM      8  C   UNL     1      -1.651  11.724  19.463  0.00  0.00    +0.000 A 
ATOM      9  C   UNL     1      -1.936  10.783  18.499  0.00  0.00    +0.000 A 
ATOM     10  C   UNL     1      -0.964   9.971  17.965  0.00  0.00    +0.000 A 
ATOM     11  O   UNL     1      -3.249  10.782  18.147  0.00  0.00    +0.000 OA
ATOM     12  C   UNL     1      -3.697  11.965  18.840  0.00  0.00    +0.000 C 
ATOM     13  O   UNL     1      -2.748  12.445  19.813  0.00  0.00    +0.000 OA
ENDBRANCH   3   5
BRANCH   2  14
ATOM     14  C   UNL     1       3.112   7.678  17.630  0.00  0.00    +0.000 C 
BRANCH  14  15
ATOM     15  C   UNL     1       3.694   6.381  18.179  0.00  0.00    +0.000 C 
ATOM     16  C   UNL     1       5.020   5.934  17.546  0.00  0.00    +0.000 A 
ATOM     17  C   UNL     1       6.216   6.621  17.448  0.00  0.00    +0.000 A 
ATOM     18  C   UNL     1       7.270   5.994  16.769  0.00  0.00    +0.000 A 
ATOM     19  C   UNL     1       7.119   4.702  16.222  0.00  0.00    +0.000 A 
ATOM     20  C   UNL     1       5.918   4.007  16.339  0.00  0.00    +0.000 A 
ATOM     21  C   UNL     1       4.883   4.633  16.996  0.00  0.00    +0.000 A 
ATOM     22  C   UNL     1       3.549   4.207  17.266  0.00  0.00    +0.000 A 
ATOM     23  C   UNL     1       2.637   3.199  17.130  0.00  0.00    +0.000 A 
ATOM     24  N   UNL     1       1.441   3.574  17.731  0.00  0.00    +0.000 NA
ATOM     25  C   UNL     1       1.625   4.795  18.197  0.00  0.00    +0.000 A 
ATOM     26  N   UNL     1       2.879   5.203  17.929  0.00  0.00    +0.000 N 
ENDBRANCH  14  15
ENDBRANCH   2  14
TORSDOF 3
ENDMDL
MODEL 2
REMARK VINA RESULT:      -8.2      1.881      3.577
REMARK  Name = 
REMARK  3 active torsions:
REMARK  status: ('A' for Active; 'I' for Inactive)
REMARK    1  A    between atoms: C_2  and  C_3
REMARK    2  A    between atoms: C_3  and  C_4
REMARK    3  A    between atoms: N_16  and  C_17
REMARK                            x       y       z     vdW  Elec       q    Type
REMARK                         _______ _______ _______ _____ _____    ______ ____
ROOT
ATOM      1  O   UNL     1       1.313   6.946  20.933  0.00  0.00    +0.000 OA
ATOM      2  C   UNL     1       1.968   7.436  20.016  0.00  0.00    +0.000 C 
ATOM      3  N   UNL     1       1.763   8.682  19.458  0.00  0.00    +0.000 N 
ATOM      4  H   UNL     1       2.145   8.856  18.538  0.00  0.00    +0.000 HD
ENDROOT
BRANCH   3   5
ATOM      5  C   UNL     1       0.809   9.616  19.889  0.00  0.00    +0.000 A 
ATOM      6  C   UNL     1      -0.156  10.168  19.023  0.00  0.00    +0.000 A 
ATOM      7  C   UNL     1      -1.130  11.046  19.513  0.00  0.00    +0.000 A 
ATOM      8  C   UNL     1      -1.104  11.344  20.857  0.00  0.00    +0.000 A 
ATOM      9  C   UNL     1      -0.150  10.815  21.697  0.00  0.00    +0.000 A 
ATOM     10  C   UNL     1       0.812   9.942  21.249  0.00  0.00    +0.000 A 
ATOM     11  O   UNL     1      -0.298  11.238  22.981  0.00  0.00    +0.000 OA
ATOM     12  C   UNL     1      -1.569  11.912  22.880  0.00  0.00    +0.000 C 
ATOM     13  O   UNL     1      -1.981  12.144  21.519  0.00  0.00    +0.000 OA
ENDBRANCH   3   5
BRANCH   2  14
ATOM     14  C   UNL     1       3.118   6.664  19.399  0.00  0.00    +0.000 C 
BRANCH  14  15
ATOM     15  C   UNL     1       2.774   5.871  18.145  0.00  0.00    +0.000 C 
ATOM     16  C   UNL     1       2.288   4.434  18.385  0.00  0.00    +0.000 A 
ATOM     17  C   UNL     1       1.231   3.987  19.157  0.00  0.00    +0.000 A 
ATOM     18  C   UNL     1       1.033   2.602  19.247  0.00  0.00    +0.000 A 
ATOM     19  C   UNL     1       1.873   1.700  18.560  0.00  0.00    +0.000 A 
ATOM     20  C   UNL     1       2.926   2.155  17.770  0.00  0.00    +0.000 A 
ATOM     21  C   UNL     1       3.122   3.516  17.697  0.00  0.00    +0.000 A 
ATOM     22  C   UNL     1       4.100   4.286  17.001  0.00  0.00    +0.000 A 
ATOM     23  C   UNL     1       5.183   4.248  16.168  0.00  0.00    +0.000 A 
ATOM     24  N   UNL     1       5.611   5.545  15.910  0.00  0.00    +0.000 NA
ATOM     25  C   UNL     1       4.817   6.344  16.596  0.00  0.00    +0.000 A 
ATOM     26  N   UNL     1       3.903   5.617  17.264  0.00  0.00    +0.000 N 
ENDBRANCH  14  15
ENDBRANCH   2  14
TORSDOF 3
ENDMDL
MODEL 3
REMARK VINA RESULT:      -8.2      1.029      1.797
REMARK  Name = 
REMARK  3 active torsions:
REMARK  status: ('A' for Active; 'I' for Inactive)
REMARK    1  A    between atoms: C_2  and  C_3
REMARK    2  A    between atoms: C_3  and  C_4
REMARK    3  A    between atoms: N_16  and  C_17
REMARK                            x       y       z     vdW  Elec       q    Type
REMARK                         _______ _______ _______ _____ _____    ______ ____
ROOT
ATOM      1  O   UNL     1       1.877   7.873  19.746  0.00  0.00    +0.000 OA
ATOM      2  C   UNL     1       2.061   8.315  18.615  0.00  0.00    +0.000 C 
ATOM      3  N   UNL     1       1.464   9.440  18.085  0.00  0.00    +0.000 N 
ATOM      4  H   UNL     1       1.449   9.537  17.078  0.00  0.00    +0.000 HD
ENDROOT
BRANCH   3   5
ATOM      5  C   UNL     1       0.594  10.298  18.775  0.00  0.00    +0.000 A 
ATOM      6  C   UNL     1      -0.772  10.412  18.450  0.00  0.00    +0.000 A 
ATOM      7  C   UNL     1      -1.617  11.230  19.210  0.00  0.00    +0.000 A 
ATOM      8  C   UNL     1      -1.062  11.912  20.270  0.00  0.00    +0.000 A 
ATOM      9  C   UNL     1       0.277  11.810  20.575  0.00  0.00    +0.000 A 
ATOM     10  C   UNL     1       1.129  11.006  19.855  0.00  0.00    +0.000 A 
ATOM     11  O   UNL     1       0.623  12.564  21.652  0.00  0.00    +0.000 OA
ATOM     12  C   UNL     1      -0.684  12.970  22.106  0.00  0.00    +0.000 C 
ATOM     13  O   UNL     1      -1.723  12.723  21.138  0.00  0.00    +0.000 OA
ENDBRANCH   3   5
BRANCH   2  14
ATOM     14  C   UNL     1       3.016   7.616  17.666  0.00  0.00    +0.000 C 
BRANCH  14  15
ATOM     15  C   UNL     1       3.644   6.334  18.199  0.00  0.00    +0.000 C 
ATOM     16  C   UNL     1       4.973   5.929  17.545  0.00  0.00    +0.000 A 
ATOM     17  C   UNL     1       6.147   6.652  17.433  0.00  0.00    +0.000 A 
ATOM     18  C   UNL     1       7.209   6.060  16.736  0.00  0.00    +0.000 A 
ATOM     19  C   UNL     1       7.087   4.766  16.184  0.00  0.00    +0.000 A 
ATOM     20  C   UNL     1       5.909   4.036  16.315  0.00  0.00    +0.000 A 
ATOM     21  C   UNL     1       4.867   4.628  16.990  0.00  0.00    +0.000 A 
ATOM     22  C   UNL     1       3.550   4.162  17.277  0.00  0.00    +0.000 A 
ATOM     23  C   UNL     1       2.666   3.128  17.148  0.00  0.00    +0.000 A 
ATOM     24  N   UNL     1       1.468   3.465  17.769  0.00  0.00    +0.000 NA
ATOM     25  C   UNL     1       1.622   4.688  18.238  0.00  0.00    +0.000 A 
ATOM     26  N   UNL     1       2.860   5.134  17.955  0.00  0.00    +0.000 N 
ENDBRANCH  14  15
ENDBRANCH   2  14
TORSDOF 3
ENDMDL
MODEL 4
REMARK VINA RESULT:      -8.2      2.532      3.852
REMARK  Name = 
REMARK  3 active torsions:
REMARK  status: ('A' for Active; 'I' for Inactive)
REMARK    1  A    between atoms: C_2  and  C_3
REMARK    2  A    between atoms: C_3  and  C_4
REMARK    3  A    between atoms: N_16  and  C_17
REMARK                            x       y       z     vdW  Elec       q    Type
REMARK                         _______ _______ _______ _____ _____    ______ ____
ROOT
ATOM      1  O   UNL     1       1.585   8.675  18.985  0.00  0.00    +0.000 OA
ATOM      2  C   UNL     1       1.865   7.973  19.954  0.00  0.00    +0.000 C 
ATOM      3  N   UNL     1       1.508   8.229  21.261  0.00  0.00    +0.000 N 
ATOM      4  H   UNL     1       2.032   7.769  21.993  0.00  0.00    +0.000 HD
ENDROOT
BRANCH   3   5
ATOM      5  C   UNL     1       0.714   9.305  21.690  0.00  0.00    +0.000 A 
ATOM      6  C   UNL     1      -0.241   9.180  22.717  0.00  0.00    +0.000 A 
ATOM      7  C   UNL     1      -0.962  10.297  23.157  0.00  0.00    +0.000 A 
ATOM      8  C   UNL     1      -0.703  11.504  22.548  0.00  0.00    +0.000 A 
ATOM      9  C   UNL     1       0.221  11.620  21.534  0.00  0.00    +0.000 A 
ATOM     10  C   UNL     1       0.953  10.545  21.089  0.00  0.00    +0.000 A 
ATOM     11  O   UNL     1       0.323  12.893  21.068  0.00  0.00    +0.000 OA
ATOM     12  C   UNL     1      -0.478  13.585  22.047  0.00  0.00    +0.000 C 
ATOM     13  O   UNL     1      -1.274  12.698  22.858  0.00  0.00    +0.000 OA
ENDBRANCH   3   5
BRANCH   2  14
ATOM     14  C   UNL     1       2.666   6.698  19.770  0.00  0.00    +0.000 C 
BRANCH  14  15
ATOM     15  C   UNL     1       2.479   5.998  18.430  0.00  0.00    +0.000 C 
ATOM     16  C   UNL     1       2.181   4.494  18.508  0.00  0.00    +0.000 A 
ATOM     17  C   UNL     1       1.164   3.838  19.179  0.00  0.00    +0.000 A 
ATOM     18  C   UNL     1       1.150   2.438  19.127  0.00  0.00    +0.000 A 
ATOM     19  C   UNL     1       2.129   1.725  18.402  0.00  0.00    +0.000 A 
ATOM     20  C   UNL     1       3.140   2.390  17.714  0.00  0.00    +0.000 A 
ATOM     21  C   UNL     1       3.156   3.764  17.779  0.00  0.00    +0.000 A 
ATOM     22  C   UNL     1       4.048   4.721  17.211  0.00  0.00    +0.000 A 
ATOM     23  C   UNL     1       5.157   4.908  16.434  0.00  0.00    +0.000 A 
ATOM     24  N   UNL     1       5.418   6.269  16.322  0.00  0.00    +0.000 NA
ATOM     25  C   UNL     1       4.498   6.885  17.040  0.00  0.00    +0.000 A 
ATOM     26  N   UNL     1       3.665   5.982  17.588  0.00  0.00    +0.000 N 
ENDBRANCH  14  15
ENDBRANCH   2  14
TORSDOF 3
ENDMDL
MODEL 5
REMARK VINA RESULT:      -8.2      1.809      2.144
REMARK  Name = 
REMARK  3 active torsions:
REMARK  status: ('A' for Active; 'I' for Inactive)
REMARK    1  A    between atoms: C_2  and  C_3
REMARK    2  A    between atoms: C_3  and  C_4
REMARK    3  A    between atoms: N_16  and  C_17
REMARK                            x       y       z     vdW  Elec       q    Type
REMARK                         _______ _______ _______ _____ _____    ______ ____
ROOT
ATOM      1  O   UNL     1       2.325   9.894  18.107  0.00  0.00    +0.000 OA
ATOM      2  C   UNL     1       2.264   8.694  18.362  0.00  0.00    +0.000 C 
ATOM      3  N   UNL     1       1.689   8.140  19.487  0.00  0.00    +0.000 N 
ATOM      4  H   UNL     1       1.956   7.198  19.739  0.00  0.00    +0.000 HD
ENDROOT
BRANCH   3   5
ATOM      5  C   UNL     1       1.028   8.856  20.497  0.00  0.00    +0.000 A 
ATOM      6  C   UNL     1       1.293   8.657  21.866  0.00  0.00    +0.000 A 
ATOM      7  C   UNL     1       0.658   9.443  22.835  0.00  0.00    +0.000 A 
ATOM      8  C   UNL     1      -0.228  10.402  22.398  0.00  0.00    +0.000 A 
ATOM      9  C   UNL     1      -0.496  10.585  21.060  0.00  0.00    +0.000 A 
ATOM     10  C   UNL     1       0.120   9.837  20.085  0.00  0.00    +0.000 A 
ATOM     11  O   UNL     1      -1.400  11.577  20.843  0.00  0.00    +0.000 OA
ATOM     12  C   UNL     1      -1.494  12.128  22.172  0.00  0.00    +0.000 C 
ATOM     13  O   UNL     1      -0.912  11.279  23.181  0.00  0.00    +0.000 OA
ENDBRANCH   3   5
BRANCH   2  14
ATOM     14  C   UNL     1       2.845   7.676  17.399  0.00  0.00    +0.000 C 
BRANCH  14  15
ATOM     15  C   UNL     1       3.497   6.462  18.048  0.00  0.00    +0.000 C 
ATOM     16  C   UNL     1       4.868   6.068  17.480  0.00  0.00    +0.000 A 
ATOM     17  C   UNL     1       6.018   6.828  17.365  0.00  0.00    +0.000 A 
ATOM     18  C   UNL     1       7.131   6.234  16.756  0.00  0.00    +0.000 A 
ATOM     19  C   UNL     1       7.084   4.901  16.294  0.00  0.00    +0.000 A 
ATOM     20  C   UNL     1       5.930   4.133  16.428  0.00  0.00    +0.000 A 
ATOM     21  C   UNL     1       4.837   4.727  17.016  0.00  0.00    +0.000 A 
ATOM     22  C   UNL     1       3.527   4.228  17.281  0.00  0.00    +0.000 A 
ATOM     23  C   UNL     1       2.690   3.152  17.191  0.00  0.00    +0.000 A 
ATOM     24  N   UNL     1       1.454   3.482  17.736  0.00  0.00    +0.000 NA
ATOM     25  C   UNL     1       1.541   4.740  18.122  0.00  0.00    +0.000 A 
ATOM     26  N   UNL     1       2.772   5.216  17.859  0.00  0.00    +0.000 N 
ENDBRANCH  14  15
ENDBRANCH   2  14
TORSDOF 3
ENDMDL
MODEL 6
REMARK VINA RESULT:      -8.1      1.888      2.235
REMARK  Name = 
REMARK  3 active torsions:
REMARK  status: ('A' for Active; 'I' for Inactive)
REMARK    1  A    between atoms: C_2  and  C_3
REMARK    2  A    between atoms: C_3  and  C_4
REMARK    3  A    between atoms: N_16  and  C_17
REMARK                            x       y       z     vdW  Elec       q    Type
REMARK                         _______ _______ _______ _____ _____    ______ ____
ROOT
ATOM      1  O   UNL     1       1.846   6.520  20.650  0.00  0.00    +0.000 OA
ATOM      2  C   UNL     1       2.042   7.318  19.737  0.00  0.00    +0.000 C 
ATOM      3  N   UNL     1       1.569   8.613  19.687  0.00  0.00    +0.000 N 
ATOM      4  H   UNL     1       1.530   9.067  18.784  0.00  0.00    +0.000 HD
ENDROOT
BRANCH   3   5
ATOM      5  C   UNL     1       0.835   9.249  20.700  0.00  0.00    +0.000 A 
ATOM      6  C   UNL     1       0.948   8.888  22.057  0.00  0.00    +0.000 A 
ATOM      7  C   UNL     1       0.246   9.596  23.041  0.00  0.00    +0.000 A 
ATOM      8  C   UNL     1      -0.551  10.640  22.629  0.00  0.00    +0.000 A 
ATOM      9  C   UNL     1      -0.671  10.980  21.301  0.00  0.00    +0.000 A 
ATOM     10  C   UNL     1       0.015  10.313  20.314  0.00  0.00    +0.000 A 
ATOM     11  O   UNL     1      -1.507  12.035  21.109  0.00  0.00    +0.000 OA
ATOM     12  C   UNL     1      -1.718  12.442  22.475  0.00  0.00    +0.000 C 
ATOM     13  O   UNL     1      -1.278  11.460  23.434  0.00  0.00    +0.000 OA
ENDBRANCH   3   5
BRANCH   2  14
ATOM     14  C   UNL     1       2.871   6.915  18.532  0.00  0.00    +0.000 C 
BRANCH  14  15
ATOM     15  C   UNL     1       3.648   5.613  18.681  0.00  0.00    +0.000 C 
ATOM     16  C   UNL     1       4.861   5.459  17.752  0.00  0.00    +0.000 A 
ATOM     17  C   UNL     1       5.959   6.288  17.604  0.00  0.00    +0.000 A 
ATOM     18  C   UNL     1       6.911   5.937  16.638  0.00  0.00    +0.000 A 
ATOM     19  C   UNL     1       6.762   4.770  15.858  0.00  0.00    +0.000 A 
ATOM     20  C   UNL     1       5.664   3.929  16.023  0.00  0.00    +0.000 A 
ATOM     21  C   UNL     1       4.726   4.286  16.965  0.00  0.00    +0.000 A 
ATOM     22  C   UNL     1       3.506   3.662  17.358  0.00  0.00    +0.000 A 
ATOM     23  C   UNL     1       2.668   2.600  17.162  0.00  0.00    +0.000 A 
ATOM     24  N   UNL     1       1.582   2.705  18.024  0.00  0.00    +0.000 NA
ATOM     25  C   UNL     1       1.753   3.823  18.705  0.00  0.00    +0.000 A 
ATOM     26  N   UNL     1       2.897   4.420  18.324  0.00  0.00    +0.000 N 
ENDBRANCH  14  15
ENDBRANCH   2  14
TORSDOF 3
ENDMDL
MODEL 7
REMARK VINA RESULT:      -8.1      1.836      3.558
REMARK  Name = 
REMARK  3 active torsions:
REMARK  status: ('A' for Active; 'I' for Inactive)
REMARK    1  A    between atoms: C_2  and  C_3
REMARK    2  A    between atoms: C_3  and  C_4
REMARK    3  A    between atoms: N_16  and  C_17
REMARK                            x       y       z     vdW  Elec       q    Type
REMARK                         _______ _______ _______ _____ _____    ______ ____
ROOT
ATOM      1  O   UNL     1       1.286   8.198  20.761  0.00  0.00    +0.000 OA
ATOM      2  C   UNL     1       1.867   8.015  19.694  0.00  0.00    +0.000 C 
ATOM      3  N   UNL     1       1.786   8.832  18.585  0.00  0.00    +0.000 N 
ATOM      4  H   UNL     1       2.049   8.442  17.691  0.00  0.00    +0.000 HD
ENDROOT
BRANCH   3   5
ATOM      5  C   UNL     1       1.071  10.038  18.517  0.00  0.00    +0.000 A 
ATOM      6  C   UNL     1      -0.331  10.081  18.381  0.00  0.00    +0.000 A 
ATOM      7  C   UNL     1      -1.007  11.307  18.385  0.00  0.00    +0.000 A 
ATOM      8  C   UNL     1      -0.254  12.451  18.522  0.00  0.00    +0.000 A 
ATOM      9  C   UNL     1       1.116  12.407  18.639  0.00  0.00    +0.000 A 
ATOM     10  C   UNL     1       1.808  11.219  18.650  0.00  0.00    +0.000 A 
ATOM     11  O   UNL     1       1.668  13.644  18.759  0.00  0.00    +0.000 OA
ATOM     12  C   UNL     1       0.475  14.437  18.919  0.00  0.00    +0.000 C 
ATOM     13  O   UNL     1      -0.731  13.723  18.581  0.00  0.00    +0.000 OA
ENDBRANCH   3   5
BRANCH   2  14
ATOM     14  C   UNL     1       2.772   6.812  19.511  0.00  0.00    +0.000 C 
BRANCH  14  15
ATOM     15  C   UNL     1       2.563   6.029  18.221  0.00  0.00    +0.000 C 
ATOM     16  C   UNL     1       2.179   4.553  18.401  0.00  0.00    +0.000 A 
ATOM     17  C   UNL     1       1.118   4.004  19.099  0.00  0.00    +0.000 A 
ATOM     18  C   UNL     1       1.025   2.607  19.146  0.00  0.00    +0.000 A 
ATOM     19  C   UNL     1       1.972   1.791  18.489  0.00  0.00    +0.000 A 
ATOM     20  C   UNL     1       3.028   2.347  17.773  0.00  0.00    +0.000 A 
ATOM     21  C   UNL     1       3.121   3.720  17.742  0.00  0.00    +0.000 A 
ATOM     22  C   UNL     1       4.073   4.583  17.122  0.00  0.00    +0.000 A 
ATOM     23  C   UNL     1       5.200   4.651  16.353  0.00  0.00    +0.000 A 
ATOM     24  N   UNL     1       5.539   5.984  16.150  0.00  0.00    +0.000 NA
ATOM     25  C   UNL     1       4.647   6.701  16.806  0.00  0.00    +0.000 A 
ATOM     26  N   UNL     1       3.756   5.887  17.403  0.00  0.00    +0.000 N 
ENDBRANCH  14  15
ENDBRANCH   2  14
TORSDOF 3
ENDMDL
MODEL 8
REMARK VINA RESULT:      -8.1      1.987      3.601
REMARK  Name = 
REMARK  3 active torsions:
REMARK  status: ('A' for Active; 'I' for Inactive)
REMARK    1  A    between atoms: C_2  and  C_3
REMARK    2  A    between atoms: C_3  and  C_4
REMARK    3  A    between atoms: N_16  and  C_17
REMARK                            x       y       z     vdW  Elec       q    Type
REMARK                         _______ _______ _______ _____ _____    ______ ____
ROOT
ATOM      1  O   UNL     1       2.570   8.814  17.193  0.00  0.00    +0.000 OA
ATOM      2  C   UNL     1       2.186   8.409  18.287  0.00  0.00    +0.000 C 
ATOM      3  N   UNL     1       1.366   9.099  19.156  0.00  0.00    +0.000 N 
ATOM      4  H   UNL     1       1.362   8.815  20.127  0.00  0.00    +0.000 HD
ENDROOT
BRANCH   3   5
ATOM      5  C   UNL     1       0.789  10.353  18.905  0.00  0.00    +0.000 A 
ATOM      6  C   UNL     1      -0.571  10.509  18.575  0.00  0.00    +0.000 A 
ATOM      7  C   UNL     1      -1.118  11.786  18.399  0.00  0.00    +0.000 A 
ATOM      8  C   UNL     1      -0.279  12.867  18.555  0.00  0.00    +0.000 A 
ATOM      9  C   UNL     1       1.054  12.710  18.862  0.00  0.00    +0.000 A 
ATOM     10  C   UNL     1       1.617  11.471  19.053  0.00  0.00    +0.000 A 
ATOM     11  O   UNL     1       1.705  13.899  18.968  0.00  0.00    +0.000 OA
ATOM     12  C   UNL     1       0.586  14.806  18.906  0.00  0.00    +0.000 C 
ATOM     13  O   UNL     1      -0.631  14.176  18.457  0.00  0.00    +0.000 OA
ENDBRANCH   3   5
BRANCH   2  14
ATOM     14  C   UNL     1       2.606   7.040  18.787  0.00  0.00    +0.000 C 
BRANCH  14  15
ATOM     15  C   UNL     1       3.040   6.056  17.709  0.00  0.00    +0.000 C 
ATOM     16  C   UNL     1       2.656   4.591  17.960  0.00  0.00    +0.000 A 
ATOM     17  C   UNL     1       1.407   4.042  18.190  0.00  0.00    +0.000 A 
ATOM     18  C   UNL     1       1.340   2.665  18.443  0.00  0.00    +0.000 A 
ATOM     19  C   UNL     1       2.504   1.867  18.445  0.00  0.00    +0.000 A 
ATOM     20  C   UNL     1       3.757   2.421  18.196  0.00  0.00    +0.000 A 
ATOM     21  C   UNL     1       3.817   3.775  17.961  0.00  0.00    +0.000 A 
ATOM     22  C   UNL     1       4.925   4.633  17.693  0.00  0.00    +0.000 A 
ATOM     23  C   UNL     1       6.278   4.707  17.518  0.00  0.00    +0.000 A 
ATOM     24  N   UNL     1       6.637   6.023  17.252  0.00  0.00    +0.000 NA
ATOM     25  C   UNL     1       5.524   6.729  17.292  0.00  0.00    +0.000 A 
ATOM     26  N   UNL     1       4.480   5.923  17.559  0.00  0.00    +0.000 N 
ENDBRANCH  14  15
ENDBRANCH   2  14
TORSDOF 3
ENDMDL
MODEL 9
REMARK VINA RESULT:      -8.0      1.440      3.000
REMARK  Name = 
REMARK  3 active torsions:
REMARK  status: ('A' for Active; 'I' for Inactive)
REMARK    1  A    between atoms: C_2  and  C_3
REMARK    2  A    between atoms: C_3  and  C_4
REMARK    3  A    between atoms: N_16  and  C_17
REMARK                            x       y       z     vdW  Elec       q    Type
REMARK                         _______ _______ _______ _____ _____    ______ ____
ROOT
ATOM      1  O   UNL     1       1.820   7.538  20.118  0.00  0.00    +0.000 OA
ATOM      2  C   UNL     1       2.389   7.721  19.045  0.00  0.00    +0.000 C 
ATOM      3  N   UNL     1       2.073   8.700  18.125  0.00  0.00    +0.000 N 
ATOM      4  H   UNL     1       2.389   8.574  17.173  0.00  0.00    +0.000 HD
ENDROOT
BRANCH   3   5
ATOM      5  C   UNL     1       1.087   9.684  18.295  0.00  0.00    +0.000 A 
ATOM      6  C   UNL     1       1.380  10.974  18.779  0.00  0.00    +0.000 A 
ATOM      7  C   UNL     1       0.374  11.945  18.867  0.00  0.00    +0.000 A 
ATOM      8  C   UNL     1      -0.895  11.587  18.470  0.00  0.00    +0.000 A 
ATOM      9  C   UNL     1      -1.181  10.321  18.013  0.00  0.00    +0.000 A 
ATOM     10  C   UNL     1      -0.213   9.351  17.903  0.00  0.00    +0.000 A 
ATOM     11  O   UNL     1      -2.490  10.174  17.677  0.00  0.00    +0.000 OA
ATOM     12  C   UNL     1      -2.931  11.543  17.774  0.00  0.00    +0.000 C 
ATOM     13  O   UNL     1      -1.988  12.396  18.452  0.00  0.00    +0.000 OA
ENDBRANCH   3   5
BRANCH   2  14
ATOM     14  C   UNL     1       3.549   6.836  18.632  0.00  0.00    +0.000 C 
BRANCH  14  15
ATOM     15  C   UNL     1       3.245   5.836  17.523  0.00  0.00    +0.000 C 
ATOM     16  C   UNL     1       2.698   4.479  17.990  0.00  0.00    +0.000 A 
ATOM     17  C   UNL     1       1.586   4.206  18.766  0.00  0.00    +0.000 A 
ATOM     18  C   UNL     1       1.336   2.866  19.092  0.00  0.00    +0.000 A 
ATOM     19  C   UNL     1       2.180   1.834  18.630  0.00  0.00    +0.000 A 
ATOM     20  C   UNL     1       3.288   2.112  17.835  0.00  0.00    +0.000 A 
ATOM     21  C   UNL     1       3.535   3.431  17.528  0.00  0.00    +0.000 A 
ATOM     22  C   UNL     1       4.575   4.038  16.764  0.00  0.00    +0.000 A 
ATOM     23  C   UNL     1       5.698   3.823  16.017  0.00  0.00    +0.000 A 
ATOM     24  N   UNL     1       6.185   5.040  15.554  0.00  0.00    +0.000 NA
ATOM     25  C   UNL     1       5.383   5.970  16.038  0.00  0.00    +0.000 A 
ATOM     26  N   UNL     1       4.410   5.399  16.771  0.00  0.00    +0.000 N 
ENDBRANCH  14  15
ENDBRANCH   2  14
TORSDOF 3
ENDMDL
