MODEL 1
REMARK VINA RESULT:      -8.4      0.000      0.000
REMARK  Name = 
REMARK  3 active torsions:
REMARK  status: ('A' for Active; 'I' for Inactive)
REMARK    1  A    between atoms: C_5  and  S_6
REMARK    2  A    between atoms: S_6  and  C_7
REMARK    3  A    between atoms: C_7  and  C_8
REMARK                            x       y       z     vdW  Elec       q    Type
REMARK                         _______ _______ _______ _____ _____    ______ ____
ROOT
ATOM      1  C   UNL     1       4.399   4.059  16.985  0.00  0.00    +0.000 C 
ATOM      2  O   UNL     1       4.217   2.837  17.024  0.00  0.00    +0.000 OA
ATOM      3  N   UNL     1       3.979   4.944  18.000  0.00  0.00    +0.000 N 
ATOM      4  C   UNL     1       4.071   6.409  17.893  0.00  0.00    +0.000 C 
ATOM      5  C   UNL     1       2.727   7.061  18.151  0.00  0.00    +0.000 C 
ATOM      6  C   UNL     1       2.268   6.756  19.564  0.00  0.00    +0.000 C 
ATOM      7  C   UNL     1       2.523   5.325  19.962  0.00  0.00    +0.000 A 
ATOM      8  C   UNL     1       1.890   4.853  21.128  0.00  0.00    +0.000 A 
ATOM      9  C   UNL     1       2.080   3.545  21.564  0.00  0.00    +0.000 A 
ATOM     10  C   UNL     1       2.924   2.704  20.852  0.00  0.00    +0.000 A 
ATOM     11  C   UNL     1       3.564   3.165  19.698  0.00  0.00    +0.000 A 
ATOM     12  C   UNL     1       3.363   4.468  19.217  0.00  0.00    +0.000 A 
ENDROOT
BRANCH   1  13
ATOM     13  C   UNL     1       4.989   4.672  15.713  0.00  0.00    +0.000 C 
BRANCH  13  14
ATOM     14  S   UNL     1       6.783   4.382  15.582  0.00  0.00    +0.000 S 
BRANCH  14  19
ATOM     15  N   UNL     1       8.278   5.520  20.206  0.00  0.00    +0.000 N 
ATOM     16  C   UNL     1       7.940   5.699  18.934  0.00  0.00    +0.000 A 
ATOM     17  N   UNL     1       7.890   6.872  18.308  0.00  0.00    +0.000 NA
ATOM     18  N   UNL     1       7.508   6.494  17.075  0.00  0.00    +0.000 N 
ATOM     19  C   UNL     1       7.302   5.154  17.026  0.00  0.00    +0.000 A 
ATOM     20  N   UNL     1       7.573   4.621  18.193  0.00  0.00    +0.000 NA
ATOM     21  H   UNL     1       8.259   6.333  20.803  0.00  0.00    +0.000 HD
ATOM     22  H   UNL     1       7.990   4.656  20.647  0.00  0.00    +0.000 HD
ATOM     23  H   UNL     1       7.409   7.180  16.336  0.00  0.00    +0.000 HD
ENDBRANCH  14  19
ENDBRANCH  13  14
ENDBRANCH   1  13
TORSDOF 3
ENDMDL
MODEL 2
REMARK VINA RESULT:      -7.9      0.474      1.009
REMARK  Name = 
REMARK  3 active torsions:
REMARK  status: ('A' for Active; 'I' for Inactive)
REMARK    1  A    between atoms: C_5  and  S_6
REMARK    2  A    between atoms: S_6  and  C_7
REMARK    3  A    between atoms: C_7  and  C_8
REMARK                            x       y       z     vdW  Elec       q    Type
REMARK                         _______ _______ _______ _____ _____    ______ ____
ROOT
ATOM      1  C   UNL     1       4.224   4.083  16.921  0.00  0.00    +0.000 C 
ATOM      2  O   UNL     1       3.925   2.884  16.887  0.00  0.00    +0.000 OA
ATOM      3  N   UNL     1       3.835   4.957  17.958  0.00  0.00    +0.000 N 
ATOM      4  C   UNL     1       4.072   6.409  17.932  0.00  0.00    +0.000 C 
ATOM      5  C   UNL     1       2.783   7.176  18.156  0.00  0.00    +0.000 C 
ATOM      6  C   UNL     1       2.221   6.851  19.526  0.00  0.00    +0.000 C 
ATOM      7  C   UNL     1       2.316   5.385  19.862  0.00  0.00    +0.000 A 
ATOM      8  C   UNL     1       1.578   4.923  20.968  0.00  0.00    +0.000 A 
ATOM      9  C   UNL     1       1.619   3.584  21.344  0.00  0.00    +0.000 A 
ATOM     10  C   UNL     1       2.417   2.699  20.633  0.00  0.00    +0.000 A 
ATOM     11  C   UNL     1       3.160   3.149  19.539  0.00  0.00    +0.000 A 
ATOM     12  C   UNL     1       3.110   4.486  19.116  0.00  0.00    +0.000 A 
ENDROOT
BRANCH   1  13
ATOM     13  C   UNL     1       4.938   4.695  15.713  0.00  0.00    +0.000 C 
BRANCH  13  14
ATOM     14  S   UNL     1       6.689   4.197  15.631  0.00  0.00    +0.000 S 
BRANCH  14  19
ATOM     15  N   UNL     1       8.420   7.447  19.001  0.00  0.00    +0.000 N 
ATOM     16  C   UNL     1       7.992   6.294  18.497  0.00  0.00    +0.000 A 
ATOM     17  N   UNL     1       7.920   5.143  19.159  0.00  0.00    +0.000 NA
ATOM     18  N   UNL     1       7.430   4.326  18.210  0.00  0.00    +0.000 N 
ATOM     19  C   UNL     1       7.277   4.990  17.037  0.00  0.00    +0.000 A 
ATOM     20  N   UNL     1       7.623   6.245  17.189  0.00  0.00    +0.000 NA
ATOM     21  H   UNL     1       8.952   7.401  19.856  0.00  0.00    +0.000 HD
ATOM     22  H   UNL     1       8.717   8.159  18.347  0.00  0.00    +0.000 HD
ATOM     23  H   UNL     1       7.228   3.356  18.422  0.00  0.00    +0.000 HD
ENDBRANCH  14  19
ENDBRANCH  13  14
ENDBRANCH   1  13
TORSDOF 3
ENDMDL
MODEL 3
REMARK VINA RESULT:      -7.9      1.221      2.802
REMARK  Name = 
REMARK  3 active torsions:
REMARK  status: ('A' for Active; 'I' for Inactive)
REMARK    1  A    between atoms: C_5  and  S_6
REMARK    2  A    between atoms: S_6  and  C_7
REMARK    3  A    between atoms: C_7  and  C_8
REMARK                            x       y       z     vdW  Elec       q    Type
REMARK                         _______ _______ _______ _____ _____    ______ ____
ROOT
ATOM      1  C   UNL     1       4.430   5.453  16.624  0.00  0.00    +0.000 C 
ATOM      2  O   UNL     1       4.774   6.535  16.137  0.00  0.00    +0.000 OA
ATOM      3  N   UNL     1       3.533   5.332  17.706  0.00  0.00    +0.000 N 
ATOM      4  C   UNL     1       3.230   4.057  18.376  0.00  0.00    +0.000 C 
ATOM      5  C   UNL     1       3.457   4.159  19.872  0.00  0.00    +0.000 C 
ATOM      6  C   UNL     1       2.523   5.196  20.467  0.00  0.00    +0.000 C 
ATOM      7  C   UNL     1       2.411   6.434  19.615  0.00  0.00    +0.000 A 
ATOM      8  C   UNL     1       1.809   7.567  20.194  0.00  0.00    +0.000 A 
ATOM      9  C   UNL     1       1.665   8.747  19.471  0.00  0.00    +0.000 A 
ATOM     10  C   UNL     1       2.099   8.798  18.154  0.00  0.00    +0.000 A 
ATOM     11  C   UNL     1       2.691   7.676  17.567  0.00  0.00    +0.000 A 
ATOM     12  C   UNL     1       2.880   6.485  18.284  0.00  0.00    +0.000 A 
ENDROOT
BRANCH   1  13
ATOM     13  C   UNL     1       5.109   4.175  16.125  0.00  0.00    +0.000 C 
BRANCH  13  14
ATOM     14  S   UNL     1       6.871   4.441  15.746  0.00  0.00    +0.000 S 
BRANCH  14  19
ATOM     15  N   UNL     1       8.305   5.341  20.442  0.00  0.00    +0.000 N 
ATOM     16  C   UNL     1       7.994   5.584  19.173  0.00  0.00    +0.000 A 
ATOM     17  N   UNL     1       7.981   6.783  18.600  0.00  0.00    +0.000 NA
ATOM     18  N   UNL     1       7.613   6.469  17.345  0.00  0.00    +0.000 N 
ATOM     19  C   UNL     1       7.380   5.137  17.232  0.00  0.00    +0.000 A 
ATOM     20  N   UNL     1       7.618   4.547  18.379  0.00  0.00    +0.000 NA
ATOM     21  H   UNL     1       8.292   6.127  21.073  0.00  0.00    +0.000 HD
ATOM     22  H   UNL     1       7.991   4.465  20.839  0.00  0.00    +0.000 HD
ATOM     23  H   UNL     1       7.542   7.189  16.635  0.00  0.00    +0.000 HD
ENDBRANCH  14  19
ENDBRANCH  13  14
ENDBRANCH   1  13
TORSDOF 3
ENDMDL
MODEL 4
REMARK VINA RESULT:      -7.7      2.464      3.568
REMARK  Name = 
REMARK  3 active torsions:
REMARK  status: ('A' for Active; 'I' for Inactive)
REMARK    1  A    between atoms: C_5  and  S_6
REMARK    2  A    between atoms: S_6  and  C_7
REMARK    3  A    between atoms: C_7  and  C_8
REMARK                            x       y       z     vdW  Elec       q    Type
REMARK                         _______ _______ _______ _____ _____    ______ ____
ROOT
ATOM      1  C   UNL     1       4.932   5.391  18.733  0.00  0.00    +0.000 C 
ATOM      2  O   UNL     1       5.294   5.597  19.897  0.00  0.00    +0.000 OA
ATOM      3  N   UNL     1       3.827   4.585  18.388  0.00  0.00    +0.000 N 
ATOM      4  C   UNL     1       3.480   4.227  17.004  0.00  0.00    +0.000 C 
ATOM      5  C   UNL     1       3.356   2.724  16.843  0.00  0.00    +0.000 C 
ATOM      6  C   UNL     1       2.236   2.201  17.723  0.00  0.00    +0.000 C 
ATOM      7  C   UNL     1       2.225   2.836  19.089  0.00  0.00    +0.000 A 
ATOM      8  C   UNL     1       1.423   2.235  20.077  0.00  0.00    +0.000 A 
ATOM      9  C   UNL     1       1.356   2.765  21.363  0.00  0.00    +0.000 A 
ATOM     10  C   UNL     1       2.069   3.916  21.664  0.00  0.00    +0.000 A 
ATOM     11  C   UNL     1       2.862   4.526  20.688  0.00  0.00    +0.000 A 
ATOM     12  C   UNL     1       2.976   3.993  19.395  0.00  0.00    +0.000 A 
ENDROOT
BRANCH   1  13
ATOM     13  C   UNL     1       5.802   5.922  17.591  0.00  0.00    +0.000 C 
BRANCH  13  14
ATOM     14  S   UNL     1       7.232   4.843  17.261  0.00  0.00    +0.000 S 
BRANCH  14  19
ATOM     15  N   UNL     1       6.016   3.318  12.667  0.00  0.00    +0.000 N 
ATOM     16  C   UNL     1       6.571   4.058  13.620  0.00  0.00    +0.000 A 
ATOM     17  N   UNL     1       7.364   5.106  13.417  0.00  0.00    +0.000 NA
ATOM     18  N   UNL     1       7.634   5.478  14.681  0.00  0.00    +0.000 N 
ATOM     19  C   UNL     1       7.046   4.633  15.566  0.00  0.00    +0.000 A 
ATOM     20  N   UNL     1       6.360   3.722  14.920  0.00  0.00    +0.000 NA
ATOM     21  H   UNL     1       6.409   3.396  11.741  0.00  0.00    +0.000 HD
ATOM     22  H   UNL     1       5.697   2.393  12.922  0.00  0.00    +0.000 HD
ATOM     23  H   UNL     1       8.207   6.293  14.866  0.00  0.00    +0.000 HD
ENDBRANCH  14  19
ENDBRANCH  13  14
ENDBRANCH   1  13
TORSDOF 3
ENDMDL
MODEL 5
REMARK VINA RESULT:      -7.6      1.044      2.372
REMARK  Name = 
REMARK  3 active torsions:
REMARK  status: ('A' for Active; 'I' for Inactive)
REMARK    1  A    between atoms: C_5  and  S_6
REMARK    2  A    between atoms: S_6  and  C_7
REMARK    3  A    between atoms: C_7  and  C_8
REMARK                            x       y       z     vdW  Elec       q    Type
REMARK                         _______ _______ _______ _____ _____    ______ ____
ROOT
ATOM      1  C   UNL     1       4.541   4.862  16.735  0.00  0.00    +0.000 C 
ATOM      2  O   UNL     1       4.676   6.085  16.615  0.00  0.00    +0.000 OA
ATOM      3  N   UNL     1       3.795   4.255  17.767  0.00  0.00    +0.000 N 
ATOM      4  C   UNL     1       3.748   2.801  17.991  0.00  0.00    +0.000 C 
ATOM      5  C   UNL     1       4.124   2.456  19.419  0.00  0.00    +0.000 C 
ATOM      6  C   UNL     1       3.128   3.078  20.380  0.00  0.00    +0.000 C 
ATOM      7  C   UNL     1       2.752   4.487  19.997  0.00  0.00    +0.000 A 
ATOM      8  C   UNL     1       2.067   5.258  20.955  0.00  0.00    +0.000 A 
ATOM      9  C   UNL     1       1.682   6.566  20.675  0.00  0.00    +0.000 A 
ATOM     10  C   UNL     1       1.955   7.106  19.427  0.00  0.00    +0.000 A 
ATOM     11  C   UNL     1       2.627   6.345  18.465  0.00  0.00    +0.000 A 
ATOM     12  C   UNL     1       3.058   5.037  18.733  0.00  0.00    +0.000 A 
ENDROOT
BRANCH   1  13
ATOM     13  C   UNL     1       5.330   3.943  15.799  0.00  0.00    +0.000 C 
BRANCH  13  14
ATOM     14  S   UNL     1       6.970   4.626  15.393  0.00  0.00    +0.000 S 
BRANCH  14  19
ATOM     15  N   UNL     1       8.188   5.386  20.174  0.00  0.00    +0.000 N 
ATOM     16  C   UNL     1       7.915   5.669  18.904  0.00  0.00    +0.000 A 
ATOM     17  N   UNL     1       7.876   6.890  18.379  0.00  0.00    +0.000 NA
ATOM     18  N   UNL     1       7.569   6.614  17.099  0.00  0.00    +0.000 N 
ATOM     19  C   UNL     1       7.394   5.279  16.925  0.00  0.00    +0.000 A 
ATOM     20  N   UNL     1       7.612   4.652  18.055  0.00  0.00    +0.000 NA
ATOM     21  H   UNL     1       8.120   6.144  20.835  0.00  0.00    +0.000 HD
ATOM     22  H   UNL     1       7.894   4.483  20.523  0.00  0.00    +0.000 HD
ATOM     23  H   UNL     1       7.496   7.359  16.416  0.00  0.00    +0.000 HD
ENDBRANCH  14  19
ENDBRANCH  13  14
ENDBRANCH   1  13
TORSDOF 3
ENDMDL
MODEL 6
REMARK VINA RESULT:      -7.4      2.496      4.207
REMARK  Name = 
REMARK  3 active torsions:
REMARK  status: ('A' for Active; 'I' for Inactive)
REMARK    1  A    between atoms: C_5  and  S_6
REMARK    2  A    between atoms: S_6  and  C_7
REMARK    3  A    between atoms: C_7  and  C_8
REMARK                            x       y       z     vdW  Elec       q    Type
REMARK                         _______ _______ _______ _____ _____    ______ ____
ROOT
ATOM      1  C   UNL     1       4.521   5.921  17.887  0.00  0.00    +0.000 C 
ATOM      2  O   UNL     1       5.075   6.892  17.359  0.00  0.00    +0.000 OA
ATOM      3  N   UNL     1       3.319   6.010  18.620  0.00  0.00    +0.000 N 
ATOM      4  C   UNL     1       2.733   4.884  19.364  0.00  0.00    +0.000 C 
ATOM      5  C   UNL     1       2.475   5.260  20.810  0.00  0.00    +0.000 C 
ATOM      6  C   UNL     1       1.472   6.396  20.877  0.00  0.00    +0.000 C 
ATOM      7  C   UNL     1       1.722   7.455  19.835  0.00  0.00    +0.000 A 
ATOM      8  C   UNL     1       1.043   8.680  19.979  0.00  0.00    +0.000 A 
ATOM      9  C   UNL     1       1.217   9.706  19.055  0.00  0.00    +0.000 A 
ATOM     10  C   UNL     1       2.053   9.508  17.965  0.00  0.00    +0.000 A 
ATOM     11  C   UNL     1       2.725   8.293  17.808  0.00  0.00    +0.000 A 
ATOM     12  C   UNL     1       2.594   7.255  18.743  0.00  0.00    +0.000 A 
ENDROOT
BRANCH   1  13
ATOM     13  C   UNL     1       5.237   4.569  17.868  0.00  0.00    +0.000 C 
BRANCH  13  14
ATOM     14  S   UNL     1       7.006   4.737  17.464  0.00  0.00    +0.000 S 
BRANCH  14  19
ATOM     15  N   UNL     1       6.088   3.359  12.755  0.00  0.00    +0.000 N 
ATOM     16  C   UNL     1       6.573   4.073  13.765  0.00  0.00    +0.000 A 
ATOM     17  N   UNL     1       7.359   5.139  13.646  0.00  0.00    +0.000 NA
ATOM     18  N   UNL     1       7.547   5.470  14.936  0.00  0.00    +0.000 N 
ATOM     19  C   UNL     1       6.924   4.585  15.754  0.00  0.00    +0.000 A 
ATOM     20  N   UNL     1       6.292   3.687  15.037  0.00  0.00    +0.000 NA
ATOM     21  H   UNL     1       6.533   3.476  11.858  0.00  0.00    +0.000 HD
ATOM     22  H   UNL     1       5.771   2.420  12.959  0.00  0.00    +0.000 HD
ATOM     23  H   UNL     1       8.095   6.286  15.183  0.00  0.00    +0.000 HD
ENDBRANCH  14  19
ENDBRANCH  13  14
ENDBRANCH   1  13
TORSDOF 3
ENDMDL
MODEL 7
REMARK VINA RESULT:      -7.3      2.537      3.280
REMARK  Name = 
REMARK  3 active torsions:
REMARK  status: ('A' for Active; 'I' for Inactive)
REMARK    1  A    between atoms: C_5  and  S_6
REMARK    2  A    between atoms: S_6  and  C_7
REMARK    3  A    between atoms: C_7  and  C_8
REMARK                            x       y       z     vdW  Elec       q    Type
REMARK                         _______ _______ _______ _____ _____    ______ ____
ROOT
ATOM      1  C   UNL     1       4.270   4.847  17.098  0.00  0.00    +0.000 C 
ATOM      2  O   UNL     1       4.056   3.751  16.567  0.00  0.00    +0.000 OA
ATOM      3  N   UNL     1       3.697   5.247  18.323  0.00  0.00    +0.000 N 
ATOM      4  C   UNL     1       3.839   6.599  18.886  0.00  0.00    +0.000 C 
ATOM      5  C   UNL     1       2.485   7.206  19.200  0.00  0.00    +0.000 C 
ATOM      6  C   UNL     1       1.776   6.370  20.248  0.00  0.00    +0.000 C 
ATOM      7  C   UNL     1       1.924   4.889  20.009  0.00  0.00    +0.000 A 
ATOM      8  C   UNL     1       1.083   4.027  20.739  0.00  0.00    +0.000 A 
ATOM      9  C   UNL     1       1.163   2.647  20.578  0.00  0.00    +0.000 A 
ATOM     10  C   UNL     1       2.101   2.115  19.705  0.00  0.00    +0.000 A 
ATOM     11  C   UNL     1       2.946   2.962  18.982  0.00  0.00    +0.000 A 
ATOM     12  C   UNL     1       2.863   4.358  19.099  0.00  0.00    +0.000 A 
ENDROOT
BRANCH   1  13
ATOM     13  C   UNL     1       5.090   5.886  16.329  0.00  0.00    +0.000 C 
BRANCH  13  14
ATOM     14  S   UNL     1       6.848   5.419  16.213  0.00  0.00    +0.000 S 
BRANCH  14  19
ATOM     15  N   UNL     1       6.205   2.773  12.031  0.00  0.00    +0.000 N 
ATOM     16  C   UNL     1       6.639   3.742  12.829  0.00  0.00    +0.000 A 
ATOM     17  N   UNL     1       7.451   4.731  12.469  0.00  0.00    +0.000 NA
ATOM     18  N   UNL     1       7.563   5.412  13.624  0.00  0.00    +0.000 N 
ATOM     19  C   UNL     1       6.872   4.793  14.614  0.00  0.00    +0.000 A 
ATOM     20  N   UNL     1       6.270   3.730  14.137  0.00  0.00    +0.000 NA
ATOM     21  H   UNL     1       6.709   2.632  11.168  0.00  0.00    +0.000 HD
ATOM     22  H   UNL     1       5.857   1.930  12.468  0.00  0.00    +0.000 HD
ATOM     23  H   UNL     1       8.110   6.264  13.667  0.00  0.00    +0.000 HD
ENDBRANCH  14  19
ENDBRANCH  13  14
ENDBRANCH   1  13
TORSDOF 3
ENDMDL
MODEL 8
REMARK VINA RESULT:      -7.3      3.000      4.373
REMARK  Name = 
REMARK  3 active torsions:
REMARK  status: ('A' for Active; 'I' for Inactive)
REMARK    1  A    between atoms: C_5  and  S_6
REMARK    2  A    between atoms: S_6  and  C_7
REMARK    3  A    between atoms: C_7  and  C_8
REMARK                            x       y       z     vdW  Elec       q    Type
REMARK                         _______ _______ _______ _____ _____    ______ ____
ROOT
ATOM      1  C   UNL     1       2.413   6.378  19.628  0.00  0.00    +0.000 C 
ATOM      2  O   UNL     1       1.988   5.769  20.617  0.00  0.00    +0.000 OA
ATOM      3  N   UNL     1       2.132   7.735  19.365  0.00  0.00    +0.000 N 
ATOM      4  C   UNL     1       2.521   8.422  18.123  0.00  0.00    +0.000 C 
ATOM      5  C   UNL     1       1.324   9.081  17.466  0.00  0.00    +0.000 C 
ATOM      6  C   UNL     1       0.747  10.140  18.387  0.00  0.00    +0.000 C 
ATOM      7  C   UNL     1       0.691   9.692  19.825  0.00  0.00    +0.000 A 
ATOM      8  C   UNL     1      -0.077  10.465  20.715  0.00  0.00    +0.000 A 
ATOM      9  C   UNL     1      -0.174  10.119  22.060  0.00  0.00    +0.000 A 
ATOM     10  C   UNL     1       0.516   9.011  22.532  0.00  0.00    +0.000 A 
ATOM     11  C   UNL     1       1.289   8.242  21.657  0.00  0.00    +0.000 A 
ATOM     12  C   UNL     1       1.376   8.548  20.290  0.00  0.00    +0.000 A 
ENDROOT
BRANCH   1  13
ATOM     13  C   UNL     1       3.173   5.593  18.555  0.00  0.00    +0.000 C 
BRANCH  13  14
ATOM     14  S   UNL     1       4.405   4.463  19.279  0.00  0.00    +0.000 S 
BRANCH  14  19
ATOM     15  N   UNL     1       7.246   5.530  15.316  0.00  0.00    +0.000 N 
ATOM     16  C   UNL     1       6.924   5.088  16.527  0.00  0.00    +0.000 A 
ATOM     17  N   UNL     1       7.760   4.506  17.382  0.00  0.00    +0.000 NA
ATOM     18  N   UNL     1       6.945   4.268  18.425  0.00  0.00    +0.000 N 
ATOM     19  C   UNL     1       5.677   4.663  18.142  0.00  0.00    +0.000 A 
ATOM     20  N   UNL     1       5.634   5.192  16.944  0.00  0.00    +0.000 NA
ATOM     21  H   UNL     1       8.108   5.188  14.920  0.00  0.00    +0.000 HD
ATOM     22  H   UNL     1       6.493   5.667  14.655  0.00  0.00    +0.000 HD
ATOM     23  H   UNL     1       7.304   3.847  19.273  0.00  0.00    +0.000 HD
ENDBRANCH  14  19
ENDBRANCH  13  14
ENDBRANCH   1  13
TORSDOF 3
ENDMDL
MODEL 9
REMARK VINA RESULT:      -7.2      2.537      4.259
REMARK  Name = 
REMARK  3 active torsions:
REMARK  status: ('A' for Active; 'I' for Inactive)
REMARK    1  A    between atoms: C_5  and  S_6
REMARK    2  A    between atoms: S_6  and  C_7
REMARK    3  A    between atoms: C_7  and  C_8
REMARK                            x       y       z     vdW  Elec       q    Type
REMARK                         _______ _______ _______ _____ _____    ______ ____
ROOT
ATOM      1  C   UNL     1       3.994   5.935  17.423  0.00  0.00    +0.000 C 
ATOM      2  O   UNL     1       4.538   6.898  16.870  0.00  0.00    +0.000 OA
ATOM      3  N   UNL     1       2.935   6.060  18.346  0.00  0.00    +0.000 N 
ATOM      4  C   UNL     1       2.380   4.930  19.108  0.00  0.00    +0.000 C 
ATOM      5  C   UNL     1       2.386   5.219  20.596  0.00  0.00    +0.000 C 
ATOM      6  C   UNL     1       1.506   6.418  20.893  0.00  0.00    +0.000 C 
ATOM      7  C   UNL     1       1.678   7.529  19.889  0.00  0.00    +0.000 A 
ATOM      8  C   UNL     1       1.137   8.787  20.214  0.00  0.00    +0.000 A 
ATOM      9  C   UNL     1       1.250   9.861  19.337  0.00  0.00    +0.000 A 
ATOM     10  C   UNL     1       1.883   9.681  18.115  0.00  0.00    +0.000 A 
ATOM     11  C   UNL     1       2.416   8.433  17.778  0.00  0.00    +0.000 A 
ATOM     12  C   UNL     1       2.347   7.343  18.659  0.00  0.00    +0.000 A 
ENDROOT
BRANCH   1  13
ATOM     13  C   UNL     1       4.581   4.538  17.207  0.00  0.00    +0.000 C 
BRANCH  13  14
ATOM     14  S   UNL     1       6.401   4.544  17.269  0.00  0.00    +0.000 S 
BRANCH  14  19
ATOM     15  N   UNL     1       8.069   5.601  12.685  0.00  0.00    +0.000 N 
ATOM     16  C   UNL     1       7.408   4.966  13.647  0.00  0.00    +0.000 A 
ATOM     17  N   UNL     1       6.605   3.921  13.470  0.00  0.00    +0.000 NA
ATOM     18  N   UNL     1       6.213   3.676  14.733  0.00  0.00    +0.000 N 
ATOM     19  C   UNL     1       6.744   4.588  15.586  0.00  0.00    +0.000 A 
ATOM     20  N   UNL     1       7.512   5.419  14.924  0.00  0.00    +0.000 NA
ATOM     21  H   UNL     1       7.758   5.444  11.738  0.00  0.00    +0.000 HD
ATOM     22  H   UNL     1       8.391   6.539  12.882  0.00  0.00    +0.000 HD
ATOM     23  H   UNL     1       5.601   2.895  14.939  0.00  0.00    +0.000 HD
ENDBRANCH  14  19
ENDBRANCH  13  14
ENDBRANCH   1  13
TORSDOF 3
ENDMDL
