MODEL 1
REMARK VINA RESULT:      -7.1      0.000      0.000
REMARK  Name = 
REMARK  4 active torsions:
REMARK  status: ('A' for Active; 'I' for Inactive)
REMARK    1  A    between atoms: C_2  and  O_3
REMARK    2  A    between atoms: C_2  and  C_13
REMARK    3  A    between atoms: O_3  and  C_4
REMARK    4  A    between atoms: C_7  and  N_8
REMARK                            x       y       z     vdW  Elec       q    Type
REMARK                         _______ _______ _______ _____ _____    ______ ____
ROOT
ATOM      1  O   UNL     1       5.190   3.972  19.528  0.00  0.00    +0.000 OA
ENDROOT
BRANCH   1   2
ATOM      2  C   UNL     1       5.568   4.227  18.188  0.00  0.00    +0.000 A 
ATOM      3  C   UNL     1       6.877   4.675  17.994  0.00  0.00    +0.000 A 
ATOM      4  C   UNL     1       7.365   4.870  16.696  0.00  0.00    +0.000 A 
ATOM      5  C   UNL     1       6.532   4.603  15.600  0.00  0.00    +0.000 A 
ATOM      6  C   UNL     1       5.218   4.157  15.796  0.00  0.00    +0.000 A 
ATOM      7  C   UNL     1       4.741   3.959  17.096  0.00  0.00    +0.000 A 
BRANCH   5   8
ATOM      8  N   UNL     1       7.046   4.768  14.234  0.00  0.00    +0.000 N 
ATOM      9  O   UNL     1       6.541   4.076  13.338  0.00  0.00    +0.000 OA
ATOM     10  O   UNL     1       7.951   5.597  14.054  0.00  0.00    +0.000 OA
ENDBRANCH   5   8
ENDBRANCH   1   2
BRANCH   1  12
ATOM     11  O   UNL     1       5.146   1.741  20.222  0.00  0.00    +0.000 OA
ATOM     12  C   UNL     1       4.585   2.775  19.888  0.00  0.00    +0.000 C 
BRANCH  12  13
ATOM     13  C   UNL     1       3.106   2.897  19.826  0.00  0.00    +0.000 A 
ATOM     14  C   UNL     1       2.495   3.879  20.597  0.00  0.00    +0.000 A 
ATOM     15  N   UNL     1       1.152   4.083  20.596  0.00  0.00    +0.000 NA
ATOM     16  C   UNL     1       0.444   3.261  19.790  0.00  0.00    +0.000 A 
ATOM     17  C   UNL     1       1.048   2.277  19.022  0.00  0.00    +0.000 A 
ATOM     18  N   UNL     1       2.389   2.069  19.016  0.00  0.00    +0.000 NA
ENDBRANCH  12  13
ENDBRANCH   1  12
TORSDOF 4
ENDMDL
MODEL 2
REMARK VINA RESULT:      -7.1      1.725      2.321
REMARK  Name = 
REMARK  4 active torsions:
REMARK  status: ('A' for Active; 'I' for Inactive)
REMARK    1  A    between atoms: C_2  and  O_3
REMARK    2  A    between atoms: C_2  and  C_13
REMARK    3  A    between atoms: O_3  and  C_4
REMARK    4  A    between atoms: C_7  and  N_8
REMARK                            x       y       z     vdW  Elec       q    Type
REMARK                         _______ _______ _______ _____ _____    ______ ____
ROOT
ATOM      1  O   UNL     1       4.606   5.740  19.395  0.00  0.00    +0.000 OA
ENDROOT
BRANCH   1   2
ATOM      2  C   UNL     1       5.216   5.634  18.122  0.00  0.00    +0.000 A 
ATOM      3  C   UNL     1       6.253   4.703  18.013  0.00  0.00    +0.000 A 
ATOM      4  C   UNL     1       6.855   4.469  16.771  0.00  0.00    +0.000 A 
ATOM      5  C   UNL     1       6.403   5.169  15.644  0.00  0.00    +0.000 A 
ATOM      6  C   UNL     1       5.366   6.105  15.755  0.00  0.00    +0.000 A 
ATOM      7  C   UNL     1       4.765   6.328  16.998  0.00  0.00    +0.000 A 
BRANCH   5   8
ATOM      8  N   UNL     1       7.003   4.903  14.329  0.00  0.00    +0.000 N 
ATOM      9  O   UNL     1       7.946   5.622  13.968  0.00  0.00    +0.000 OA
ATOM     10  O   UNL     1       6.537   3.969  13.660  0.00  0.00    +0.000 OA
ENDBRANCH   5   8
ENDBRANCH   1   2
BRANCH   1  12
ATOM     11  O   UNL     1       2.613   6.897  19.775  0.00  0.00    +0.000 OA
ATOM     12  C   UNL     1       3.230   5.872  19.524  0.00  0.00    +0.000 C 
BRANCH  12  13
ATOM     13  C   UNL     1       2.557   4.566  19.309  0.00  0.00    +0.000 A 
ATOM     14  C   UNL     1       1.761   4.417  18.179  0.00  0.00    +0.000 A 
ATOM     15  N   UNL     1       1.118   3.258  17.882  0.00  0.00    +0.000 NA
ATOM     16  C   UNL     1       1.303   2.253  18.767  0.00  0.00    +0.000 A 
ATOM     17  C   UNL     1       2.092   2.398  19.897  0.00  0.00    +0.000 A 
ATOM     18  N   UNL     1       2.740   3.552  20.198  0.00  0.00    +0.000 NA
ENDBRANCH  12  13
ENDBRANCH   1  12
TORSDOF 4
ENDMDL
MODEL 3
REMARK VINA RESULT:      -7.0      0.165      1.368
REMARK  Name = 
REMARK  4 active torsions:
REMARK  status: ('A' for Active; 'I' for Inactive)
REMARK    1  A    between atoms: C_2  and  O_3
REMARK    2  A    between atoms: C_2  and  C_13
REMARK    3  A    between atoms: O_3  and  C_4
REMARK    4  A    between atoms: C_7  and  N_8
REMARK                            x       y       z     vdW  Elec       q    Type
REMARK                         _______ _______ _______ _____ _____    ______ ____
ROOT
ATOM      1  O   UNL     1       5.052   4.142  19.398  0.00  0.00    +0.000 OA
ENDROOT
BRANCH   1   2
ATOM      2  C   UNL     1       5.637   4.241  18.113  0.00  0.00    +0.000 A 
ATOM      3  C   UNL     1       4.778   4.032  17.030  0.00  0.00    +0.000 A 
ATOM      4  C   UNL     1       5.249   4.195  15.722  0.00  0.00    +0.000 A 
ATOM      5  C   UNL     1       6.582   4.576  15.513  0.00  0.00    +0.000 A 
ATOM      6  C   UNL     1       7.443   4.781  16.599  0.00  0.00    +0.000 A 
ATOM      7  C   UNL     1       6.963   4.623  17.903  0.00  0.00    +0.000 A 
BRANCH   5   8
ATOM      8  N   UNL     1       7.076   4.786  14.145  0.00  0.00    +0.000 N 
ATOM      9  O   UNL     1       7.980   5.616  13.978  0.00  0.00    +0.000 OA
ATOM     10  O   UNL     1       6.565   4.113  13.237  0.00  0.00    +0.000 OA
ENDBRANCH   5   8
ENDBRANCH   1   2
BRANCH   1  12
ATOM     11  O   UNL     1       5.111   1.983  20.289  0.00  0.00    +0.000 OA
ATOM     12  C   UNL     1       4.504   2.949  19.849  0.00  0.00    +0.000 C 
BRANCH  12  13
ATOM     13  C   UNL     1       3.024   2.978  19.736  0.00  0.00    +0.000 A 
ATOM     14  C   UNL     1       2.325   3.909  20.496  0.00  0.00    +0.000 A 
ATOM     15  N   UNL     1       0.973   4.028  20.449  0.00  0.00    +0.000 NA
ATOM     16  C   UNL     1       0.347   3.173  19.610  0.00  0.00    +0.000 A 
ATOM     17  C   UNL     1       1.039   2.240  18.853  0.00  0.00    +0.000 A 
ATOM     18  N   UNL     1       2.390   2.117  18.892  0.00  0.00    +0.000 NA
ENDBRANCH  12  13
ENDBRANCH   1  12
TORSDOF 4
ENDMDL
MODEL 4
REMARK VINA RESULT:      -7.0      0.693      1.410
REMARK  Name = 
REMARK  4 active torsions:
REMARK  status: ('A' for Active; 'I' for Inactive)
REMARK    1  A    between atoms: C_2  and  O_3
REMARK    2  A    between atoms: C_2  and  C_13
REMARK    3  A    between atoms: O_3  and  C_4
REMARK    4  A    between atoms: C_7  and  N_8
REMARK                            x       y       z     vdW  Elec       q    Type
REMARK                         _______ _______ _______ _____ _____    ______ ____
ROOT
ATOM      1  O   UNL     1       5.034   4.435  19.324  0.00  0.00    +0.000 OA
ENDROOT
BRANCH   1   2
ATOM      2  C   UNL     1       5.484   4.616  17.994  0.00  0.00    +0.000 A 
ATOM      3  C   UNL     1       6.868   4.573  17.803  0.00  0.00    +0.000 A 
ATOM      4  C   UNL     1       7.399   4.655  16.511  0.00  0.00    +0.000 A 
ATOM      5  C   UNL     1       6.531   4.773  15.416  0.00  0.00    +0.000 A 
ATOM      6  C   UNL     1       5.144   4.819  15.609  0.00  0.00    +0.000 A 
ATOM      7  C   UNL     1       4.621   4.730  16.903  0.00  0.00    +0.000 A 
BRANCH   5   8
ATOM      8  N   UNL     1       7.076   4.822  14.053  0.00  0.00    +0.000 N 
ATOM      9  O   UNL     1       7.994   5.623  13.826  0.00  0.00    +0.000 OA
ATOM     10  O   UNL     1       6.593   4.052  13.209  0.00  0.00    +0.000 OA
ENDBRANCH   5   8
ENDBRANCH   1   2
BRANCH   1  12
ATOM     11  O   UNL     1       5.182   2.261  20.166  0.00  0.00    +0.000 OA
ATOM     12  C   UNL     1       4.535   3.213  19.754  0.00  0.00    +0.000 C 
BRANCH  12  13
ATOM     13  C   UNL     1       3.053   3.189  19.657  0.00  0.00    +0.000 A 
ATOM     14  C   UNL     1       2.466   2.265  18.801  0.00  0.00    +0.000 A 
ATOM     15  N   UNL     1       1.120   2.152  18.655  0.00  0.00    +0.000 NA
ATOM     16  C   UNL     1       0.385   3.005  19.402  0.00  0.00    +0.000 A 
ATOM     17  C   UNL     1       0.966   3.931  20.255  0.00  0.00    +0.000 A 
ATOM     18  N   UNL     1       2.309   4.048  20.407  0.00  0.00    +0.000 NA
ENDBRANCH  12  13
ENDBRANCH   1  12
TORSDOF 4
ENDMDL
MODEL 5
REMARK VINA RESULT:      -6.9      2.445      6.358
REMARK  Name = 
REMARK  4 active torsions:
REMARK  status: ('A' for Active; 'I' for Inactive)
REMARK    1  A    between atoms: C_2  and  O_3
REMARK    2  A    between atoms: C_2  and  C_13
REMARK    3  A    between atoms: O_3  and  C_4
REMARK    4  A    between atoms: C_7  and  N_8
REMARK                            x       y       z     vdW  Elec       q    Type
REMARK                         _______ _______ _______ _____ _____    ______ ____
ROOT
ATOM      1  O   UNL     1       4.377   4.729  16.274  0.00  0.00    +0.000 OA
ENDROOT
BRANCH   1   2
ATOM      2  C   UNL     1       3.724   4.301  17.454  0.00  0.00    +0.000 A 
ATOM      3  C   UNL     1       3.847   2.944  17.766  0.00  0.00    +0.000 A 
ATOM      4  C   UNL     1       3.307   2.449  18.959  0.00  0.00    +0.000 A 
ATOM      5  C   UNL     1       2.653   3.326  19.835  0.00  0.00    +0.000 A 
ATOM      6  C   UNL     1       2.527   4.685  19.519  0.00  0.00    +0.000 A 
ATOM      7  C   UNL     1       3.075   5.173  18.329  0.00  0.00    +0.000 A 
BRANCH   5   8
ATOM      8  N   UNL     1       2.116   2.823  21.107  0.00  0.00    +0.000 N 
ATOM      9  O   UNL     1       0.885   2.785  21.240  0.00  0.00    +0.000 OA
ATOM     10  O   UNL     1       2.927   2.457  21.971  0.00  0.00    +0.000 OA
ENDBRANCH   5   8
ENDBRANCH   1   2
BRANCH   1  12
ATOM     11  O   UNL     1       6.220   3.692  15.280  0.00  0.00    +0.000 OA
ATOM     12  C   UNL     1       5.729   4.484  16.071  0.00  0.00    +0.000 C 
BRANCH  12  13
ATOM     13  C   UNL     1       6.555   5.338  16.963  0.00  0.00    +0.000 A 
ATOM     14  C   UNL     1       7.207   4.732  18.031  0.00  0.00    +0.000 A 
ATOM     15  N   UNL     1       7.999   5.421  18.893  0.00  0.00    +0.000 NA
ATOM     16  C   UNL     1       8.111   6.744  18.642  0.00  0.00    +0.000 A 
ATOM     17  C   UNL     1       7.459   7.354  17.581  0.00  0.00    +0.000 A 
ATOM     18  N   UNL     1       6.668   6.671  16.714  0.00  0.00    +0.000 NA
ENDBRANCH  12  13
ENDBRANCH   1  12
TORSDOF 4
ENDMDL
MODEL 6
REMARK VINA RESULT:      -6.9      1.822      2.594
REMARK  Name = 
REMARK  4 active torsions:
REMARK  status: ('A' for Active; 'I' for Inactive)
REMARK    1  A    between atoms: C_2  and  O_3
REMARK    2  A    between atoms: C_2  and  C_13
REMARK    3  A    between atoms: O_3  and  C_4
REMARK    4  A    between atoms: C_7  and  N_8
REMARK                            x       y       z     vdW  Elec       q    Type
REMARK                         _______ _______ _______ _____ _____    ______ ____
ROOT
ATOM      1  O   UNL     1       4.277   5.936  19.273  0.00  0.00    +0.000 OA
ENDROOT
BRANCH   1   2
ATOM      2  C   UNL     1       4.897   5.571  18.054  0.00  0.00    +0.000 A 
ATOM      3  C   UNL     1       4.690   6.437  16.976  0.00  0.00    +0.000 A 
ATOM      4  C   UNL     1       5.335   6.201  15.756  0.00  0.00    +0.000 A 
ATOM      5  C   UNL     1       6.192   5.099  15.632  0.00  0.00    +0.000 A 
ATOM      6  C   UNL     1       6.396   4.230  16.712  0.00  0.00    +0.000 A 
ATOM      7  C   UNL     1       5.753   4.476  17.929  0.00  0.00    +0.000 A 
BRANCH   5   8
ATOM      8  N   UNL     1       6.903   4.865  14.367  0.00  0.00    +0.000 N 
ATOM      9  O   UNL     1       7.870   5.592  14.105  0.00  0.00    +0.000 OA
ATOM     10  O   UNL     1       6.498   3.946  13.639  0.00  0.00    +0.000 OA
ENDBRANCH   5   8
ENDBRANCH   1   2
BRANCH   1  12
ATOM     11  O   UNL     1       2.358   7.261  19.412  0.00  0.00    +0.000 OA
ATOM     12  C   UNL     1       2.911   6.173  19.342  0.00  0.00    +0.000 C 
BRANCH  12  13
ATOM     13  C   UNL     1       2.157   4.893  19.315  0.00  0.00    +0.000 A 
ATOM     14  C   UNL     1       1.740   4.403  18.083  0.00  0.00    +0.000 A 
ATOM     15  N   UNL     1       1.062   3.234  17.950  0.00  0.00    +0.000 NA
ATOM     16  C   UNL     1       0.815   2.576  19.104  0.00  0.00    +0.000 A 
ATOM     17  C   UNL     1       1.225   3.063  20.335  0.00  0.00    +0.000 A 
ATOM     18  N   UNL     1       1.905   4.228  20.476  0.00  0.00    +0.000 NA
ENDBRANCH  12  13
ENDBRANCH   1  12
TORSDOF 4
ENDMDL
MODEL 7
REMARK VINA RESULT:      -6.9      1.716      2.143
REMARK  Name = 
REMARK  4 active torsions:
REMARK  status: ('A' for Active; 'I' for Inactive)
REMARK    1  A    between atoms: C_2  and  O_3
REMARK    2  A    between atoms: C_2  and  C_13
REMARK    3  A    between atoms: O_3  and  C_4
REMARK    4  A    between atoms: C_7  and  N_8
REMARK                            x       y       z     vdW  Elec       q    Type
REMARK                         _______ _______ _______ _____ _____    ______ ____
ROOT
ATOM      1  O   UNL     1       4.359   5.864  19.448  0.00  0.00    +0.000 OA
ENDROOT
BRANCH   1   2
ATOM      2  C   UNL     1       5.018   5.713  18.204  0.00  0.00    +0.000 A 
ATOM      3  C   UNL     1       6.060   4.783  18.170  0.00  0.00    +0.000 A 
ATOM      4  C   UNL     1       6.711   4.506  16.962  0.00  0.00    +0.000 A 
ATOM      5  C   UNL     1       6.300   5.161  15.792  0.00  0.00    +0.000 A 
ATOM      6  C   UNL     1       5.258   6.096  15.828  0.00  0.00    +0.000 A 
ATOM      7  C   UNL     1       4.608   6.363  17.038  0.00  0.00    +0.000 A 
BRANCH   5   8
ATOM      8  N   UNL     1       6.952   4.849  14.513  0.00  0.00    +0.000 N 
ATOM      9  O   UNL     1       6.517   3.887  13.863  0.00  0.00    +0.000 OA
ATOM     10  O   UNL     1       7.893   5.571  14.152  0.00  0.00    +0.000 OA
ENDBRANCH   5   8
ENDBRANCH   1   2
BRANCH   1  12
ATOM     11  O   UNL     1       2.435   7.186  19.542  0.00  0.00    +0.000 OA
ATOM     12  C   UNL     1       2.992   6.098  19.513  0.00  0.00    +0.000 C 
BRANCH  12  13
ATOM     13  C   UNL     1       2.243   4.816  19.542  0.00  0.00    +0.000 A 
ATOM     14  C   UNL     1       1.921   4.272  20.780  0.00  0.00    +0.000 A 
ATOM     15  N   UNL     1       1.223   3.114  20.913  0.00  0.00    +0.000 NA
ATOM     16  C   UNL     1       0.861   2.522  19.754  0.00  0.00    +0.000 A 
ATOM     17  C   UNL     1       1.183   3.059  18.517  0.00  0.00    +0.000 A 
ATOM     18  N   UNL     1       1.877   4.216  18.376  0.00  0.00    +0.000 NA
ENDBRANCH  12  13
ENDBRANCH   1  12
TORSDOF 4
ENDMDL
MODEL 8
REMARK VINA RESULT:      -6.9      2.405      6.367
REMARK  Name = 
REMARK  4 active torsions:
REMARK  status: ('A' for Active; 'I' for Inactive)
REMARK    1  A    between atoms: C_2  and  O_3
REMARK    2  A    between atoms: C_2  and  C_13
REMARK    3  A    between atoms: O_3  and  C_4
REMARK    4  A    between atoms: C_7  and  N_8
REMARK                            x       y       z     vdW  Elec       q    Type
REMARK                         _______ _______ _______ _____ _____    ______ ____
ROOT
ATOM      1  O   UNL     1       4.431   4.501  16.184  0.00  0.00    +0.000 OA
ENDROOT
BRANCH   1   2
ATOM      2  C   UNL     1       3.921   4.035  17.419  0.00  0.00    +0.000 A 
ATOM      3  C   UNL     1       3.398   5.009  18.275  0.00  0.00    +0.000 A 
ATOM      4  C   UNL     1       2.794   4.630  19.480  0.00  0.00    +0.000 A 
ATOM      5  C   UNL     1       2.713   3.270  19.811  0.00  0.00    +0.000 A 
ATOM      6  C   UNL     1       3.240   2.295  18.954  0.00  0.00    +0.000 A 
ATOM      7  C   UNL     1       3.836   2.682  17.750  0.00  0.00    +0.000 A 
BRANCH   5   8
ATOM      8  N   UNL     1       2.047   2.860  21.055  0.00  0.00    +0.000 N 
ATOM      9  O   UNL     1       2.762   2.558  22.021  0.00  0.00    +0.000 OA
ATOM     10  O   UNL     1       0.807   2.848  21.070  0.00  0.00    +0.000 OA
ENDBRANCH   5   8
ENDBRANCH   1   2
BRANCH   1  12
ATOM     11  O   UNL     1       6.312   3.784  14.999  0.00  0.00    +0.000 OA
ATOM     12  C   UNL     1       5.787   4.430  15.894  0.00  0.00    +0.000 C 
BRANCH  12  13
ATOM     13  C   UNL     1       6.568   5.272  16.836  0.00  0.00    +0.000 A 
ATOM     14  C   UNL     1       7.245   4.641  17.873  0.00  0.00    +0.000 A 
ATOM     15  N   UNL     1       8.001   5.319  18.775  0.00  0.00    +0.000 NA
ATOM     16  C   UNL     1       8.050   6.658  18.597  0.00  0.00    +0.000 A 
ATOM     17  C   UNL     1       7.374   7.292  17.566  0.00  0.00    +0.000 A 
ATOM     18  N   UNL     1       6.619   6.621  16.660  0.00  0.00    +0.000 NA
ENDBRANCH  12  13
ENDBRANCH   1  12
TORSDOF 4
ENDMDL
MODEL 9
REMARK VINA RESULT:      -6.9      2.421      6.365
REMARK  Name = 
REMARK  4 active torsions:
REMARK  status: ('A' for Active; 'I' for Inactive)
REMARK    1  A    between atoms: C_2  and  O_3
REMARK    2  A    between atoms: C_2  and  C_13
REMARK    3  A    between atoms: O_3  and  C_4
REMARK    4  A    between atoms: C_7  and  N_8
REMARK                            x       y       z     vdW  Elec       q    Type
REMARK                         _______ _______ _______ _____ _____    ______ ____
ROOT
ATOM      1  O   UNL     1       4.444   4.490  16.295  0.00  0.00    +0.000 OA
ENDROOT
BRANCH   1   2
ATOM      2  C   UNL     1       3.774   4.121  17.486  0.00  0.00    +0.000 A 
ATOM      3  C   UNL     1       3.770   2.757  17.791  0.00  0.00    +0.000 A 
ATOM      4  C   UNL     1       3.206   2.310  18.992  0.00  0.00    +0.000 A 
ATOM      5  C   UNL     1       2.657   3.243  19.883  0.00  0.00    +0.000 A 
ATOM      6  C   UNL     1       2.658   4.609  19.575  0.00  0.00    +0.000 A 
ATOM      7  C   UNL     1       3.229   5.048  18.376  0.00  0.00    +0.000 A 
BRANCH   5   8
ATOM      8  N   UNL     1       2.097   2.787  21.163  0.00  0.00    +0.000 N 
ATOM      9  O   UNL     1       2.889   2.441  22.050  0.00  0.00    +0.000 OA
ATOM     10  O   UNL     1       0.862   2.784  21.285  0.00  0.00    +0.000 OA
ENDBRANCH   5   8
ENDBRANCH   1   2
BRANCH   1  12
ATOM     11  O   UNL     1       6.313   3.427  15.382  0.00  0.00    +0.000 OA
ATOM     12  C   UNL     1       5.802   4.248  16.130  0.00  0.00    +0.000 C 
BRANCH  12  13
ATOM     13  C   UNL     1       6.603   5.143  17.002  0.00  0.00    +0.000 A 
ATOM     14  C   UNL     1       6.765   6.467  16.611  0.00  0.00    +0.000 A 
ATOM     15  N   UNL     1       7.464   7.370  17.347  0.00  0.00    +0.000 NA
ATOM     16  C   UNL     1       7.997   6.890  18.493  0.00  0.00    +0.000 A 
ATOM     17  C   UNL     1       7.842   5.570  18.885  0.00  0.00    +0.000 A 
ATOM     18  N   UNL     1       7.143   4.664  18.156  0.00  0.00    +0.000 NA
ENDBRANCH  12  13
ENDBRANCH   1  12
TORSDOF 4
ENDMDL
