MODEL 1
REMARK VINA RESULT:      -7.9      0.000      0.000
REMARK  Name = 
REMARK  3 active torsions:
REMARK  status: ('A' for Active; 'I' for Inactive)
REMARK    1  A    between atoms: C_5  and  C_6
REMARK    2  A    between atoms: C_8  and  C_9
REMARK    3  A    between atoms: C_19  and  C_20
REMARK                            x       y       z     vdW  Elec       q    Type
REMARK                         _______ _______ _______ _____ _____    ______ ____
ROOT
ATOM      1  C   UNL     1       2.707   5.169  17.873  0.00  0.00    +0.000 C 
ATOM      2  C   UNL     1       1.667   5.768  18.821  0.00  0.00    +0.000 C 
ATOM      3  C   UNL     1       2.278   7.111  19.096  0.00  0.00    +0.000 C 
ATOM      4  N   UNL     1       3.423   7.326  18.523  0.00  0.00    +0.000 NA
ATOM      5  N   UNL     1       3.719   6.213  17.775  0.00  0.00    +0.000 N 
ATOM      6  C   UNL     1       4.827   6.042  16.997  0.00  0.00    +0.000 A 
ATOM      7  N   UNL     1       4.889   5.269  15.926  0.00  0.00    +0.000 NA
ATOM      8  C   UNL     1       6.153   5.324  15.351  0.00  0.00    +0.000 A 
ATOM      9  C   UNL     1       7.082   6.033  16.084  0.00  0.00    +0.000 A 
ATOM     10  S   UNL     1       6.323   6.814  17.400  0.00  0.00    +0.000 S 
ENDROOT
BRANCH   1  15
ATOM     11  F   UNL     1       4.842   0.334  19.892  0.00  0.00    +0.000 F 
ATOM     12  C   UNL     1       4.337   1.481  19.420  0.00  0.00    +0.000 A 
ATOM     13  C   UNL     1       3.664   1.482  18.202  0.00  0.00    +0.000 A 
ATOM     14  C   UNL     1       3.137   2.678  17.711  0.00  0.00    +0.000 A 
ATOM     15  C   UNL     1       3.279   3.871  18.434  0.00  0.00    +0.000 A 
ATOM     16  C   UNL     1       3.970   3.843  19.661  0.00  0.00    +0.000 A 
ATOM     17  C   UNL     1       4.495   2.650  20.153  0.00  0.00    +0.000 A 
ENDBRANCH   1  15
BRANCH   3  18
ATOM     18  C   UNL     1       1.655   8.102  19.945  0.00  0.00    +0.000 A 
ATOM     19  C   UNL     1       1.388   8.019  21.302  0.00  0.00    +0.000 A 
ATOM     20  C   UNL     1       0.734   9.186  21.805  0.00  0.00    +0.000 A 
ATOM     21  C   UNL     1       0.537  10.105  20.809  0.00  0.00    +0.000 A 
ATOM     22 CL   UNL     1      -0.224  11.636  20.957  0.00  0.00    +0.000 Cl
ATOM     23  S   UNL     1       1.131   9.608  19.308  0.00  0.00    +0.000 S 
ENDBRANCH   3  18
BRANCH   8  24
ATOM     24  C   UNL     1       6.442   4.701  14.060  0.00  0.00    +0.000 A 
ATOM     25  C   UNL     1       7.507   5.147  13.261  0.00  0.00    +0.000 A 
ATOM     26  C   UNL     1       7.729   4.608  11.990  0.00  0.00    +0.000 A 
ATOM     27  C   UNL     1       6.888   3.613  11.502  0.00  0.00    +0.000 A 
ATOM     28  C   UNL     1       5.833   3.150  12.287  0.00  0.00    +0.000 A 
ATOM     29  C   UNL     1       5.610   3.690  13.558  0.00  0.00    +0.000 A 
ENDBRANCH   8  24
TORSDOF 3
ENDMDL
MODEL 2
REMARK VINA RESULT:      -7.6      0.809      1.301
REMARK  Name = 
REMARK  3 active torsions:
REMARK  status: ('A' for Active; 'I' for Inactive)
REMARK    1  A    between atoms: C_5  and  C_6
REMARK    2  A    between atoms: C_8  and  C_9
REMARK    3  A    between atoms: C_19  and  C_20
REMARK                            x       y       z     vdW  Elec       q    Type
REMARK                         _______ _______ _______ _____ _____    ______ ____
ROOT
ATOM      1  C   UNL     1       2.699   5.145  17.800  0.00  0.00    +0.000 C 
ATOM      2  C   UNL     1       1.649   5.749  18.733  0.00  0.00    +0.000 C 
ATOM      3  C   UNL     1       2.232   7.112  18.969  0.00  0.00    +0.000 C 
ATOM      4  N   UNL     1       3.370   7.334  18.387  0.00  0.00    +0.000 NA
ATOM      5  N   UNL     1       3.689   6.208  17.669  0.00  0.00    +0.000 N 
ATOM      6  C   UNL     1       4.798   6.038  16.894  0.00  0.00    +0.000 A 
ATOM      7  N   UNL     1       4.875   5.237  15.846  0.00  0.00    +0.000 NA
ATOM      8  C   UNL     1       6.137   5.302  15.267  0.00  0.00    +0.000 A 
ATOM      9  C   UNL     1       7.052   6.050  15.977  0.00  0.00    +0.000 A 
ATOM     10  S   UNL     1       6.279   6.852  17.272  0.00  0.00    +0.000 S 
ENDROOT
BRANCH   1  15
ATOM     11  F   UNL     1       4.909   0.458  20.069  0.00  0.00    +0.000 F 
ATOM     12  C   UNL     1       4.386   1.564  19.525  0.00  0.00    +0.000 A 
ATOM     13  C   UNL     1       4.522   2.781  20.188  0.00  0.00    +0.000 A 
ATOM     14  C   UNL     1       3.977   3.934  19.621  0.00  0.00    +0.000 A 
ATOM     15  C   UNL     1       3.299   3.876  18.395  0.00  0.00    +0.000 A 
ATOM     16  C   UNL     1       3.170   2.631  17.749  0.00  0.00    +0.000 A 
ATOM     17  C   UNL     1       3.716   1.479  18.313  0.00  0.00    +0.000 A 
ENDBRANCH   1  15
BRANCH   3  18
ATOM     18  C   UNL     1       1.590   8.113  19.791  0.00  0.00    +0.000 A 
ATOM     19  C   UNL     1       1.252   9.412  19.448  0.00  0.00    +0.000 A 
ATOM     20  C   UNL     1       0.651  10.127  20.530  0.00  0.00    +0.000 A 
ATOM     21  C   UNL     1       0.556   9.338  21.645  0.00  0.00    +0.000 A 
ATOM     22 CL   UNL     1      -0.081   9.789  23.174  0.00  0.00    +0.000 Cl
ATOM     23  S   UNL     1       1.148   7.773  21.415  0.00  0.00    +0.000 S 
ENDBRANCH   3  18
BRANCH   8  24
ATOM     24  C   UNL     1       6.436   4.649  13.993  0.00  0.00    +0.000 A 
ATOM     25  C   UNL     1       7.496   5.089  13.183  0.00  0.00    +0.000 A 
ATOM     26  C   UNL     1       7.728   4.519  11.928  0.00  0.00    +0.000 A 
ATOM     27  C   UNL     1       6.902   3.500  11.464  0.00  0.00    +0.000 A 
ATOM     28  C   UNL     1       5.852   3.043  12.260  0.00  0.00    +0.000 A 
ATOM     29  C   UNL     1       5.619   3.614  13.517  0.00  0.00    +0.000 A 
ENDBRANCH   8  24
TORSDOF 3
ENDMDL
MODEL 3
REMARK VINA RESULT:      -7.3      5.634      9.411
REMARK  Name = 
REMARK  3 active torsions:
REMARK  status: ('A' for Active; 'I' for Inactive)
REMARK    1  A    between atoms: C_5  and  C_6
REMARK    2  A    between atoms: C_8  and  C_9
REMARK    3  A    between atoms: C_19  and  C_20
REMARK                            x       y       z     vdW  Elec       q    Type
REMARK                         _______ _______ _______ _____ _____    ______ ____
ROOT
ATOM      1  C   UNL     1      -0.496  12.974  20.577  0.00  0.00    +0.000 C 
ATOM      2  C   UNL     1      -0.852  14.327  21.195  0.00  0.00    +0.000 C 
ATOM      3  C   UNL     1      -0.789  13.993  22.657  0.00  0.00    +0.000 C 
ATOM      4  N   UNL     1      -0.510  12.755  22.930  0.00  0.00    +0.000 NA
ATOM      5  N   UNL     1      -0.312  12.108  21.735  0.00  0.00    +0.000 N 
ATOM      6  C   UNL     1       0.024  10.795  21.579  0.00  0.00    +0.000 A 
ATOM      7  N   UNL     1       0.693  10.301  20.552  0.00  0.00    +0.000 NA
ATOM      8  C   UNL     1       0.885   8.932  20.701  0.00  0.00    +0.000 A 
ATOM      9  C   UNL     1       0.228   8.379  21.780  0.00  0.00    +0.000 A 
ATOM     10  S   UNL     1      -0.469   9.609  22.739  0.00  0.00    +0.000 S 
ENDROOT
BRANCH   1  15
ATOM     11  F   UNL     1      -4.672  11.177  17.209  0.00  0.00    +0.000 F 
ATOM     12  C   UNL     1      -3.679  11.599  18.002  0.00  0.00    +0.000 A 
ATOM     13  C   UNL     1      -3.976  12.074  19.277  0.00  0.00    +0.000 A 
ATOM     14  C   UNL     1      -2.941  12.513  20.103  0.00  0.00    +0.000 A 
ATOM     15  C   UNL     1      -1.610  12.477  19.663  0.00  0.00    +0.000 A 
ATOM     16  C   UNL     1      -1.338  11.998  18.366  0.00  0.00    +0.000 A 
ATOM     17  C   UNL     1      -2.370  11.557  17.540  0.00  0.00    +0.000 A 
ENDBRANCH   1  15
BRANCH   3  18
ATOM     18  C   UNL     1      -1.031  14.965  23.700  0.00  0.00    +0.000 A 
ATOM     19  C   UNL     1      -1.853  14.843  24.808  0.00  0.00    +0.000 A 
ATOM     20  C   UNL     1      -1.867  16.023  25.614  0.00  0.00    +0.000 A 
ATOM     21  C   UNL     1      -1.053  16.987  25.084  0.00  0.00    +0.000 A 
ATOM     22 CL   UNL     1      -0.782  18.563  25.708  0.00  0.00    +0.000 Cl
ATOM     23  S   UNL     1      -0.269  16.503  23.669  0.00  0.00    +0.000 S 
ENDBRANCH   3  18
BRANCH   8  24
ATOM     24  C   UNL     1       1.744   8.170  19.796  0.00  0.00    +0.000 A 
ATOM     25  C   UNL     1       2.053   8.650  18.513  0.00  0.00    +0.000 A 
ATOM     26  C   UNL     1       2.804   7.883  17.618  0.00  0.00    +0.000 A 
ATOM     27  C   UNL     1       3.257   6.622  17.995  0.00  0.00    +0.000 A 
ATOM     28  C   UNL     1       2.969   6.134  19.268  0.00  0.00    +0.000 A 
ATOM     29  C   UNL     1       2.216   6.903  20.164  0.00  0.00    +0.000 A 
ENDBRANCH   8  24
TORSDOF 3
ENDMDL
MODEL 4
REMARK VINA RESULT:      -7.2      6.019      9.880
REMARK  Name = 
REMARK  3 active torsions:
REMARK  status: ('A' for Active; 'I' for Inactive)
REMARK    1  A    between atoms: C_5  and  C_6
REMARK    2  A    between atoms: C_8  and  C_9
REMARK    3  A    between atoms: C_19  and  C_20
REMARK                            x       y       z     vdW  Elec       q    Type
REMARK                         _______ _______ _______ _____ _____    ______ ____
ROOT
ATOM      1  C   UNL     1      -1.159  13.302  20.729  0.00  0.00    +0.000 C 
ATOM      2  C   UNL     1      -1.582  14.641  21.335  0.00  0.00    +0.000 C 
ATOM      3  C   UNL     1      -1.412  14.354  22.798  0.00  0.00    +0.000 C 
ATOM      4  N   UNL     1      -1.024  13.149  23.083  0.00  0.00    +0.000 NA
ATOM      5  N   UNL     1      -0.845  12.485  21.895  0.00  0.00    +0.000 N 
ATOM      6  C   UNL     1      -0.418  11.198  21.751  0.00  0.00    +0.000 A 
ATOM      7  N   UNL     1       0.229  10.726  20.700  0.00  0.00    +0.000 NA
ATOM      8  C   UNL     1       0.533   9.381  20.870  0.00  0.00    +0.000 A 
ATOM      9  C   UNL     1      -0.018   8.810  21.998  0.00  0.00    +0.000 A 
ATOM     10  S   UNL     1      -0.753  10.011  22.966  0.00  0.00    +0.000 S 
ENDROOT
BRANCH   1  15
ATOM     11  F   UNL     1      -5.284  11.009  17.609  0.00  0.00    +0.000 F 
ATOM     12  C   UNL     1      -4.312  11.556  18.351  0.00  0.00    +0.000 A 
ATOM     13  C   UNL     1      -2.994  11.489  17.908  0.00  0.00    +0.000 A 
ATOM     14  C   UNL     1      -1.982  12.059  18.681  0.00  0.00    +0.000 A 
ATOM     15  C   UNL     1      -2.281  12.697  19.893  0.00  0.00    +0.000 A 
ATOM     16  C   UNL     1      -3.623  12.745  20.322  0.00  0.00    +0.000 A 
ATOM     17  C   UNL     1      -4.635  12.178  19.550  0.00  0.00    +0.000 A 
ENDBRANCH   1  15
BRANCH   3  18
ATOM     18  C   UNL     1      -1.669  15.334  23.829  0.00  0.00    +0.000 A 
ATOM     19  C   UNL     1      -1.150  15.381  25.113  0.00  0.00    +0.000 A 
ATOM     20  C   UNL     1      -1.651  16.485  25.868  0.00  0.00    +0.000 A 
ATOM     21  C   UNL     1      -2.527  17.230  25.125  0.00  0.00    +0.000 A 
ATOM     22 CL   UNL     1      -3.378  18.631  25.634  0.00  0.00    +0.000 Cl
ATOM     23  S   UNL     1      -2.739  16.648  23.553  0.00  0.00    +0.000 S 
ENDBRANCH   3  18
BRANCH   8  24
ATOM     24  C   UNL     1       1.395   8.660  19.935  0.00  0.00    +0.000 A 
ATOM     25  C   UNL     1       1.627   9.147  18.638  0.00  0.00    +0.000 A 
ATOM     26  C   UNL     1       2.382   8.415  17.717  0.00  0.00    +0.000 A 
ATOM     27  C   UNL     1       2.919   7.183  18.083  0.00  0.00    +0.000 A 
ATOM     28  C   UNL     1       2.708   6.690  19.369  0.00  0.00    +0.000 A 
ATOM     29  C   UNL     1       1.951   7.423  20.291  0.00  0.00    +0.000 A 
ENDBRANCH   8  24
TORSDOF 3
ENDMDL
MODEL 5
REMARK VINA RESULT:      -7.2      4.930      8.510
REMARK  Name = 
REMARK  3 active torsions:
REMARK  status: ('A' for Active; 'I' for Inactive)
REMARK    1  A    between atoms: C_5  and  C_6
REMARK    2  A    between atoms: C_8  and  C_9
REMARK    3  A    between atoms: C_19  and  C_20
REMARK                            x       y       z     vdW  Elec       q    Type
REMARK                         _______ _______ _______ _____ _____    ______ ____
ROOT
ATOM      1  C   UNL     1       0.014  12.279  19.659  0.00  0.00    +0.000 C 
ATOM      2  C   UNL     1      -0.322  13.694  20.131  0.00  0.00    +0.000 C 
ATOM      3  C   UNL     1      -0.147  13.545  21.614  0.00  0.00    +0.000 C 
ATOM      4  N   UNL     1       0.176  12.354  22.015  0.00  0.00    +0.000 NA
ATOM      5  N   UNL     1       0.298  11.565  20.898  0.00  0.00    +0.000 N 
ATOM      6  C   UNL     1       0.648  10.247  20.880  0.00  0.00    +0.000 A 
ATOM      7  N   UNL     1       1.250   9.636  19.875  0.00  0.00    +0.000 NA
ATOM      8  C   UNL     1       1.479   8.298  20.178  0.00  0.00    +0.000 A 
ATOM      9  C   UNL     1       0.913   7.877  21.363  0.00  0.00    +0.000 A 
ATOM     10  S   UNL     1       0.264   9.209  22.212  0.00  0.00    +0.000 S 
ENDROOT
BRANCH   1  15
ATOM     11  F   UNL     1      -4.353  10.043  16.842  0.00  0.00    +0.000 F 
ATOM     12  C   UNL     1      -3.315  10.567  17.507  0.00  0.00    +0.000 A 
ATOM     13  C   UNL     1      -3.547  11.518  18.497  0.00  0.00    +0.000 A 
ATOM     14  C   UNL     1      -2.465  12.063  19.190  0.00  0.00    +0.000 A 
ATOM     15  C   UNL     1      -1.154  11.661  18.899  0.00  0.00    +0.000 A 
ATOM     16  C   UNL     1      -0.947  10.702  17.887  0.00  0.00    +0.000 A 
ATOM     17  C   UNL     1      -2.026  10.155  17.196  0.00  0.00    +0.000 A 
ENDBRANCH   1  15
BRANCH   3  18
ATOM     18  C   UNL     1      -0.331  14.637  22.543  0.00  0.00    +0.000 A 
ATOM     19  C   UNL     1       0.266  15.887  22.523  0.00  0.00    +0.000 A 
ATOM     20  C   UNL     1      -0.135  16.705  23.624  0.00  0.00    +0.000 A 
ATOM     21  C   UNL     1      -1.021  16.042  24.430  0.00  0.00    +0.000 A 
ATOM     22 CL   UNL     1      -1.746  16.633  25.869  0.00  0.00    +0.000 Cl
ATOM     23  S   UNL     1      -1.390  14.486  23.887  0.00  0.00    +0.000 S 
ENDBRANCH   3  18
BRANCH   8  24
ATOM     24  C   UNL     1       2.284   7.438  19.311  0.00  0.00    +0.000 A 
ATOM     25  C   UNL     1       2.613   6.127  19.693  0.00  0.00    +0.000 A 
ATOM     26  C   UNL     1       3.452   5.336  18.904  0.00  0.00    +0.000 A 
ATOM     27  C   UNL     1       3.974   5.845  17.718  0.00  0.00    +0.000 A 
ATOM     28  C   UNL     1       3.648   7.140  17.318  0.00  0.00    +0.000 A 
ATOM     29  C   UNL     1       2.808   7.933  18.109  0.00  0.00    +0.000 A 
ENDBRANCH   8  24
TORSDOF 3
ENDMDL
MODEL 6
REMARK VINA RESULT:      -7.1      4.940      8.473
REMARK  Name = 
REMARK  3 active torsions:
REMARK  status: ('A' for Active; 'I' for Inactive)
REMARK    1  A    between atoms: C_5  and  C_6
REMARK    2  A    between atoms: C_8  and  C_9
REMARK    3  A    between atoms: C_19  and  C_20
REMARK                            x       y       z     vdW  Elec       q    Type
REMARK                         _______ _______ _______ _____ _____    ______ ____
ROOT
ATOM      1  C   UNL     1      -0.034  12.238  19.812  0.00  0.00    +0.000 C 
ATOM      2  C   UNL     1      -0.410  13.628  20.328  0.00  0.00    +0.000 C 
ATOM      3  C   UNL     1      -0.308  13.414  21.811  0.00  0.00    +0.000 C 
ATOM      4  N   UNL     1       0.009  12.209  22.175  0.00  0.00    +0.000 NA
ATOM      5  N   UNL     1       0.196  11.473  21.032  0.00  0.00    +0.000 N 
ATOM      6  C   UNL     1       0.562  10.160  20.974  0.00  0.00    +0.000 A 
ATOM      7  N   UNL     1       1.221   9.600  19.975  0.00  0.00    +0.000 NA
ATOM      8  C   UNL     1       1.450   8.253  20.229  0.00  0.00    +0.000 A 
ATOM      9  C   UNL     1       0.830   7.773  21.364  0.00  0.00    +0.000 A 
ATOM     10  S   UNL     1       0.123   9.060  22.237  0.00  0.00    +0.000 S 
ENDROOT
BRANCH   1  15
ATOM     11  F   UNL     1      -4.226  10.089  16.680  0.00  0.00    +0.000 F 
ATOM     12  C   UNL     1      -3.229  10.592  17.420  0.00  0.00    +0.000 A 
ATOM     13  C   UNL     1      -3.519  11.520  18.416  0.00  0.00    +0.000 A 
ATOM     14  C   UNL     1      -2.480  12.044  19.187  0.00  0.00    +0.000 A 
ATOM     15  C   UNL     1      -1.155  11.643  18.968  0.00  0.00    +0.000 A 
ATOM     16  C   UNL     1      -0.889  10.708  17.948  0.00  0.00    +0.000 A 
ATOM     17  C   UNL     1      -1.925  10.182  17.179  0.00  0.00    +0.000 A 
ENDBRANCH   1  15
BRANCH   3  18
ATOM     18  C   UNL     1      -0.551  14.462  22.777  0.00  0.00    +0.000 A 
ATOM     19  C   UNL     1      -1.332  14.406  23.920  0.00  0.00    +0.000 A 
ATOM     20  C   UNL     1      -1.363  15.648  24.625  0.00  0.00    +0.000 A 
ATOM     21  C   UNL     1      -0.602  16.592  23.989  0.00  0.00    +0.000 A 
ATOM     22 CL   UNL     1      -0.368  18.222  24.471  0.00  0.00    +0.000 Cl
ATOM     23  S   UNL     1       0.154  16.017  22.592  0.00  0.00    +0.000 S 
ENDBRANCH   3  18
BRANCH   8  24
ATOM     24  C   UNL     1       2.308   7.440  19.368  0.00  0.00    +0.000 A 
ATOM     25  C   UNL     1       2.803   7.943  18.154  0.00  0.00    +0.000 A 
ATOM     26  C   UNL     1       3.552   7.137  17.292  0.00  0.00    +0.000 A 
ATOM     27  C   UNL     1       3.818   5.814  17.633  0.00  0.00    +0.000 A 
ATOM     28  C   UNL     1       3.343   5.301  18.840  0.00  0.00    +0.000 A 
ATOM     29  C   UNL     1       2.592   6.108  19.703  0.00  0.00    +0.000 A 
ENDBRANCH   8  24
TORSDOF 3
ENDMDL
MODEL 7
REMARK VINA RESULT:      -7.0      4.912      8.430
REMARK  Name = 
REMARK  3 active torsions:
REMARK  status: ('A' for Active; 'I' for Inactive)
REMARK    1  A    between atoms: C_5  and  C_6
REMARK    2  A    between atoms: C_8  and  C_9
REMARK    3  A    between atoms: C_19  and  C_20
REMARK                            x       y       z     vdW  Elec       q    Type
REMARK                         _______ _______ _______ _____ _____    ______ ____
ROOT
ATOM      1  C   UNL     1       0.064  12.250  19.681  0.00  0.00    +0.000 C 
ATOM      2  C   UNL     1      -0.267  13.669  20.143  0.00  0.00    +0.000 C 
ATOM      3  C   UNL     1      -0.128  13.521  21.630  0.00  0.00    +0.000 C 
ATOM      4  N   UNL     1       0.172  12.327  22.040  0.00  0.00    +0.000 NA
ATOM      5  N   UNL     1       0.312  11.536  20.927  0.00  0.00    +0.000 N 
ATOM      6  C   UNL     1       0.648  10.214  20.920  0.00  0.00    +0.000 A 
ATOM      7  N   UNL     1       1.266   9.594  19.930  0.00  0.00    +0.000 NA
ATOM      8  C   UNL     1       1.474   8.255  20.239  0.00  0.00    +0.000 A 
ATOM      9  C   UNL     1       0.876   7.841  21.411  0.00  0.00    +0.000 A 
ATOM     10  S   UNL     1       0.222   9.182  22.243  0.00  0.00    +0.000 S 
ENDROOT
BRANCH   1  15
ATOM     11  F   UNL     1      -4.198   9.940  16.763  0.00  0.00    +0.000 F 
ATOM     12  C   UNL     1      -3.193  10.493  17.456  0.00  0.00    +0.000 A 
ATOM     13  C   UNL     1      -1.884  10.096  17.196  0.00  0.00    +0.000 A 
ATOM     14  C   UNL     1      -0.837  10.671  17.917  0.00  0.00    +0.000 A 
ATOM     15  C   UNL     1      -1.093  11.643  18.895  0.00  0.00    +0.000 A 
ATOM     16  C   UNL     1      -2.427  12.022  19.143  0.00  0.00    +0.000 A 
ATOM     17  C   UNL     1      -3.473  11.450  18.422  0.00  0.00    +0.000 A 
ENDBRANCH   1  15
BRANCH   3  18
ATOM     18  C   UNL     1      -0.322  14.617  22.553  0.00  0.00    +0.000 A 
ATOM     19  C   UNL     1       0.278  15.865  22.537  0.00  0.00    +0.000 A 
ATOM     20  C   UNL     1      -0.136  16.688  23.630  0.00  0.00    +0.000 A 
ATOM     21  C   UNL     1      -1.034  16.029  24.426  0.00  0.00    +0.000 A 
ATOM     22 CL   UNL     1      -1.777  16.627  25.853  0.00  0.00    +0.000 Cl
ATOM     23  S   UNL     1      -1.400  14.472  23.883  0.00  0.00    +0.000 S 
ENDBRANCH   3  18
BRANCH   8  24
ATOM     24  C   UNL     1       2.289   7.385  19.393  0.00  0.00    +0.000 A 
ATOM     25  C   UNL     1       2.844   7.853  18.191  0.00  0.00    +0.000 A 
ATOM     26  C   UNL     1       3.552   6.998  17.342  0.00  0.00    +0.000 A 
ATOM     27  C   UNL     1       3.716   5.659  17.685  0.00  0.00    +0.000 A 
ATOM     28  C   UNL     1       3.182   5.180  18.881  0.00  0.00    +0.000 A 
ATOM     29  C   UNL     1       2.473   6.036  19.730  0.00  0.00    +0.000 A 
ENDBRANCH   8  24
TORSDOF 3
ENDMDL
MODEL 8
REMARK VINA RESULT:      -7.0      5.572      9.350
REMARK  Name = 
REMARK  3 active torsions:
REMARK  status: ('A' for Active; 'I' for Inactive)
REMARK    1  A    between atoms: C_5  and  C_6
REMARK    2  A    between atoms: C_8  and  C_9
REMARK    3  A    between atoms: C_19  and  C_20
REMARK                            x       y       z     vdW  Elec       q    Type
REMARK                         _______ _______ _______ _____ _____    ______ ____
ROOT
ATOM      1  C   UNL     1      -0.367  13.031  19.998  0.00  0.00    +0.000 C 
ATOM      2  C   UNL     1      -0.665  14.465  20.440  0.00  0.00    +0.000 C 
ATOM      3  C   UNL     1      -0.522  14.337  21.928  0.00  0.00    +0.000 C 
ATOM      4  N   UNL     1      -0.246  13.143  22.356  0.00  0.00    +0.000 NA
ATOM      5  N   UNL     1      -0.129  12.331  21.255  0.00  0.00    +0.000 N 
ATOM      6  C   UNL     1       0.177  11.002  21.266  0.00  0.00    +0.000 A 
ATOM      7  N   UNL     1       0.777  10.354  20.283  0.00  0.00    +0.000 NA
ATOM      8  C   UNL     1       0.956   9.015  20.613  0.00  0.00    +0.000 A 
ATOM      9  C   UNL     1       0.356   8.633  21.794  0.00  0.00    +0.000 A 
ATOM     10  S   UNL     1      -0.265  10.001  22.608  0.00  0.00    +0.000 S 
ENDROOT
BRANCH   1  15
ATOM     11  F   UNL     1      -4.763  10.878  17.162  0.00  0.00    +0.000 F 
ATOM     12  C   UNL     1      -3.718  11.384  17.829  0.00  0.00    +0.000 A 
ATOM     13  C   UNL     1      -3.920  11.959  19.081  0.00  0.00    +0.000 A 
ATOM     14  C   UNL     1      -2.831  12.485  19.777  0.00  0.00    +0.000 A 
ATOM     15  C   UNL     1      -1.541  12.438  19.228  0.00  0.00    +0.000 A 
ATOM     16  C   UNL     1      -1.366  11.857  17.956  0.00  0.00    +0.000 A 
ATOM     17  C   UNL     1      -2.453  11.328  17.262  0.00  0.00    +0.000 A 
ENDBRANCH   1  15
BRANCH   3  18
ATOM     18  C   UNL     1      -0.687  15.450  22.836  0.00  0.00    +0.000 A 
ATOM     19  C   UNL     1      -0.482  16.797  22.583  0.00  0.00    +0.000 A 
ATOM     20  C   UNL     1      -0.718  17.613  23.731  0.00  0.00    +0.000 A 
ATOM     21  C   UNL     1      -1.095  16.852  24.805  0.00  0.00    +0.000 A 
ATOM     22 CL   UNL     1      -1.460  17.410  26.386  0.00  0.00    +0.000 Cl
ATOM     23  S   UNL     1      -1.189  15.201  24.459  0.00  0.00    +0.000 S 
ENDBRANCH   3  18
BRANCH   8  24
ATOM     24  C   UNL     1       1.748   8.114  19.776  0.00  0.00    +0.000 A 
ATOM     25  C   UNL     1       2.168   8.497  18.492  0.00  0.00    +0.000 A 
ATOM     26  C   UNL     1       2.852   7.604  17.661  0.00  0.00    +0.000 A 
ATOM     27  C   UNL     1       3.127   6.314  18.106  0.00  0.00    +0.000 A 
ATOM     28  C   UNL     1       2.728   5.921  19.382  0.00  0.00    +0.000 A 
ATOM     29  C   UNL     1       2.042   6.815  20.214  0.00  0.00    +0.000 A 
ENDBRANCH   8  24
TORSDOF 3
ENDMDL
MODEL 9
REMARK VINA RESULT:      -7.0      5.521     11.452
REMARK  Name = 
REMARK  3 active torsions:
REMARK  status: ('A' for Active; 'I' for Inactive)
REMARK    1  A    between atoms: C_5  and  C_6
REMARK    2  A    between atoms: C_8  and  C_9
REMARK    3  A    between atoms: C_19  and  C_20
REMARK                            x       y       z     vdW  Elec       q    Type
REMARK                         _______ _______ _______ _____ _____    ______ ____
ROOT
ATOM      1  C   UNL     1       0.203  11.058  18.711  0.00  0.00    +0.000 C 
ATOM      2  C   UNL     1       1.171  10.144  17.959  0.00  0.00    +0.000 C 
ATOM      3  C   UNL     1       1.415   9.082  18.991  0.00  0.00    +0.000 C 
ATOM      4  N   UNL     1       0.809   9.264  20.124  0.00  0.00    +0.000 NA
ATOM      5  N   UNL     1       0.066  10.412  20.011  0.00  0.00    +0.000 N 
ATOM      6  C   UNL     1      -0.739  10.946  20.974  0.00  0.00    +0.000 A 
ATOM      7  N   UNL     1      -1.802  11.696  20.744  0.00  0.00    +0.000 NA
ATOM      8  C   UNL     1      -2.410  12.069  21.938  0.00  0.00    +0.000 A 
ATOM      9  C   UNL     1      -1.710  11.710  23.071  0.00  0.00    +0.000 A 
ATOM     10  S   UNL     1      -0.384  10.718  22.653  0.00  0.00    +0.000 S 
ENDROOT
BRANCH   1  15
ATOM     11  F   UNL     1       2.337  16.281  19.134  0.00  0.00    +0.000 F 
ATOM     12  C   UNL     1       1.825  15.047  19.035  0.00  0.00    +0.000 A 
ATOM     13  C   UNL     1       2.645  13.946  19.268  0.00  0.00    +0.000 A 
ATOM     14  C   UNL     1       2.111  12.661  19.164  0.00  0.00    +0.000 A 
ATOM     15  C   UNL     1       0.763  12.471  18.832  0.00  0.00    +0.000 A 
ATOM     16  C   UNL     1      -0.043  13.603  18.595  0.00  0.00    +0.000 A 
ATOM     17  C   UNL     1       0.488  14.887  18.700  0.00  0.00    +0.000 A 
ENDBRANCH   1  15
BRANCH   3  18
ATOM     18  C   UNL     1       2.269   7.939  18.759  0.00  0.00    +0.000 A 
ATOM     19  C   UNL     1       3.140   7.721  17.704  0.00  0.00    +0.000 A 
ATOM     20  C   UNL     1       3.803   6.459  17.791  0.00  0.00    +0.000 A 
ATOM     21  C   UNL     1       3.410   5.775  18.909  0.00  0.00    +0.000 A 
ATOM     22 CL   UNL     1       3.936   4.216  19.401  0.00  0.00    +0.000 Cl
ATOM     23  S   UNL     1       2.291   6.616  19.854  0.00  0.00    +0.000 S 
ENDBRANCH   3  18
BRANCH   8  24
ATOM     24  C   UNL     1      -3.701  12.755  21.964  0.00  0.00    +0.000 A 
ATOM     25  C   UNL     1      -4.409  12.924  23.166  0.00  0.00    +0.000 A 
ATOM     26  C   UNL     1      -5.680  13.504  23.178  0.00  0.00    +0.000 A 
ATOM     27  C   UNL     1      -6.263  13.924  21.986  0.00  0.00    +0.000 A 
ATOM     28  C   UNL     1      -5.570  13.774  20.785  0.00  0.00    +0.000 A 
ATOM     29  C   UNL     1      -4.297  13.193  20.773  0.00  0.00    +0.000 A 
ENDBRANCH   8  24
TORSDOF 3
ENDMDL
