MODEL 1
REMARK VINA RESULT:      -6.7      0.000      0.000
REMARK  Name = 
REMARK  5 active torsions:
REMARK  status: ('A' for Active; 'I' for Inactive)
REMARK    1  A    between atoms: C_2  and  C_3
REMARK    2  A    between atoms: C_6  and  C_7
REMARK    3  A    between atoms: C_7  and  N_8
REMARK    4  A    between atoms: N_16  and  S_17
REMARK    5  A    between atoms: S_17  and  C_20
REMARK                            x       y       z     vdW  Elec       q    Type
REMARK                         _______ _______ _______ _____ _____    ______ ____
ROOT
ATOM      1  N   UNL     1       1.233   9.257  18.285  0.00  0.00    +0.000 NA
ATOM      2  C   UNL     1      -0.152   9.728  18.390  0.00  0.00    +0.000 C 
ATOM      3  C   UNL     1      -0.394  10.871  19.390  0.00  0.00    +0.000 C 
ATOM      4  C   UNL     1       0.644  12.033  19.375  0.00  0.00    +0.000 C 
ATOM      5  C   UNL     1       2.065  11.507  19.024  0.00  0.00    +0.000 C 
ATOM      6  C   UNL     1       2.082  10.415  17.951  0.00  0.00    +0.000 C 
ATOM      7  C   UNL     1       0.265  13.114  18.313  0.00  0.00    +0.000 C 
ATOM      8  C   UNL     1      -0.774  14.128  18.775  0.00  0.00    +0.000 C 
ATOM      9  N   UNL     1      -0.417  14.720  20.084  0.00  0.00    +0.000 NA
ATOM     10  C   UNL     1      -0.398  13.660  21.120  0.00  0.00    +0.000 C 
ATOM     11  C   UNL     1       0.697  12.640  20.816  0.00  0.00    +0.000 C 
ENDROOT
BRANCH   9  12
ATOM     12  S   UNL     1       0.893  15.826  20.182  0.00  0.00    +0.000 S 
ATOM     13  O   UNL     1       0.752  16.568  21.417  0.00  0.00    +0.000 OA
ATOM     14  O   UNL     1       2.122  15.119  19.889  0.00  0.00    +0.000 OA
BRANCH  12  15
ATOM     15  C   UNL     1       0.603  16.942  18.840  0.00  0.00    +0.000 A 
ATOM     16  C   UNL     1      -0.658  17.520  18.690  0.00  0.00    +0.000 A 
ATOM     17  C   UNL     1      -0.893  18.350  17.599  0.00  0.00    +0.000 A 
ATOM     18  C   UNL     1       0.124  18.607  16.676  0.00  0.00    +0.000 A 
ATOM     19  C   UNL     1       1.390  18.046  16.845  0.00  0.00    +0.000 A 
ATOM     20  C   UNL     1       1.635  17.208  17.934  0.00  0.00    +0.000 A 
ENDBRANCH  12  15
ENDBRANCH   9  12
BRANCH   1  21
ATOM     21  C   UNL     1       1.749   8.568  19.486  0.00  0.00    +0.000 C 
BRANCH  21  25
ATOM     22  C   UNL     1       2.834   4.414  18.808  0.00  0.00    +0.000 A 
ATOM     23  C   UNL     1       2.326   4.796  20.056  0.00  0.00    +0.000 A 
ATOM     24  C   UNL     1       2.021   6.140  20.326  0.00  0.00    +0.000 A 
ATOM     25  C   UNL     1       2.235   7.130  19.359  0.00  0.00    +0.000 A 
ATOM     26  C   UNL     1       2.781   6.734  18.120  0.00  0.00    +0.000 A 
ATOM     27  C   UNL     1       3.074   5.393  17.843  0.00  0.00    +0.000 A 
BRANCH  22  29
ATOM     28  N   UNL     1       3.268   1.912  18.264  0.00  0.00    +0.000 NA
ATOM     29  C   UNL     1       3.069   3.028  18.500  0.00  0.00    +0.000 C 
ENDBRANCH  22  29
ENDBRANCH  21  25
ENDBRANCH   1  21
TORSDOF 5
ENDMDL
MODEL 2
REMARK VINA RESULT:      -6.7      3.804      5.512
REMARK  Name = 
REMARK  5 active torsions:
REMARK  status: ('A' for Active; 'I' for Inactive)
REMARK    1  A    between atoms: C_2  and  C_3
REMARK    2  A    between atoms: C_6  and  C_7
REMARK    3  A    between atoms: C_7  and  N_8
REMARK    4  A    between atoms: N_16  and  S_17
REMARK    5  A    between atoms: S_17  and  C_20
REMARK                            x       y       z     vdW  Elec       q    Type
REMARK                         _______ _______ _______ _____ _____    ______ ____
ROOT
ATOM      1  N   UNL     1       1.050  11.625  19.430  0.00  0.00    +0.000 NA
ATOM      2  C   UNL     1       0.309  12.665  18.708  0.00  0.00    +0.000 C 
ATOM      3  C   UNL     1      -1.099  12.974  19.242  0.00  0.00    +0.000 C 
ATOM      4  C   UNL     1      -1.240  13.089  20.791  0.00  0.00    +0.000 C 
ATOM      5  C   UNL     1      -0.256  12.126  21.513  0.00  0.00    +0.000 C 
ATOM      6  C   UNL     1       1.119  12.018  20.848  0.00  0.00    +0.000 C 
ATOM      7  C   UNL     1      -0.926  14.539  21.278  0.00  0.00    +0.000 C 
ATOM      8  C   UNL     1      -2.084  15.520  21.160  0.00  0.00    +0.000 C 
ATOM      9  N   UNL     1      -3.324  14.978  21.759  0.00  0.00    +0.000 NA
ATOM     10  C   UNL     1      -3.744  13.764  21.017  0.00  0.00    +0.000 C 
ATOM     11  C   UNL     1      -2.697  12.663  21.167  0.00  0.00    +0.000 C 
ENDROOT
BRANCH   9  12
ATOM     12  S   UNL     1      -3.449  14.840  23.466  0.00  0.00    +0.000 S 
ATOM     13  O   UNL     1      -2.583  13.758  23.885  0.00  0.00    +0.000 OA
ATOM     14  O   UNL     1      -3.309  16.158  24.050  0.00  0.00    +0.000 OA
BRANCH  12  15
ATOM     15  C   UNL     1      -5.123  14.331  23.725  0.00  0.00    +0.000 A 
ATOM     16  C   UNL     1      -5.398  12.991  23.994  0.00  0.00    +0.000 A 
ATOM     17  C   UNL     1      -6.722  12.589  24.139  0.00  0.00    +0.000 A 
ATOM     18  C   UNL     1      -7.757  13.521  24.028  0.00  0.00    +0.000 A 
ATOM     19  C   UNL     1      -7.474  14.866  23.783  0.00  0.00    +0.000 A 
ATOM     20  C   UNL     1      -6.150  15.277  23.632  0.00  0.00    +0.000 A 
ENDBRANCH  12  15
ENDBRANCH   9  12
BRANCH   1  21
ATOM     21  C   UNL     1       0.496  10.261  19.298  0.00  0.00    +0.000 C 
BRANCH  21  25
ATOM     22  C   UNL     1       2.957   6.780  18.452  0.00  0.00    +0.000 A 
ATOM     23  C   UNL     1       2.375   6.918  19.718  0.00  0.00    +0.000 A 
ATOM     24  C   UNL     1       1.623   8.059  20.042  0.00  0.00    +0.000 A 
ATOM     25  C   UNL     1       1.453   9.092  19.111  0.00  0.00    +0.000 A 
ATOM     26  C   UNL     1       2.076   8.954  17.853  0.00  0.00    +0.000 A 
ATOM     27  C   UNL     1       2.817   7.812  17.523  0.00  0.00    +0.000 A 
BRANCH  22  29
ATOM     28  N   UNL     1       4.228   4.608  17.811  0.00  0.00    +0.000 NA
ATOM     29  C   UNL     1       3.658   5.576  18.089  0.00  0.00    +0.000 C 
ENDBRANCH  22  29
ENDBRANCH  21  25
ENDBRANCH   1  21
TORSDOF 5
ENDMDL
MODEL 3
REMARK VINA RESULT:      -6.6      3.844      5.537
REMARK  Name = 
REMARK  5 active torsions:
REMARK  status: ('A' for Active; 'I' for Inactive)
REMARK    1  A    between atoms: C_2  and  C_3
REMARK    2  A    between atoms: C_6  and  C_7
REMARK    3  A    between atoms: C_7  and  N_8
REMARK    4  A    between atoms: N_16  and  S_17
REMARK    5  A    between atoms: S_17  and  C_20
REMARK                            x       y       z     vdW  Elec       q    Type
REMARK                         _______ _______ _______ _____ _____    ______ ____
ROOT
ATOM      1  N   UNL     1       1.227  12.034  19.137  0.00  0.00    +0.000 NA
ATOM      2  C   UNL     1       0.550  13.230  18.625  0.00  0.00    +0.000 C 
ATOM      3  C   UNL     1      -0.874  13.466  19.152  0.00  0.00    +0.000 C 
ATOM      4  C   UNL     1      -1.090  13.253  20.682  0.00  0.00    +0.000 C 
ATOM      5  C   UNL     1      -0.168  12.123  21.221  0.00  0.00    +0.000 C 
ATOM      6  C   UNL     1       1.235  12.111  20.609  0.00  0.00    +0.000 C 
ATOM      7  C   UNL     1      -0.764  14.553  21.483  0.00  0.00    +0.000 C 
ATOM      8  C   UNL     1      -1.889  15.577  21.528  0.00  0.00    +0.000 C 
ATOM      9  N   UNL     1      -3.172  14.963  21.942  0.00  0.00    +0.000 NA
ATOM     10  C   UNL     1      -3.585  13.952  20.939  0.00  0.00    +0.000 C 
ATOM     11  C   UNL     1      -2.574  12.807  20.893  0.00  0.00    +0.000 C 
ENDROOT
BRANCH   9  12
ATOM     12  S   UNL     1      -3.385  14.468  23.573  0.00  0.00    +0.000 S 
ATOM     13  O   UNL     1      -2.736  13.183  23.732  0.00  0.00    +0.000 OA
ATOM     14  O   UNL     1      -3.043  15.573  24.443  0.00  0.00    +0.000 OA
BRANCH  12  15
ATOM     15  C   UNL     1      -5.130  14.218  23.711  0.00  0.00    +0.000 A 
ATOM     16  C   UNL     1      -5.991  15.309  23.587  0.00  0.00    +0.000 A 
ATOM     17  C   UNL     1      -7.358  15.113  23.755  0.00  0.00    +0.000 A 
ATOM     18  C   UNL     1      -7.857  13.838  24.032  0.00  0.00    +0.000 A 
ATOM     19  C   UNL     1      -6.994  12.746  24.131  0.00  0.00    +0.000 A 
ATOM     20  C   UNL     1      -5.622  12.933  23.968  0.00  0.00    +0.000 A 
ENDBRANCH  12  15
ENDBRANCH   9  12
BRANCH   1  21
ATOM     21  C   UNL     1       0.647  10.750  18.691  0.00  0.00    +0.000 C 
BRANCH  21  25
ATOM     22  C   UNL     1       2.584   6.886  19.149  0.00  0.00    +0.000 A 
ATOM     23  C   UNL     1       1.874   7.430  20.226  0.00  0.00    +0.000 A 
ATOM     24  C   UNL     1       1.287   8.702  20.130  0.00  0.00    +0.000 A 
ATOM     25  C   UNL     1       1.413   9.462  18.960  0.00  0.00    +0.000 A 
ATOM     26  C   UNL     1       2.162   8.915  17.898  0.00  0.00    +0.000 A 
ATOM     27  C   UNL     1       2.739   7.642  17.986  0.00  0.00    +0.000 A 
BRANCH  22  29
ATOM     28  N   UNL     1       3.559   4.482  19.269  0.00  0.00    +0.000 NA
ATOM     29  C   UNL     1       3.117   5.551  19.215  0.00  0.00    +0.000 C 
ENDBRANCH  22  29
ENDBRANCH  21  25
ENDBRANCH   1  21
TORSDOF 5
ENDMDL
MODEL 4
REMARK VINA RESULT:      -6.6      3.771      4.973
REMARK  Name = 
REMARK  5 active torsions:
REMARK  status: ('A' for Active; 'I' for Inactive)
REMARK    1  A    between atoms: C_2  and  C_3
REMARK    2  A    between atoms: C_6  and  C_7
REMARK    3  A    between atoms: C_7  and  N_8
REMARK    4  A    between atoms: N_16  and  S_17
REMARK    5  A    between atoms: S_17  and  C_20
REMARK                            x       y       z     vdW  Elec       q    Type
REMARK                         _______ _______ _______ _____ _____    ______ ____
ROOT
ATOM      1  N   UNL     1       1.436  10.906  19.358  0.00  0.00    +0.000 NA
ATOM      2  C   UNL     1       0.913  12.129  18.739  0.00  0.00    +0.000 C 
ATOM      3  C   UNL     1      -0.612  12.307  18.798  0.00  0.00    +0.000 C 
ATOM      4  C   UNL     1      -1.294  11.974  20.161  0.00  0.00    +0.000 C 
ATOM      5  C   UNL     1      -0.551  10.818  20.888  0.00  0.00    +0.000 C 
ATOM      6  C   UNL     1       0.974  10.871  20.757  0.00  0.00    +0.000 C 
ATOM      7  C   UNL     1      -1.287  13.213  21.112  0.00  0.00    +0.000 C 
ATOM      8  C   UNL     1      -2.406  14.216  20.865  0.00  0.00    +0.000 C 
ATOM      9  N   UNL     1      -3.729  13.556  20.804  0.00  0.00    +0.000 NA
ATOM     10  C   UNL     1      -3.765  12.619  19.655  0.00  0.00    +0.000 C 
ATOM     11  C   UNL     1      -2.752  11.495  19.856  0.00  0.00    +0.000 C 
ENDROOT
BRANCH   9  12
ATOM     12  S   UNL     1      -4.431  12.934  22.244  0.00  0.00    +0.000 S 
ATOM     13  O   UNL     1      -5.702  12.337  21.892  0.00  0.00    +0.000 OA
ATOM     14  O   UNL     1      -3.431  12.165  22.953  0.00  0.00    +0.000 OA
BRANCH  12  15
ATOM     15  C   UNL     1      -4.757  14.380  23.210  0.00  0.00    +0.000 A 
ATOM     16  C   UNL     1      -5.968  15.053  23.049  0.00  0.00    +0.000 A 
ATOM     17  C   UNL     1      -6.192  16.221  23.772  0.00  0.00    +0.000 A 
ATOM     18  C   UNL     1      -5.219  16.702  24.651  0.00  0.00    +0.000 A 
ATOM     19  C   UNL     1      -4.019  16.012  24.826  0.00  0.00    +0.000 A 
ATOM     20  C   UNL     1      -3.784  14.842  24.104  0.00  0.00    +0.000 A 
ENDBRANCH  12  15
ENDBRANCH   9  12
BRANCH   1  21
ATOM     21  C   UNL     1       1.074   9.653  18.662  0.00  0.00    +0.000 C 
BRANCH  21  25
ATOM     22  C   UNL     1       3.456   6.018  18.739  0.00  0.00    +0.000 A 
ATOM     23  C   UNL     1       2.648   6.333  19.838  0.00  0.00    +0.000 A 
ATOM     24  C   UNL     1       1.913   7.529  19.870  0.00  0.00    +0.000 A 
ATOM     25  C   UNL     1       1.984   8.440  18.809  0.00  0.00    +0.000 A 
ATOM     26  C   UNL     1       2.830   8.125  17.725  0.00  0.00    +0.000 A 
ATOM     27  C   UNL     1       3.555   6.928  17.685  0.00  0.00    +0.000 A 
BRANCH  22  29
ATOM     28  N   UNL     1       4.704   3.745  18.595  0.00  0.00    +0.000 NA
ATOM     29  C   UNL     1       4.146   4.757  18.667  0.00  0.00    +0.000 C 
ENDBRANCH  22  29
ENDBRANCH  21  25
ENDBRANCH   1  21
TORSDOF 5
ENDMDL
MODEL 5
REMARK VINA RESULT:      -6.6      0.633      1.410
REMARK  Name = 
REMARK  5 active torsions:
REMARK  status: ('A' for Active; 'I' for Inactive)
REMARK    1  A    between atoms: C_2  and  C_3
REMARK    2  A    between atoms: C_6  and  C_7
REMARK    3  A    between atoms: C_7  and  N_8
REMARK    4  A    between atoms: N_16  and  S_17
REMARK    5  A    between atoms: S_17  and  C_20
REMARK                            x       y       z     vdW  Elec       q    Type
REMARK                         _______ _______ _______ _____ _____    ______ ____
ROOT
ATOM      1  N   UNL     1       1.157   9.451  18.286  0.00  0.00    +0.000 NA
ATOM      2  C   UNL     1      -0.220   9.954  18.343  0.00  0.00    +0.000 C 
ATOM      3  C   UNL     1      -0.474  11.089  19.347  0.00  0.00    +0.000 C 
ATOM      4  C   UNL     1       0.591  12.228  19.387  0.00  0.00    +0.000 C 
ATOM      5  C   UNL     1       2.012  11.672  19.085  0.00  0.00    +0.000 C 
ATOM      6  C   UNL     1       2.045  10.592  17.999  0.00  0.00    +0.000 C 
ATOM      7  C   UNL     1       0.278  13.330  18.326  0.00  0.00    +0.000 C 
ATOM      8  C   UNL     1      -0.753  14.362  18.759  0.00  0.00    +0.000 C 
ATOM      9  N   UNL     1      -0.434  14.930  20.089  0.00  0.00    +0.000 NA
ATOM     10  C   UNL     1      -0.481  13.857  21.112  0.00  0.00    +0.000 C 
ATOM     11  C   UNL     1       0.602  12.816  20.837  0.00  0.00    +0.000 C 
ENDROOT
BRANCH   9  12
ATOM     12  S   UNL     1       0.896  16.004  20.252  0.00  0.00    +0.000 S 
ATOM     13  O   UNL     1       0.625  16.875  21.376  0.00  0.00    +0.000 OA
ATOM     14  O   UNL     1       2.123  15.236  20.200  0.00  0.00    +0.000 OA
BRANCH  12  15
ATOM     15  C   UNL     1       0.832  16.979  18.777  0.00  0.00    +0.000 A 
ATOM     16  C   UNL     1       1.925  16.984  17.911  0.00  0.00    +0.000 A 
ATOM     17  C   UNL     1       1.888  17.799  16.783  0.00  0.00    +0.000 A 
ATOM     18  C   UNL     1       0.767  18.590  16.522  0.00  0.00    +0.000 A 
ATOM     19  C   UNL     1      -0.333  18.563  17.380  0.00  0.00    +0.000 A 
ATOM     20  C   UNL     1      -0.305  17.752  18.515  0.00  0.00    +0.000 A 
ENDBRANCH  12  15
ENDBRANCH   9  12
BRANCH   1  21
ATOM     21  C   UNL     1       1.610   8.736  19.497  0.00  0.00    +0.000 C 
BRANCH  21  25
ATOM     22  C   UNL     1       3.453   4.800  19.449  0.00  0.00    +0.000 A 
ATOM     23  C   UNL     1       3.680   5.677  18.382  0.00  0.00    +0.000 A 
ATOM     24  C   UNL     1       3.052   6.933  18.339  0.00  0.00    +0.000 A 
ATOM     25  C   UNL     1       2.173   7.328  19.354  0.00  0.00    +0.000 A 
ATOM     26  C   UNL     1       1.927   6.418  20.403  0.00  0.00    +0.000 A 
ATOM     27  C   UNL     1       2.560   5.170  20.456  0.00  0.00    +0.000 A 
BRANCH  22  29
ATOM     28  N   UNL     1       4.730   2.545  19.621  0.00  0.00    +0.000 NA
ATOM     29  C   UNL     1       4.157   3.547  19.537  0.00  0.00    +0.000 C 
ENDBRANCH  22  29
ENDBRANCH  21  25
ENDBRANCH   1  21
TORSDOF 5
ENDMDL
MODEL 6
REMARK VINA RESULT:      -6.5      3.128      4.337
REMARK  Name = 
REMARK  5 active torsions:
REMARK  status: ('A' for Active; 'I' for Inactive)
REMARK    1  A    between atoms: C_2  and  C_3
REMARK    2  A    between atoms: C_6  and  C_7
REMARK    3  A    between atoms: C_7  and  N_8
REMARK    4  A    between atoms: N_16  and  S_17
REMARK    5  A    between atoms: S_17  and  C_20
REMARK                            x       y       z     vdW  Elec       q    Type
REMARK                         _______ _______ _______ _____ _____    ______ ____
ROOT
ATOM      1  N   UNL     1       0.865  10.054  18.535  0.00  0.00    +0.000 NA
ATOM      2  C   UNL     1      -0.581  10.261  18.402  0.00  0.00    +0.000 C 
ATOM      3  C   UNL     1      -1.306  10.734  19.672  0.00  0.00    +0.000 C 
ATOM      4  C   UNL     1      -0.603  11.860  20.491  0.00  0.00    +0.000 C 
ATOM      5  C   UNL     1       0.944  11.728  20.403  0.00  0.00    +0.000 C 
ATOM      6  C   UNL     1       1.461  11.310  19.023  0.00  0.00    +0.000 C 
ATOM      7  C   UNL     1      -0.989  13.274  19.953  0.00  0.00    +0.000 C 
ATOM      8  C   UNL     1      -2.317  13.813  20.466  0.00  0.00    +0.000 C 
ATOM      9  N   UNL     1      -2.412  13.723  21.941  0.00  0.00    +0.000 NA
ATOM     10  C   UNL     1      -2.366  12.300  22.355  0.00  0.00    +0.000 C 
ATOM     11  C   UNL     1      -1.017  11.685  21.989  0.00  0.00    +0.000 C 
ENDROOT
BRANCH   9  12
ATOM     12  S   UNL     1      -1.463  14.773  22.914  0.00  0.00    +0.000 S 
ATOM     13  O   UNL     1      -0.787  13.964  23.906  0.00  0.00    +0.000 OA
ATOM     14  O   UNL     1      -0.706  15.653  22.048  0.00  0.00    +0.000 OA
BRANCH  12  15
ATOM     15  C   UNL     1      -2.663  15.771  23.748  0.00  0.00    +0.000 A 
ATOM     16  C   UNL     1      -2.234  16.794  24.594  0.00  0.00    +0.000 A 
ATOM     17  C   UNL     1      -3.183  17.535  25.291  0.00  0.00    +0.000 A 
ATOM     18  C   UNL     1      -4.544  17.263  25.133  0.00  0.00    +0.000 A 
ATOM     19  C   UNL     1      -4.968  16.254  24.267  0.00  0.00    +0.000 A 
ATOM     20  C   UNL     1      -4.024  15.502  23.567  0.00  0.00    +0.000 A 
ENDBRANCH  12  15
ENDBRANCH   9  12
BRANCH   1  21
ATOM     21  C   UNL     1       1.255   8.925  19.405  0.00  0.00    +0.000 C 
BRANCH  21  25
ATOM     22  C   UNL     1       4.239   6.004  18.200  0.00  0.00    +0.000 A 
ATOM     23  C   UNL     1       3.984   7.105  17.374  0.00  0.00    +0.000 A 
ATOM     24  C   UNL     1       2.985   8.035  17.706  0.00  0.00    +0.000 A 
ATOM     25  C   UNL     1       2.211   7.872  18.861  0.00  0.00    +0.000 A 
ATOM     26  C   UNL     1       2.456   6.738  19.664  0.00  0.00    +0.000 A 
ATOM     27  C   UNL     1       3.459   5.815  19.342  0.00  0.00    +0.000 A 
BRANCH  22  29
ATOM     28  N   UNL     1       6.190   4.376  17.665  0.00  0.00    +0.000 NA
ATOM     29  C   UNL     1       5.316   5.095  17.906  0.00  0.00    +0.000 C 
ENDBRANCH  22  29
ENDBRANCH  21  25
ENDBRANCH   1  21
TORSDOF 5
ENDMDL
MODEL 7
REMARK VINA RESULT:      -6.4      2.095      2.606
REMARK  Name = 
REMARK  5 active torsions:
REMARK  status: ('A' for Active; 'I' for Inactive)
REMARK    1  A    between atoms: C_2  and  C_3
REMARK    2  A    between atoms: C_6  and  C_7
REMARK    3  A    between atoms: C_7  and  N_8
REMARK    4  A    between atoms: N_16  and  S_17
REMARK    5  A    between atoms: S_17  and  C_20
REMARK                            x       y       z     vdW  Elec       q    Type
REMARK                         _______ _______ _______ _____ _____    ______ ____
ROOT
ATOM      1  N   UNL     1      -0.050   8.756  21.197  0.00  0.00    +0.000 NA
ATOM      2  C   UNL     1      -0.418   9.689  22.268  0.00  0.00    +0.000 C 
ATOM      3  C   UNL     1       0.177  11.101  22.155  0.00  0.00    +0.000 C 
ATOM      4  C   UNL     1       0.142  11.755  20.739  0.00  0.00    +0.000 C 
ATOM      5  C   UNL     1       0.303  10.681  19.626  0.00  0.00    +0.000 C 
ATOM      6  C   UNL     1      -0.430   9.367  19.911  0.00  0.00    +0.000 C 
ATOM      7  C   UNL     1      -1.211  12.493  20.493  0.00  0.00    +0.000 C 
ATOM      8  C   UNL     1      -1.291  13.897  21.076  0.00  0.00    +0.000 C 
ATOM      9  N   UNL     1      -0.120  14.717  20.692  0.00  0.00    +0.000 NA
ATOM     10  C   UNL     1       1.114  14.115  21.252  0.00  0.00    +0.000 C 
ATOM     11  C   UNL     1       1.356  12.737  20.641  0.00  0.00    +0.000 C 
ENDROOT
BRANCH   9  12
ATOM     12  S   UNL     1       0.034  15.262  19.070  0.00  0.00    +0.000 S 
ATOM     13  O   UNL     1      -0.219  14.134  18.200  0.00  0.00    +0.000 OA
ATOM     14  O   UNL     1      -0.721  16.488  18.918  0.00  0.00    +0.000 OA
BRANCH  12  15
ATOM     15  C   UNL     1       1.746  15.686  18.931  0.00  0.00    +0.000 A 
ATOM     16  C   UNL     1       2.246  16.766  19.658  0.00  0.00    +0.000 A 
ATOM     17  C   UNL     1       3.580  17.128  19.498  0.00  0.00    +0.000 A 
ATOM     18  C   UNL     1       4.405  16.409  18.629  0.00  0.00    +0.000 A 
ATOM     19  C   UNL     1       3.906  15.315  17.923  0.00  0.00    +0.000 A 
ATOM     20  C   UNL     1       2.569  14.946  18.074  0.00  0.00    +0.000 A 
ENDBRANCH  12  15
ENDBRANCH   9  12
BRANCH   1  21
ATOM     21  C   UNL     1       1.373   8.359  21.179  0.00  0.00    +0.000 C 
BRANCH  21  25
ATOM     22  C   UNL     1       2.240   4.895  18.702  0.00  0.00    +0.000 A 
ATOM     23  C   UNL     1       1.698   4.707  19.978  0.00  0.00    +0.000 A 
ATOM     24  C   UNL     1       1.462   5.801  20.826  0.00  0.00    +0.000 A 
ATOM     25  C   UNL     1       1.779   7.103  20.419  0.00  0.00    +0.000 A 
ATOM     26  C   UNL     1       2.358   7.271  19.144  0.00  0.00    +0.000 A 
ATOM     27  C   UNL     1       2.584   6.184  18.291  0.00  0.00    +0.000 A 
BRANCH  22  29
ATOM     28  N   UNL     1       2.532   2.899  17.065  0.00  0.00    +0.000 NA
ATOM     29  C   UNL     1       2.407   3.785  17.800  0.00  0.00    +0.000 C 
ENDBRANCH  22  29
ENDBRANCH  21  25
ENDBRANCH   1  21
TORSDOF 5
ENDMDL
MODEL 8
REMARK VINA RESULT:      -6.4      3.283      4.408
REMARK  Name = 
REMARK  5 active torsions:
REMARK  status: ('A' for Active; 'I' for Inactive)
REMARK    1  A    between atoms: C_2  and  C_3
REMARK    2  A    between atoms: C_6  and  C_7
REMARK    3  A    between atoms: C_7  and  N_8
REMARK    4  A    between atoms: N_16  and  S_17
REMARK    5  A    between atoms: S_17  and  C_20
REMARK                            x       y       z     vdW  Elec       q    Type
REMARK                         _______ _______ _______ _____ _____    ______ ____
ROOT
ATOM      1  N   UNL     1       0.750  10.483  18.920  0.00  0.00    +0.000 NA
ATOM      2  C   UNL     1      -0.698  10.686  18.805  0.00  0.00    +0.000 C 
ATOM      3  C   UNL     1      -1.408  11.168  20.080  0.00  0.00    +0.000 C 
ATOM      4  C   UNL     1      -0.697  12.302  20.880  0.00  0.00    +0.000 C 
ATOM      5  C   UNL     1       0.849  12.174  20.772  0.00  0.00    +0.000 C 
ATOM      6  C   UNL     1       1.349  11.745  19.390  0.00  0.00    +0.000 C 
ATOM      7  C   UNL     1      -1.094  13.711  20.334  0.00  0.00    +0.000 C 
ATOM      8  C   UNL     1      -2.416  14.252  20.860  0.00  0.00    +0.000 C 
ATOM      9  N   UNL     1      -2.491  14.175  22.336  0.00  0.00    +0.000 NA
ATOM     10  C   UNL     1      -2.436  12.755  22.763  0.00  0.00    +0.000 C 
ATOM     11  C   UNL     1      -1.091  12.140  22.384  0.00  0.00    +0.000 C 
ENDROOT
BRANCH   9  12
ATOM     12  S   UNL     1      -1.532  15.235  23.288  0.00  0.00    +0.000 S 
ATOM     13  O   UNL     1      -0.852  14.438  24.286  0.00  0.00    +0.000 OA
ATOM     14  O   UNL     1      -0.780  16.101  22.404  0.00  0.00    +0.000 OA
BRANCH  12  15
ATOM     15  C   UNL     1      -2.723  16.248  24.117  0.00  0.00    +0.000 A 
ATOM     16  C   UNL     1      -4.072  15.898  24.068  0.00  0.00    +0.000 A 
ATOM     17  C   UNL     1      -5.008  16.731  24.674  0.00  0.00    +0.000 A 
ATOM     18  C   UNL     1      -4.595  17.893  25.329  0.00  0.00    +0.000 A 
ATOM     19  C   UNL     1      -3.242  18.225  25.396  0.00  0.00    +0.000 A 
ATOM     20  C   UNL     1      -2.296  17.398  24.789  0.00  0.00    +0.000 A 
ENDBRANCH  12  15
ENDBRANCH   9  12
BRANCH   1  21
ATOM     21  C   UNL     1       1.154   9.363  19.795  0.00  0.00    +0.000 C 
BRANCH  21  25
ATOM     22  C   UNL     1       3.679   6.110  18.402  0.00  0.00    +0.000 A 
ATOM     23  C   UNL     1       3.489   7.231  17.585  0.00  0.00    +0.000 A 
ATOM     24  C   UNL     1       2.633   8.271  17.979  0.00  0.00    +0.000 A 
ATOM     25  C   UNL     1       1.937   8.204  19.193  0.00  0.00    +0.000 A 
ATOM     26  C   UNL     1       2.112   7.052  19.989  0.00  0.00    +0.000 A 
ATOM     27  C   UNL     1       2.974   6.018  19.604  0.00  0.00    +0.000 A 
BRANCH  22  29
ATOM     28  N   UNL     1       5.362   4.248  17.738  0.00  0.00    +0.000 NA
ATOM     29  C   UNL     1       4.618   5.082  18.039  0.00  0.00    +0.000 C 
ENDBRANCH  22  29
ENDBRANCH  21  25
ENDBRANCH   1  21
TORSDOF 5
ENDMDL
MODEL 9
REMARK VINA RESULT:      -6.3      3.079      4.271
REMARK  Name = 
REMARK  5 active torsions:
REMARK  status: ('A' for Active; 'I' for Inactive)
REMARK    1  A    between atoms: C_2  and  C_3
REMARK    2  A    between atoms: C_6  and  C_7
REMARK    3  A    between atoms: C_7  and  N_8
REMARK    4  A    between atoms: N_16  and  S_17
REMARK    5  A    between atoms: S_17  and  C_20
REMARK                            x       y       z     vdW  Elec       q    Type
REMARK                         _______ _______ _______ _____ _____    ______ ____
ROOT
ATOM      1  N   UNL     1       1.198  10.211  18.386  0.00  0.00    +0.000 NA
ATOM      2  C   UNL     1      -0.227   9.918  18.574  0.00  0.00    +0.000 C 
ATOM      3  C   UNL     1      -0.816  10.317  19.937  0.00  0.00    +0.000 C 
ATOM      4  C   UNL     1      -0.405  11.719  20.483  0.00  0.00    +0.000 C 
ATOM      5  C   UNL     1       1.044  12.082  20.052  0.00  0.00    +0.000 C 
ATOM      6  C   UNL     1       1.402  11.651  18.627  0.00  0.00    +0.000 C 
ATOM      7  C   UNL     1      -1.354  12.835  19.941  0.00  0.00    +0.000 C 
ATOM      8  C   UNL     1      -2.663  12.988  20.703  0.00  0.00    +0.000 C 
ATOM      9  N   UNL     1      -2.438  13.095  22.162  0.00  0.00    +0.000 NA
ATOM     10  C   UNL     1      -1.823  11.842  22.663  0.00  0.00    +0.000 C 
ATOM     11  C   UNL     1      -0.440  11.647  22.045  0.00  0.00    +0.000 C 
ENDROOT
BRANCH   9  12
ATOM     12  S   UNL     1      -1.747  14.528  22.808  0.00  0.00    +0.000 S 
ATOM     13  O   UNL     1      -0.890  14.146  23.911  0.00  0.00    +0.000 OA
ATOM     14  O   UNL     1      -1.226  15.326  21.718  0.00  0.00    +0.000 OA
BRANCH  12  15
ATOM     15  C   UNL     1      -3.135  15.401  23.473  0.00  0.00    +0.000 A 
ATOM     16  C   UNL     1      -2.925  16.390  24.434  0.00  0.00    +0.000 A 
ATOM     17  C   UNL     1      -4.027  17.031  24.994  0.00  0.00    +0.000 A 
ATOM     18  C   UNL     1      -5.320  16.693  24.587  0.00  0.00    +0.000 A 
ATOM     19  C   UNL     1      -5.521  15.721  23.607  0.00  0.00    +0.000 A 
ATOM     20  C   UNL     1      -4.424  15.070  23.043  0.00  0.00    +0.000 A 
ENDBRANCH  12  15
ENDBRANCH   9  12
BRANCH   1  21
ATOM     21  C   UNL     1       2.114   9.412  19.228  0.00  0.00    +0.000 C 
BRANCH  21  25
ATOM     22  C   UNL     1       2.205   5.068  19.353  0.00  0.00    +0.000 A 
ATOM     23  C   UNL     1       2.450   5.726  18.141  0.00  0.00    +0.000 A 
ATOM     24  C   UNL     1       2.369   7.125  18.054  0.00  0.00    +0.000 A 
ATOM     25  C   UNL     1       2.027   7.893  19.174  0.00  0.00    +0.000 A 
ATOM     26  C   UNL     1       1.749   7.213  20.379  0.00  0.00    +0.000 A 
ATOM     27  C   UNL     1       1.839   5.819  20.472  0.00  0.00    +0.000 A 
BRANCH  22  29
ATOM     28  N   UNL     1       2.500   2.497  19.570  0.00  0.00    +0.000 NA
ATOM     29  C   UNL     1       2.367   3.643  19.465  0.00  0.00    +0.000 C 
ENDBRANCH  22  29
ENDBRANCH  21  25
ENDBRANCH   1  21
TORSDOF 5
ENDMDL
