MODEL 1
REMARK VINA RESULT:      -7.6      0.000      0.000
REMARK  Name = 
REMARK  9 active torsions:
REMARK  status: ('A' for Active; 'I' for Inactive)
REMARK    1  A    between atoms: C_1  and  C_2
REMARK    2  A    between atoms: C_2  and  C_3
REMARK    3  A    between atoms: C_2  and  C_4
REMARK    4  A    between atoms: C_4  and  N_5
REMARK    5  A    between atoms: C_6  and  C_8
REMARK    6  A    between atoms: C_8  and  C_9
REMARK    7  A    between atoms: C_9  and  C_10
REMARK    8  A    between atoms: C_10  and  C_11
REMARK    9  A    between atoms: C_11  and  C_12
REMARK                            x       y       z     vdW  Elec       q    Type
REMARK                         _______ _______ _______ _____ _____    ______ ____
ROOT
ATOM      1  C   UNL     1       5.475   5.651  17.562  0.00  0.00    +0.000 C 
ENDROOT
BRANCH   1   2
ATOM      2  C   UNL     1       6.713   5.892  16.702  0.00  0.00    +0.000 C 
BRANCH   2   3
ATOM      3  C   UNL     1       7.238   4.605  16.064  0.00  0.00    +0.000 C 
BRANCH   3   5
ATOM      4  N   UNL     1       6.443   3.739  13.955  0.00  0.00    +0.000 N 
ATOM      5  C   UNL     1       7.204   4.701  14.563  0.00  0.00    +0.000 C 
ATOM      6  O   UNL     1       7.818   5.568  13.941  0.00  0.00    +0.000 OA
ATOM      7  H   UNL     1       6.012   3.008  14.509  0.00  0.00    +0.000 HD
BRANCH   4   8
ATOM      8  C   UNL     1       6.326   3.698  12.509  0.00  0.00    +0.000 C 
BRANCH   8  10
ATOM      9  C   UNL     1       4.228   3.183  11.212  0.00  0.00    +0.000 C 
ATOM     10  C   UNL     1       5.384   2.588  12.017  0.00  0.00    +0.000 C 
ATOM     11  C   UNL     1       6.148   1.580  11.154  0.00  0.00    +0.000 C 
ENDBRANCH   8  10
ENDBRANCH   4   8
ENDBRANCH   3   5
ENDBRANCH   2   3
ENDBRANCH   1   2
BRANCH   1  12
ATOM     12  C   UNL     1       4.548   4.595  16.958  0.00  0.00    +0.000 C 
BRANCH  12  13
ATOM     13  C   UNL     1       3.497   4.121  17.926  0.00  0.00    +0.000 A 
ATOM     14  C   UNL     1       2.137   4.139  17.547  0.00  0.00    +0.000 A 
ATOM     15  C   UNL     1       1.139   3.710  18.425  0.00  0.00    +0.000 A 
ATOM     16  C   UNL     1       1.529   3.273  19.674  0.00  0.00    +0.000 A 
ATOM     17  C   UNL     1       2.848   3.249  20.049  0.00  0.00    +0.000 A 
ATOM     18  C   UNL     1       3.856   3.658  19.201  0.00  0.00    +0.000 A 
ATOM     19  O   UNL     1       3.024   2.789  21.317  0.00  0.00    +0.000 OA
ATOM     20  C   UNL     1       1.653   2.587  21.717  0.00  0.00    +0.000 C 
ATOM     21  O   UNL     1       0.702   2.827  20.658  0.00  0.00    +0.000 OA
ENDBRANCH  12  13
ENDBRANCH   1  12
TORSDOF 7
ENDMDL
MODEL 2
REMARK VINA RESULT:      -7.3      1.606      2.017
REMARK  Name = 
REMARK  9 active torsions:
REMARK  status: ('A' for Active; 'I' for Inactive)
REMARK    1  A    between atoms: C_1  and  C_2
REMARK    2  A    between atoms: C_2  and  C_3
REMARK    3  A    between atoms: C_2  and  C_4
REMARK    4  A    between atoms: C_4  and  N_5
REMARK    5  A    between atoms: C_6  and  C_8
REMARK    6  A    between atoms: C_8  and  C_9
REMARK    7  A    between atoms: C_9  and  C_10
REMARK    8  A    between atoms: C_10  and  C_11
REMARK    9  A    between atoms: C_11  and  C_12
REMARK                            x       y       z     vdW  Elec       q    Type
REMARK                         _______ _______ _______ _____ _____    ______ ____
ROOT
ATOM      1  C   UNL     1       4.637   7.241  17.406  0.00  0.00    +0.000 C 
ENDROOT
BRANCH   1   2
ATOM      2  C   UNL     1       4.988   6.641  16.047  0.00  0.00    +0.000 C 
BRANCH   2   3
ATOM      3  C   UNL     1       5.431   5.182  16.151  0.00  0.00    +0.000 C 
BRANCH   3   5
ATOM      4  N   UNL     1       5.639   4.160  13.973  0.00  0.00    +0.000 N 
ATOM      5  C   UNL     1       6.301   4.803  14.984  0.00  0.00    +0.000 C 
ATOM      6  O   UNL     1       7.507   5.046  14.951  0.00  0.00    +0.000 OA
ATOM      7  H   UNL     1       4.658   3.925  14.079  0.00  0.00    +0.000 HD
BRANCH   4   8
ATOM      8  C   UNL     1       6.350   3.724  12.787  0.00  0.00    +0.000 C 
BRANCH   8  10
ATOM      9  C   UNL     1       4.379   3.128  11.334  0.00  0.00    +0.000 C 
ATOM     10  C   UNL     1       5.626   2.593  12.038  0.00  0.00    +0.000 C 
ATOM     11  C   UNL     1       6.560   1.946  11.012  0.00  0.00    +0.000 C 
ENDBRANCH   8  10
ENDBRANCH   4   8
ENDBRANCH   3   5
ENDBRANCH   2   3
ENDBRANCH   1   2
BRANCH   1  12
ATOM     12  C   UNL     1       3.127   7.375  17.606  0.00  0.00    +0.000 C 
BRANCH  12  13
ATOM     13  C   UNL     1       2.540   6.232  18.390  0.00  0.00    +0.000 A 
ATOM     14  C   UNL     1       2.409   6.338  19.791  0.00  0.00    +0.000 A 
ATOM     15  C   UNL     1       1.873   5.292  20.546  0.00  0.00    +0.000 A 
ATOM     16  C   UNL     1       1.482   4.153  19.874  0.00  0.00    +0.000 A 
ATOM     17  C   UNL     1       1.603   4.042  18.513  0.00  0.00    +0.000 A 
ATOM     18  C   UNL     1       2.121   5.060  17.741  0.00  0.00    +0.000 A 
ATOM     19  O   UNL     1       1.166   2.842  18.045  0.00  0.00    +0.000 OA
ATOM     20  C   UNL     1       0.815   2.187  19.281  0.00  0.00    +0.000 C 
ATOM     21  O   UNL     1       0.948   3.037  20.440  0.00  0.00    +0.000 OA
ENDBRANCH  12  13
ENDBRANCH   1  12
TORSDOF 7
ENDMDL
MODEL 3
REMARK VINA RESULT:      -7.2      1.423      1.736
REMARK  Name = 
REMARK  9 active torsions:
REMARK  status: ('A' for Active; 'I' for Inactive)
REMARK    1  A    between atoms: C_1  and  C_2
REMARK    2  A    between atoms: C_2  and  C_3
REMARK    3  A    between atoms: C_2  and  C_4
REMARK    4  A    between atoms: C_4  and  N_5
REMARK    5  A    between atoms: C_6  and  C_8
REMARK    6  A    between atoms: C_8  and  C_9
REMARK    7  A    between atoms: C_9  and  C_10
REMARK    8  A    between atoms: C_10  and  C_11
REMARK    9  A    between atoms: C_11  and  C_12
REMARK                            x       y       z     vdW  Elec       q    Type
REMARK                         _______ _______ _______ _____ _____    ______ ____
ROOT
ATOM      1  C   UNL     1       7.286   4.958  17.986  0.00  0.00    +0.000 C 
ENDROOT
BRANCH   1   2
ATOM      2  C   UNL     1       6.583   4.455  16.727  0.00  0.00    +0.000 C 
BRANCH   2   3
ATOM      3  C   UNL     1       6.453   5.542  15.660  0.00  0.00    +0.000 C 
BRANCH   3   5
ATOM      4  N   UNL     1       6.137   4.112  13.739  0.00  0.00    +0.000 N 
ATOM      5  C   UNL     1       6.948   5.044  14.329  0.00  0.00    +0.000 C 
ATOM      6  O   UNL     1       7.999   5.439  13.824  0.00  0.00    +0.000 OA
ATOM      7  H   UNL     1       5.316   3.772  14.229  0.00  0.00    +0.000 HD
BRANCH   4   8
ATOM      8  C   UNL     1       6.492   3.532  12.458  0.00  0.00    +0.000 C 
BRANCH   8  10
ATOM      9  C   UNL     1       4.307   3.154  11.261  0.00  0.00    +0.000 C 
ATOM     10  C   UNL     1       5.479   2.481  11.976  0.00  0.00    +0.000 C 
ATOM     11  C   UNL     1       6.152   1.480  11.034  0.00  0.00    +0.000 C 
ENDBRANCH   8  10
ENDBRANCH   4   8
ENDBRANCH   3   5
ENDBRANCH   2   3
ENDBRANCH   1   2
BRANCH   1  12
ATOM     12  C   UNL     1       6.294   5.380  19.072  0.00  0.00    +0.000 C 
BRANCH  12  13
ATOM     13  C   UNL     1       4.894   4.901  18.798  0.00  0.00    +0.000 A 
ATOM     14  C   UNL     1       3.934   5.801  18.287  0.00  0.00    +0.000 A 
ATOM     15  C   UNL     1       2.625   5.388  18.027  0.00  0.00    +0.000 A 
ATOM     16  C   UNL     1       2.305   4.073  18.290  0.00  0.00    +0.000 A 
ATOM     17  C   UNL     1       3.231   3.190  18.783  0.00  0.00    +0.000 A 
ATOM     18  C   UNL     1       4.532   3.567  19.042  0.00  0.00    +0.000 A 
ATOM     19  O   UNL     1       2.718   1.946  18.978  0.00  0.00    +0.000 OA
ATOM     20  C   UNL     1       1.342   2.167  18.609  0.00  0.00    +0.000 C 
ATOM     21  O   UNL     1       1.086   3.496  18.107  0.00  0.00    +0.000 OA
ENDBRANCH  12  13
ENDBRANCH   1  12
TORSDOF 7
ENDMDL
MODEL 4
REMARK VINA RESULT:      -7.1      1.163      1.319
REMARK  Name = 
REMARK  9 active torsions:
REMARK  status: ('A' for Active; 'I' for Inactive)
REMARK    1  A    between atoms: C_1  and  C_2
REMARK    2  A    between atoms: C_2  and  C_3
REMARK    3  A    between atoms: C_2  and  C_4
REMARK    4  A    between atoms: C_4  and  N_5
REMARK    5  A    between atoms: C_6  and  C_8
REMARK    6  A    between atoms: C_8  and  C_9
REMARK    7  A    between atoms: C_9  and  C_10
REMARK    8  A    between atoms: C_10  and  C_11
REMARK    9  A    between atoms: C_11  and  C_12
REMARK                            x       y       z     vdW  Elec       q    Type
REMARK                         _______ _______ _______ _____ _____    ______ ____
ROOT
ATOM      1  C   UNL     1       4.607   5.490  16.575  0.00  0.00    +0.000 C 
ENDROOT
BRANCH   1   2
ATOM      2  C   UNL     1       5.731   4.504  16.265  0.00  0.00    +0.000 C 
BRANCH   2   3
ATOM      3  C   UNL     1       6.996   5.201  15.763  0.00  0.00    +0.000 C 
BRANCH   3   5
ATOM      4  N   UNL     1       6.369   3.996  13.767  0.00  0.00    +0.000 N 
ATOM      5  C   UNL     1       7.191   4.956  14.291  0.00  0.00    +0.000 C 
ATOM      6  O   UNL     1       8.027   5.564  13.624  0.00  0.00    +0.000 OA
ATOM      7  H   UNL     1       5.743   3.477  14.373  0.00  0.00    +0.000 HD
BRANCH   4   8
ATOM      8  C   UNL     1       6.451   3.643  12.362  0.00  0.00    +0.000 C 
BRANCH   8  10
ATOM      9  C   UNL     1       4.268   3.191  11.187  0.00  0.00    +0.000 C 
ATOM     10  C   UNL     1       5.433   2.565  11.955  0.00  0.00    +0.000 C 
ATOM     11  C   UNL     1       6.103   1.492  11.093  0.00  0.00    +0.000 C 
ENDBRANCH   8  10
ENDBRANCH   4   8
ENDBRANCH   3   5
ENDBRANCH   2   3
ENDBRANCH   1   2
BRANCH   1  12
ATOM     12  C   UNL     1       4.731   6.084  17.979  0.00  0.00    +0.000 C 
BRANCH  12  13
ATOM     13  C   UNL     1       3.789   5.446  18.965  0.00  0.00    +0.000 A 
ATOM     14  C   UNL     1       2.748   6.211  19.534  0.00  0.00    +0.000 A 
ATOM     15  C   UNL     1       1.860   5.648  20.455  0.00  0.00    +0.000 A 
ATOM     16  C   UNL     1       2.042   4.323  20.790  0.00  0.00    +0.000 A 
ATOM     17  C   UNL     1       3.048   3.571  20.240  0.00  0.00    +0.000 A 
ATOM     18  C   UNL     1       3.934   4.097  19.323  0.00  0.00    +0.000 A 
ATOM     19  O   UNL     1       3.060   2.292  20.703  0.00  0.00    +0.000 OA
ATOM     20  C   UNL     1       1.979   2.346  21.657  0.00  0.00    +0.000 C 
ATOM     21  O   UNL     1       1.285   3.611  21.669  0.00  0.00    +0.000 OA
ENDBRANCH  12  13
ENDBRANCH   1  12
TORSDOF 7
ENDMDL
MODEL 5
REMARK VINA RESULT:      -7.0      3.411      3.845
REMARK  Name = 
REMARK  9 active torsions:
REMARK  status: ('A' for Active; 'I' for Inactive)
REMARK    1  A    between atoms: C_1  and  C_2
REMARK    2  A    between atoms: C_2  and  C_3
REMARK    3  A    between atoms: C_2  and  C_4
REMARK    4  A    between atoms: C_4  and  N_5
REMARK    5  A    between atoms: C_6  and  C_8
REMARK    6  A    between atoms: C_8  and  C_9
REMARK    7  A    between atoms: C_9  and  C_10
REMARK    8  A    between atoms: C_10  and  C_11
REMARK    9  A    between atoms: C_11  and  C_12
REMARK                            x       y       z     vdW  Elec       q    Type
REMARK                         _______ _______ _______ _____ _____    ______ ____
ROOT
ATOM      1  C   UNL     1       4.558   5.275  16.726  0.00  0.00    +0.000 C 
ENDROOT
BRANCH   1   2
ATOM      2  C   UNL     1       6.049   5.506  16.967  0.00  0.00    +0.000 C 
BRANCH   2   3
ATOM      3  C   UNL     1       6.917   4.423  16.326  0.00  0.00    +0.000 C 
BRANCH   3   5
ATOM      4  N   UNL     1       6.374   3.639  14.108  0.00  0.00    +0.000 N 
ATOM      5  C   UNL     1       6.997   4.616  14.836  0.00  0.00    +0.000 C 
ATOM      6  O   UNL     1       7.582   5.569  14.323  0.00  0.00    +0.000 OA
ATOM      7  H   UNL     1       5.963   2.840  14.578  0.00  0.00    +0.000 HD
BRANCH   4   8
ATOM      8  C   UNL     1       6.378   3.685  12.658  0.00  0.00    +0.000 C 
BRANCH   8  10
ATOM      9  C   UNL     1       4.327   3.175  11.287  0.00  0.00    +0.000 C 
ATOM     10  C   UNL     1       5.526   2.575  12.022  0.00  0.00    +0.000 C 
ATOM     11  C   UNL     1       6.367   1.745  11.048  0.00  0.00    +0.000 C 
ENDBRANCH   8  10
ENDBRANCH   4   8
ENDBRANCH   3   5
ENDBRANCH   2   3
ENDBRANCH   1   2
BRANCH   1  12
ATOM     12  C   UNL     1       3.792   5.040  18.029  0.00  0.00    +0.000 C 
BRANCH  12  13
ATOM     13  C   UNL     1       3.074   6.272  18.511  0.00  0.00    +0.000 A 
ATOM     14  C   UNL     1       2.507   6.291  19.804  0.00  0.00    +0.000 A 
ATOM     15  C   UNL     1       1.830   7.418  20.278  0.00  0.00    +0.000 A 
ATOM     16  C   UNL     1       1.732   8.506  19.436  0.00  0.00    +0.000 A 
ATOM     17  C   UNL     1       2.282   8.498  18.180  0.00  0.00    +0.000 A 
ATOM     18  C   UNL     1       2.963   7.404  17.689  0.00  0.00    +0.000 A 
ATOM     19  O   UNL     1       2.073   9.662  17.509  0.00  0.00    +0.000 OA
ATOM     20  C   UNL     1       1.272  10.381  18.469  0.00  0.00    +0.000 C 
ATOM     21  O   UNL     1       1.108   9.681  19.721  0.00  0.00    +0.000 OA
ENDBRANCH  12  13
ENDBRANCH   1  12
TORSDOF 7
ENDMDL
MODEL 6
REMARK VINA RESULT:      -7.0      6.109      9.464
REMARK  Name = 
REMARK  9 active torsions:
REMARK  status: ('A' for Active; 'I' for Inactive)
REMARK    1  A    between atoms: C_1  and  C_2
REMARK    2  A    between atoms: C_2  and  C_3
REMARK    3  A    between atoms: C_2  and  C_4
REMARK    4  A    between atoms: C_4  and  N_5
REMARK    5  A    between atoms: C_6  and  C_8
REMARK    6  A    between atoms: C_8  and  C_9
REMARK    7  A    between atoms: C_9  and  C_10
REMARK    8  A    between atoms: C_10  and  C_11
REMARK    9  A    between atoms: C_11  and  C_12
REMARK                            x       y       z     vdW  Elec       q    Type
REMARK                         _______ _______ _______ _____ _____    ______ ____
ROOT
ATOM      1  C   UNL     1       8.116   9.176  17.743  0.00  0.00    +0.000 C 
ENDROOT
BRANCH   1   2
ATOM      2  C   UNL     1       7.527   7.775  17.592  0.00  0.00    +0.000 C 
BRANCH   2   3
ATOM      3  C   UNL     1       8.068   6.801  18.639  0.00  0.00    +0.000 C 
BRANCH   3   5
ATOM      4  N   UNL     1       6.054   5.468  18.672  0.00  0.00    +0.000 N 
ATOM      5  C   UNL     1       7.412   5.453  18.502  0.00  0.00    +0.000 C 
ATOM      6  O   UNL     1       8.050   4.428  18.267  0.00  0.00    +0.000 OA
ATOM      7  H   UNL     1       5.585   6.329  18.930  0.00  0.00    +0.000 HD
BRANCH   4   8
ATOM      8  C   UNL     1       5.287   4.241  18.580  0.00  0.00    +0.000 C 
BRANCH   8  10
ATOM      9  C   UNL     1       3.010   3.990  17.530  0.00  0.00    +0.000 C 
ATOM     10  C   UNL     1       4.510   4.118  17.260  0.00  0.00    +0.000 C 
ATOM     11  C   UNL     1       4.772   5.334  16.368  0.00  0.00    +0.000 C 
ENDBRANCH   8  10
ENDBRANCH   4   8
ENDBRANCH   3   5
ENDBRANCH   2   3
ENDBRANCH   1   2
BRANCH   1  12
ATOM     12  C   UNL     1       8.954   9.316  19.015  0.00  0.00    +0.000 C 
BRANCH  12  13
ATOM     13  C   UNL     1       9.588  10.675  19.146  0.00  0.00    +0.000 A 
ATOM     14  C   UNL     1       9.837  11.210  20.429  0.00  0.00    +0.000 A 
ATOM     15  C   UNL     1      10.420  12.470  20.583  0.00  0.00    +0.000 A 
ATOM     16  C   UNL     1      10.738  13.172  19.440  0.00  0.00    +0.000 A 
ATOM     17  C   UNL     1      10.503  12.659  18.190  0.00  0.00    +0.000 A 
ATOM     18  C   UNL     1       9.937  11.415  18.006  0.00  0.00    +0.000 A 
ATOM     19  O   UNL     1      10.883  13.506  17.196  0.00  0.00    +0.000 OA
ATOM     20  C   UNL     1      11.328  14.640  17.969  0.00  0.00    +0.000 C 
ATOM     21  O   UNL     1      11.302  14.410  19.394  0.00  0.00    +0.000 OA
ENDBRANCH  12  13
ENDBRANCH   1  12
TORSDOF 7
ENDMDL
MODEL 7
REMARK VINA RESULT:      -7.0      3.253      3.485
REMARK  Name = 
REMARK  9 active torsions:
REMARK  status: ('A' for Active; 'I' for Inactive)
REMARK    1  A    between atoms: C_1  and  C_2
REMARK    2  A    between atoms: C_2  and  C_3
REMARK    3  A    between atoms: C_2  and  C_4
REMARK    4  A    between atoms: C_4  and  N_5
REMARK    5  A    between atoms: C_6  and  C_8
REMARK    6  A    between atoms: C_8  and  C_9
REMARK    7  A    between atoms: C_9  and  C_10
REMARK    8  A    between atoms: C_10  and  C_11
REMARK    9  A    between atoms: C_11  and  C_12
REMARK                            x       y       z     vdW  Elec       q    Type
REMARK                         _______ _______ _______ _____ _____    ______ ____
ROOT
ATOM      1  C   UNL     1       4.699   5.671  16.705  0.00  0.00    +0.000 C 
ENDROOT
BRANCH   1   2
ATOM      2  C   UNL     1       6.214   5.840  16.800  0.00  0.00    +0.000 C 
BRANCH   2   3
ATOM      3  C   UNL     1       6.969   4.615  16.283  0.00  0.00    +0.000 C 
BRANCH   3   5
ATOM      4  N   UNL     1       6.269   3.800  14.121  0.00  0.00    +0.000 N 
ATOM      5  C   UNL     1       7.100   4.662  14.785  0.00  0.00    +0.000 C 
ATOM      6  O   UNL     1       7.894   5.407  14.213  0.00  0.00    +0.000 OA
ATOM      7  H   UNL     1       5.681   3.159  14.642  0.00  0.00    +0.000 HD
BRANCH   4   8
ATOM      8  C   UNL     1       6.291   3.725  12.672  0.00  0.00    +0.000 C 
BRANCH   8  10
ATOM      9  C   UNL     1       4.212   3.289  11.317  0.00  0.00    +0.000 C 
ATOM     10  C   UNL     1       5.348   2.647  12.115  0.00  0.00    +0.000 C 
ATOM     11  C   UNL     1       6.118   1.670  11.222  0.00  0.00    +0.000 C 
ENDBRANCH   8  10
ENDBRANCH   4   8
ENDBRANCH   3   5
ENDBRANCH   2   3
ENDBRANCH   1   2
BRANCH   1  12
ATOM     12  C   UNL     1       4.051   5.488  18.079  0.00  0.00    +0.000 C 
BRANCH  12  13
ATOM     13  C   UNL     1       3.181   6.652  18.470  0.00  0.00    +0.000 A 
ATOM     14  C   UNL     1       3.000   7.725  17.570  0.00  0.00    +0.000 A 
ATOM     15  C   UNL     1       2.202   8.821  17.907  0.00  0.00    +0.000 A 
ATOM     16  C   UNL     1       1.603   8.819  19.149  0.00  0.00    +0.000 A 
ATOM     17  C   UNL     1       1.771   7.781  20.028  0.00  0.00    +0.000 A 
ATOM     18  C   UNL     1       2.545   6.682  19.721  0.00  0.00    +0.000 A 
ATOM     19  O   UNL     1       1.102   7.971  21.197  0.00  0.00    +0.000 OA
ATOM     20  C   UNL     1       0.545   9.282  20.973  0.00  0.00    +0.000 C 
ATOM     21  O   UNL     1       0.802   9.798  19.650  0.00  0.00    +0.000 OA
ENDBRANCH  12  13
ENDBRANCH   1  12
TORSDOF 7
ENDMDL
MODEL 8
REMARK VINA RESULT:      -6.9      1.398      2.007
REMARK  Name = 
REMARK  9 active torsions:
REMARK  status: ('A' for Active; 'I' for Inactive)
REMARK    1  A    between atoms: C_1  and  C_2
REMARK    2  A    between atoms: C_2  and  C_3
REMARK    3  A    between atoms: C_2  and  C_4
REMARK    4  A    between atoms: C_4  and  N_5
REMARK    5  A    between atoms: C_6  and  C_8
REMARK    6  A    between atoms: C_8  and  C_9
REMARK    7  A    between atoms: C_9  and  C_10
REMARK    8  A    between atoms: C_10  and  C_11
REMARK    9  A    between atoms: C_11  and  C_12
REMARK                            x       y       z     vdW  Elec       q    Type
REMARK                         _______ _______ _______ _____ _____    ______ ____
ROOT
ATOM      1  C   UNL     1       5.832   6.597  17.606  0.00  0.00    +0.000 C 
ENDROOT
BRANCH   1   2
ATOM      2  C   UNL     1       6.146   5.145  17.960  0.00  0.00    +0.000 C 
BRANCH   2   3
ATOM      3  C   UNL     1       7.202   4.536  17.037  0.00  0.00    +0.000 C 
BRANCH   3   5
ATOM      4  N   UNL     1       5.861   4.146  15.067  0.00  0.00    +0.000 N 
ATOM      5  C   UNL     1       6.903   4.858  15.598  0.00  0.00    +0.000 C 
ATOM      6  O   UNL     1       7.549   5.685  14.957  0.00  0.00    +0.000 OA
ATOM      7  H   UNL     1       5.404   3.428  15.619  0.00  0.00    +0.000 HD
BRANCH   4   8
ATOM      8  C   UNL     1       5.465   4.340  13.686  0.00  0.00    +0.000 C 
BRANCH   8  10
ATOM      9  C   UNL     1       5.153   2.740  11.764  0.00  0.00    +0.000 C 
ATOM     10  C   UNL     1       6.166   3.371  12.720  0.00  0.00    +0.000 C 
ATOM     11  C   UNL     1       7.246   4.102  11.918  0.00  0.00    +0.000 C 
ENDBRANCH   8  10
ENDBRANCH   4   8
ENDBRANCH   3   5
ENDBRANCH   2   3
ENDBRANCH   1   2
BRANCH   1  12
ATOM     12  C   UNL     1       4.332   6.836  17.424  0.00  0.00    +0.000 C 
BRANCH  12  13
ATOM     13  C   UNL     1       3.490   5.842  18.177  0.00  0.00    +0.000 A 
ATOM     14  C   UNL     1       3.319   5.984  19.572  0.00  0.00    +0.000 A 
ATOM     15  C   UNL     1       2.547   5.075  20.299  0.00  0.00    +0.000 A 
ATOM     16  C   UNL     1       1.963   4.034  19.608  0.00  0.00    +0.000 A 
ATOM     17  C   UNL     1       2.121   3.890  18.253  0.00  0.00    +0.000 A 
ATOM     18  C   UNL     1       2.870   4.776  17.508  0.00  0.00    +0.000 A 
ATOM     19  O   UNL     1       1.470   2.802  17.762  0.00  0.00    +0.000 OA
ATOM     20  C   UNL     1       0.936   2.242  18.980  0.00  0.00    +0.000 C 
ATOM     21  O   UNL     1       1.187   3.054  20.146  0.00  0.00    +0.000 OA
ENDBRANCH  12  13
ENDBRANCH   1  12
TORSDOF 7
ENDMDL
MODEL 9
REMARK VINA RESULT:      -6.9      4.534      6.756
REMARK  Name = 
REMARK  9 active torsions:
REMARK  status: ('A' for Active; 'I' for Inactive)
REMARK    1  A    between atoms: C_1  and  C_2
REMARK    2  A    between atoms: C_2  and  C_3
REMARK    3  A    between atoms: C_2  and  C_4
REMARK    4  A    between atoms: C_4  and  N_5
REMARK    5  A    between atoms: C_6  and  C_8
REMARK    6  A    between atoms: C_8  and  C_9
REMARK    7  A    between atoms: C_9  and  C_10
REMARK    8  A    between atoms: C_10  and  C_11
REMARK    9  A    between atoms: C_11  and  C_12
REMARK                            x       y       z     vdW  Elec       q    Type
REMARK                         _______ _______ _______ _____ _____    ______ ____
ROOT
ATOM      1  C   UNL     1       3.556   6.007  17.852  0.00  0.00    +0.000 C 
ENDROOT
BRANCH   1   2
ATOM      2  C   UNL     1       4.694   4.990  17.887  0.00  0.00    +0.000 C 
BRANCH   2   3
ATOM      3  C   UNL     1       4.369   3.726  17.089  0.00  0.00    +0.000 C 
BRANCH   3   5
ATOM      4  N   UNL     1       3.050   2.601  18.769  0.00  0.00    +0.000 N 
ATOM      5  C   UNL     1       3.046   3.151  17.516  0.00  0.00    +0.000 C 
ATOM      6  O   UNL     1       2.052   3.170  16.792  0.00  0.00    +0.000 OA
ATOM      7  H   UNL     1       3.913   2.552  19.299  0.00  0.00    +0.000 HD
BRANCH   4   8
ATOM      8  C   UNL     1       1.847   1.997  19.312  0.00  0.00    +0.000 C 
BRANCH   8  10
ATOM      9  C   UNL     1       2.498   2.772  21.620  0.00  0.00    +0.000 C 
ATOM     10  C   UNL     1       1.362   2.683  20.599  0.00  0.00    +0.000 C 
ATOM     11  C   UNL     1       0.832   4.086  20.293  0.00  0.00    +0.000 C 
ENDBRANCH   8  10
ENDBRANCH   4   8
ENDBRANCH   3   5
ENDBRANCH   2   3
ENDBRANCH   1   2
BRANCH   1  12
ATOM     12  C   UNL     1       3.126   6.441  19.255  0.00  0.00    +0.000 C 
BRANCH  12  13
ATOM     13  C   UNL     1       2.250   7.665  19.242  0.00  0.00    +0.000 A 
ATOM     14  C   UNL     1       2.061   8.378  18.039  0.00  0.00    +0.000 A 
ATOM     15  C   UNL     1       1.257   9.520  17.996  0.00  0.00    +0.000 A 
ATOM     16  C   UNL     1       0.661   9.927  19.171  0.00  0.00    +0.000 A 
ATOM     17  C   UNL     1       0.837   9.239  20.344  0.00  0.00    +0.000 A 
ATOM     18  C   UNL     1       1.617   8.104  20.415  0.00  0.00    +0.000 A 
ATOM     19  O   UNL     1       0.170   9.803  21.387  0.00  0.00    +0.000 OA
ATOM     20  C   UNL     1      -0.396  10.963  20.743  0.00  0.00    +0.000 C 
ATOM     21  O   UNL     1      -0.145  11.013  19.322  0.00  0.00    +0.000 OA
ENDBRANCH  12  13
ENDBRANCH   1  12
TORSDOF 7
ENDMDL
