MODEL 1
REMARK VINA RESULT:      -6.4      0.000      0.000
REMARK  Name = 
REMARK  8 active torsions:
REMARK  status: ('A' for Active; 'I' for Inactive)
REMARK    1  A    between atoms: C_1  and  C_2
REMARK    2  A    between atoms: C_2  and  C_3
REMARK    3  A    between atoms: N_5  and  C_6
REMARK    4  A    between atoms: C_9  and  C_10
REMARK    5  A    between atoms: N_17  and  C_18
REMARK    6  A    between atoms: C_20  and  O_21
REMARK    7  A    between atoms: O_21  and  C_22
REMARK    8  A    between atoms: C_26  and  C_27
REMARK                            x       y       z     vdW  Elec       q    Type
REMARK                         _______ _______ _______ _____ _____    ______ ____
ROOT
ATOM      1  C   UNL     1      11.421  15.537  18.998  0.00  0.00    +0.000 A 
ATOM      2  N   UNL     1      11.622  16.548  18.138  0.00  0.00    +0.000 NA
ATOM      3  N   UNL     1      10.501  17.317  18.231  0.00  0.00    +0.000 N 
ATOM      4  C   UNL     1      10.384  18.464  17.361  0.00  0.00    +0.000 C 
ATOM      5  C   UNL     1       9.622  16.812  19.128  0.00  0.00    +0.000 A 
ATOM      6  C   UNL     1      10.228  15.727  19.697  0.00  0.00    +0.000 A 
ATOM      7  C   UNL     1       9.317  15.059  20.647  0.00  0.00    +0.000 C 
ATOM      8  N   UNL     1       8.056  15.817  20.437  0.00  0.00    +0.000 N 
ATOM      9  C   UNL     1       8.262  16.938  19.539  0.00  0.00    +0.000 C 
ATOM     10  O   UNL     1       7.461  17.761  19.143  0.00  0.00    +0.000 OA
ENDROOT
BRANCH   8  11
ATOM     11  C   UNL     1       6.812  15.277  20.812  0.00  0.00    +0.000 A 
ATOM     12  C   UNL     1       6.476  15.270  22.247  0.00  0.00    +0.000 A 
ATOM     13  C   UNL     1       5.400  14.576  22.682  0.00  0.00    +0.000 A 
ATOM     14  C   UNL     1       4.279  14.507  21.811  0.00  0.00    +0.000 A 
ATOM     15  N   UNL     1       3.001  14.278  22.011  0.00  0.00    +0.000 NA
ATOM     16  N   UNL     1       2.373  14.337  20.796  0.00  0.00    +0.000 NA
ATOM     17  C   UNL     1       3.276  14.598  19.871  0.00  0.00    +0.000 A 
ATOM     18  C   UNL     1       2.944  14.893  18.460  0.00  0.00    +0.000 C 
ATOM     19  N   UNL     1       4.530  14.671  20.460  0.00  0.00    +0.000 N 
ATOM     20  C   UNL     1       5.815  14.930  19.955  0.00  0.00    +0.000 A 
BRANCH  13  21
ATOM     21  O   UNL     1       5.484  13.453  23.479  0.00  0.00    +0.000 OA
ATOM     22  C   UNL     1       6.471  12.502  23.099  0.00  0.00    +0.000 C 
ENDBRANCH  13  21
ENDBRANCH   8  11
BRANCH   7  23
ATOM     23  C   UNL     1       9.238  13.622  20.180  0.00  0.00    +0.000 A 
ATOM     24  C   UNL     1       9.543  12.581  21.077  0.00  0.00    +0.000 A 
ATOM     25  C   UNL     1       9.473  11.266  20.650  0.00  0.00    +0.000 A 
ATOM     26  C   UNL     1       9.098  10.968  19.344  0.00  0.00    +0.000 A 
ATOM     27 CL   UNL     1       9.049   9.332  18.819  0.00  0.00    +0.000 Cl
ATOM     28  C   UNL     1       8.768  11.979  18.451  0.00  0.00    +0.000 A 
ATOM     29  C   UNL     1       8.834  13.301  18.866  0.00  0.00    +0.000 A 
ENDBRANCH   7  23
BRANCH   1  31
ATOM     30  C   UNL     1      12.292  13.560  17.727  0.00  0.00    +0.000 C 
ATOM     31  C   UNL     1      12.333  14.358  19.017  0.00  0.00    +0.000 C 
ENDBRANCH   1  31
TORSDOF 4
ENDMDL
MODEL 2
REMARK VINA RESULT:      -6.1      7.286     11.131
REMARK  Name = 
REMARK  8 active torsions:
REMARK  status: ('A' for Active; 'I' for Inactive)
REMARK    1  A    between atoms: C_1  and  C_2
REMARK    2  A    between atoms: C_2  and  C_3
REMARK    3  A    between atoms: N_5  and  C_6
REMARK    4  A    between atoms: C_9  and  C_10
REMARK    5  A    between atoms: N_17  and  C_18
REMARK    6  A    between atoms: C_20  and  O_21
REMARK    7  A    between atoms: O_21  and  C_22
REMARK    8  A    between atoms: C_26  and  C_27
REMARK                            x       y       z     vdW  Elec       q    Type
REMARK                         _______ _______ _______ _____ _____    ______ ____
ROOT
ATOM      1  C   UNL     1      -3.821  10.666  18.023  0.00  0.00    +0.000 A 
ATOM      2  N   UNL     1      -5.143  10.512  18.199  0.00  0.00    +0.000 NA
ATOM      3  N   UNL     1      -5.497  11.497  19.069  0.00  0.00    +0.000 N 
ATOM      4  C   UNL     1      -6.869  11.552  19.517  0.00  0.00    +0.000 C 
ATOM      5  C   UNL     1      -4.434  12.255  19.427  0.00  0.00    +0.000 A 
ATOM      6  C   UNL     1      -3.371  11.800  18.700  0.00  0.00    +0.000 A 
ATOM      7  C   UNL     1      -2.138  12.522  19.070  0.00  0.00    +0.000 C 
ATOM      8  N   UNL     1      -2.606  13.348  20.214  0.00  0.00    +0.000 N 
ATOM      9  C   UNL     1      -4.040  13.225  20.397  0.00  0.00    +0.000 C 
ATOM     10  O   UNL     1      -4.756  13.748  21.227  0.00  0.00    +0.000 OA
ENDROOT
BRANCH   8  11
ATOM     11  C   UNL     1      -1.698  13.879  21.147  0.00  0.00    +0.000 A 
ATOM     12  C   UNL     1      -0.505  14.569  20.622  0.00  0.00    +0.000 A 
ATOM     13  C   UNL     1       0.499  14.906  21.462  0.00  0.00    +0.000 A 
ATOM     14  C   UNL     1       0.140  15.272  22.788  0.00  0.00    +0.000 A 
ATOM     15  N   UNL     1       0.739  15.983  23.716  0.00  0.00    +0.000 NA
ATOM     16  N   UNL     1      -0.080  16.011  24.811  0.00  0.00    +0.000 NA
ATOM     17  C   UNL     1      -1.166  15.314  24.539  0.00  0.00    +0.000 A 
ATOM     18  C   UNL     1      -2.348  15.256  25.428  0.00  0.00    +0.000 C 
ATOM     19  N   UNL     1      -1.059  14.774  23.267  0.00  0.00    +0.000 N 
ATOM     20  C   UNL     1      -1.912  13.976  22.486  0.00  0.00    +0.000 A 
BRANCH  13  21
ATOM     21  O   UNL     1       1.755  14.336  21.423  0.00  0.00    +0.000 OA
ATOM     22  C   UNL     1       2.028  13.529  20.284  0.00  0.00    +0.000 C 
ENDBRANCH  13  21
ENDBRANCH   8  11
BRANCH   7  23
ATOM     23  C   UNL     1      -1.152  11.446  19.472  0.00  0.00    +0.000 A 
ATOM     24  C   UNL     1      -0.122  11.081  18.585  0.00  0.00    +0.000 A 
ATOM     25  C   UNL     1       0.779  10.095  18.951  0.00  0.00    +0.000 A 
ATOM     26  C   UNL     1       0.676   9.470  20.190  0.00  0.00    +0.000 A 
ATOM     27 CL   UNL     1       1.781   8.224  20.615  0.00  0.00    +0.000 Cl
ATOM     28  C   UNL     1      -0.318   9.834  21.089  0.00  0.00    +0.000 A 
ATOM     29  C   UNL     1      -1.227  10.820  20.736  0.00  0.00    +0.000 A 
ENDBRANCH   7  23
BRANCH   1  31
ATOM     30  C   UNL     1      -2.666  10.037  15.888  0.00  0.00    +0.000 C 
ATOM     31  C   UNL     1      -3.020   9.631  17.306  0.00  0.00    +0.000 C 
ENDBRANCH   1  31
TORSDOF 4
ENDMDL
MODEL 3
REMARK VINA RESULT:      -6.0      8.187     10.464
REMARK  Name = 
REMARK  8 active torsions:
REMARK  status: ('A' for Active; 'I' for Inactive)
REMARK    1  A    between atoms: C_1  and  C_2
REMARK    2  A    between atoms: C_2  and  C_3
REMARK    3  A    between atoms: N_5  and  C_6
REMARK    4  A    between atoms: C_9  and  C_10
REMARK    5  A    between atoms: N_17  and  C_18
REMARK    6  A    between atoms: C_20  and  O_21
REMARK    7  A    between atoms: O_21  and  C_22
REMARK    8  A    between atoms: C_26  and  C_27
REMARK                            x       y       z     vdW  Elec       q    Type
REMARK                         _______ _______ _______ _____ _____    ______ ____
ROOT
ATOM      1  C   UNL     1      -0.322  15.976  23.538  0.00  0.00    +0.000 A 
ATOM      2  N   UNL     1      -1.210  16.062  24.541  0.00  0.00    +0.000 NA
ATOM      3  N   UNL     1      -1.925  14.905  24.478  0.00  0.00    +0.000 N 
ATOM      4  C   UNL     1      -3.022  14.728  25.401  0.00  0.00    +0.000 C 
ATOM      5  C   UNL     1      -1.498  14.107  23.471  0.00  0.00    +0.000 A 
ATOM      6  C   UNL     1      -0.415  14.730  22.916  0.00  0.00    +0.000 A 
ATOM      7  C   UNL     1       0.086  13.968  21.756  0.00  0.00    +0.000 C 
ATOM      8  N   UNL     1      -0.944  12.905  21.627  0.00  0.00    +0.000 N 
ATOM      9  C   UNL     1      -1.892  12.958  22.724  0.00  0.00    +0.000 C 
ATOM     10  O   UNL     1      -2.858  12.253  22.939  0.00  0.00    +0.000 OA
ENDROOT
BRANCH   8  11
ATOM     11  C   UNL     1      -1.115  12.200  20.421  0.00  0.00    +0.000 A 
ATOM     12  C   UNL     1      -0.231  11.047  20.173  0.00  0.00    +0.000 A 
ATOM     13  C   UNL     1      -0.206  10.472  18.950  0.00  0.00    +0.000 A 
ATOM     14  C   UNL     1      -1.424  10.451  18.218  0.00  0.00    +0.000 A 
ATOM     15  N   UNL     1      -1.870   9.699  17.238  0.00  0.00    +0.000 NA
ATOM     16  N   UNL     1      -3.129  10.130  16.922  0.00  0.00    +0.000 NA
ATOM     17  C   UNL     1      -3.435  11.142  17.710  0.00  0.00    +0.000 A 
ATOM     18  C   UNL     1      -4.777  11.761  17.768  0.00  0.00    +0.000 C 
ATOM     19  N   UNL     1      -2.356  11.425  18.534  0.00  0.00    +0.000 N 
ATOM     20  C   UNL     1      -2.144  12.373  19.549  0.00  0.00    +0.000 A 
BRANCH  13  21
ATOM     21  O   UNL     1       0.884  10.515  18.105  0.00  0.00    +0.000 OA
ATOM     22  C   UNL     1       1.627   9.307  17.999  0.00  0.00    +0.000 C 
ENDBRANCH  13  21
ENDBRANCH   8  11
BRANCH   7  23
ATOM     23  C   UNL     1       0.082  14.949  20.603  0.00  0.00    +0.000 A 
ATOM     24  C   UNL     1       1.241  15.105  19.819  0.00  0.00    +0.000 A 
ATOM     25  C   UNL     1       1.239  16.004  18.766  0.00  0.00    +0.000 A 
ATOM     26  C   UNL     1       0.099  16.747  18.475  0.00  0.00    +0.000 A 
ATOM     27 CL   UNL     1       0.123  17.884  17.186  0.00  0.00    +0.000 Cl
ATOM     28  C   UNL     1      -1.062  16.589  19.221  0.00  0.00    +0.000 A 
ATOM     29  C   UNL     1      -1.074  15.692  20.278  0.00  0.00    +0.000 A 
ENDBRANCH   7  23
BRANCH   1  31
ATOM     30  C   UNL     1       1.988  16.877  23.173  0.00  0.00    +0.000 C 
ATOM     31  C   UNL     1       0.498  17.156  23.139  0.00  0.00    +0.000 C 
ENDBRANCH   1  31
TORSDOF 4
ENDMDL
MODEL 4
REMARK VINA RESULT:      -5.8      8.448     12.288
REMARK  Name = 
REMARK  8 active torsions:
REMARK  status: ('A' for Active; 'I' for Inactive)
REMARK    1  A    between atoms: C_1  and  C_2
REMARK    2  A    between atoms: C_2  and  C_3
REMARK    3  A    between atoms: N_5  and  C_6
REMARK    4  A    between atoms: C_9  and  C_10
REMARK    5  A    between atoms: N_17  and  C_18
REMARK    6  A    between atoms: C_20  and  O_21
REMARK    7  A    between atoms: O_21  and  C_22
REMARK    8  A    between atoms: C_26  and  C_27
REMARK                            x       y       z     vdW  Elec       q    Type
REMARK                         _______ _______ _______ _____ _____    ______ ____
ROOT
ATOM      1  C   UNL     1      -4.617  16.250  24.098  0.00  0.00    +0.000 A 
ATOM      2  N   UNL     1      -5.945  16.091  24.210  0.00  0.00    +0.000 NA
ATOM      3  N   UNL     1      -6.184  14.822  23.780  0.00  0.00    +0.000 N 
ATOM      4  C   UNL     1      -7.554  14.369  23.714  0.00  0.00    +0.000 C 
ATOM      5  C   UNL     1      -5.041  14.194  23.414  0.00  0.00    +0.000 A 
ATOM      6  C   UNL     1      -4.019  15.055  23.696  0.00  0.00    +0.000 A 
ATOM      7  C   UNL     1      -2.726  14.488  23.266  0.00  0.00    +0.000 C 
ATOM      8  N   UNL     1      -3.159  13.251  22.565  0.00  0.00    +0.000 N 
ATOM      9  C   UNL     1      -4.588  13.041  22.706  0.00  0.00    +0.000 C 
ATOM     10  O   UNL     1      -5.279  12.146  22.265  0.00  0.00    +0.000 OA
ENDROOT
BRANCH   8  11
ATOM     11  C   UNL     1      -2.318  12.609  21.637  0.00  0.00    +0.000 A 
ATOM     12  C   UNL     1      -1.176  11.842  22.168  0.00  0.00    +0.000 A 
ATOM     13  C   UNL     1      -0.222  11.388  21.325  0.00  0.00    +0.000 A 
ATOM     14  C   UNL     1      -0.639  11.003  20.022  0.00  0.00    +0.000 A 
ATOM     15  N   UNL     1      -0.122  10.208  19.113  0.00  0.00    +0.000 NA
ATOM     16  N   UNL     1      -0.964  10.206  18.035  0.00  0.00    +0.000 NA
ATOM     17  C   UNL     1      -1.982  11.002  18.297  0.00  0.00    +0.000 A 
ATOM     18  C   UNL     1      -3.173  11.126  17.429  0.00  0.00    +0.000 C 
ATOM     19  N   UNL     1      -1.803  11.581  19.545  0.00  0.00    +0.000 N 
ATOM     20  C   UNL     1      -2.569  12.478  20.307  0.00  0.00    +0.000 A 
BRANCH  13  21
ATOM     21  O   UNL     1       1.077  11.852  21.318  0.00  0.00    +0.000 OA
ATOM     22  C   UNL     1       1.247  13.195  20.880  0.00  0.00    +0.000 C 
ENDBRANCH  13  21
ENDBRANCH   8  11
BRANCH   7  23
ATOM     23  C   UNL     1      -2.124  15.523  22.340  0.00  0.00    +0.000 A 
ATOM     24  C   UNL     1      -0.832  16.018  22.598  0.00  0.00    +0.000 A 
ATOM     25  C   UNL     1      -0.281  16.967  21.753  0.00  0.00    +0.000 A 
ATOM     26  C   UNL     1      -0.994  17.427  20.650  0.00  0.00    +0.000 A 
ATOM     27 CL   UNL     1      -0.311  18.631  19.631  0.00  0.00    +0.000 Cl
ATOM     28  C   UNL     1      -2.259  16.932  20.365  0.00  0.00    +0.000 A 
ATOM     29  C   UNL     1      -2.823  15.982  21.203  0.00  0.00    +0.000 A 
ENDBRANCH   7  23
BRANCH   1  31
ATOM     30  C   UNL     1      -2.935  17.623  25.352  0.00  0.00    +0.000 C 
ATOM     31  C   UNL     1      -3.991  17.594  24.264  0.00  0.00    +0.000 C 
ENDBRANCH   1  31
TORSDOF 4
ENDMDL
MODEL 5
REMARK VINA RESULT:      -5.8      3.082      7.201
REMARK  Name = 
REMARK  8 active torsions:
REMARK  status: ('A' for Active; 'I' for Inactive)
REMARK    1  A    between atoms: C_1  and  C_2
REMARK    2  A    between atoms: C_2  and  C_3
REMARK    3  A    between atoms: N_5  and  C_6
REMARK    4  A    between atoms: C_9  and  C_10
REMARK    5  A    between atoms: N_17  and  C_18
REMARK    6  A    between atoms: C_20  and  O_21
REMARK    7  A    between atoms: O_21  and  C_22
REMARK    8  A    between atoms: C_26  and  C_27
REMARK                            x       y       z     vdW  Elec       q    Type
REMARK                         _______ _______ _______ _____ _____    ______ ____
ROOT
ATOM      1  C   UNL     1       5.581  14.583  24.665  0.00  0.00    +0.000 A 
ATOM      2  N   UNL     1       5.131  13.586  25.443  0.00  0.00    +0.000 NA
ATOM      3  N   UNL     1       5.978  12.546  25.207  0.00  0.00    +0.000 N 
ATOM      4  C   UNL     1       5.710  11.284  25.857  0.00  0.00    +0.000 C 
ATOM      5  C   UNL     1       6.939  12.877  24.313  0.00  0.00    +0.000 A 
ATOM      6  C   UNL     1       6.760  14.201  24.023  0.00  0.00    +0.000 A 
ATOM      7  C   UNL     1       7.723  14.645  22.997  0.00  0.00    +0.000 C 
ATOM      8  N   UNL     1       8.380  13.364  22.627  0.00  0.00    +0.000 N 
ATOM      9  C   UNL     1       7.934  12.281  23.483  0.00  0.00    +0.000 C 
ATOM     10  O   UNL     1       8.253  11.108  23.466  0.00  0.00    +0.000 OA
ENDROOT
BRANCH   8  11
ATOM     11  C   UNL     1       9.063  13.224  21.406  0.00  0.00    +0.000 A 
ATOM     12  C   UNL     1      10.367  13.900  21.271  0.00  0.00    +0.000 A 
ATOM     13  C   UNL     1      10.961  13.977  20.060  0.00  0.00    +0.000 A 
ATOM     14  C   UNL     1      10.767  12.884  19.172  0.00  0.00    +0.000 A 
ATOM     15  N   UNL     1      11.442  12.438  18.136  0.00  0.00    +0.000 NA
ATOM     16  N   UNL     1      10.789  11.336  17.658  0.00  0.00    +0.000 NA
ATOM     17  C   UNL     1       9.721  11.125  18.403  0.00  0.00    +0.000 A 
ATOM     18  C   UNL     1       8.860   9.929  18.284  0.00  0.00    +0.000 C 
ATOM     19  N   UNL     1       9.629  12.120  19.365  0.00  0.00    +0.000 N 
ATOM     20  C   UNL     1       8.718  12.371  20.405  0.00  0.00    +0.000 A 
BRANCH  13  21
ATOM     21  O   UNL     1      11.140  15.157  19.368  0.00  0.00    +0.000 OA
ATOM     22  C   UNL     1       9.969  15.705  18.775  0.00  0.00    +0.000 C 
ENDBRANCH  13  21
ENDBRANCH   8  11
BRANCH   7  23
ATOM     23  C   UNL     1       6.879  15.229  21.885  0.00  0.00    +0.000 A 
ATOM     24  C   UNL     1       7.198  16.497  21.362  0.00  0.00    +0.000 A 
ATOM     25  C   UNL     1       6.425  17.033  20.347  0.00  0.00    +0.000 A 
ATOM     26  C   UNL     1       5.341  16.325  19.836  0.00  0.00    +0.000 A 
ATOM     27 CL   UNL     1       4.370  17.019  18.600  0.00  0.00    +0.000 Cl
ATOM     28  C   UNL     1       5.026  15.062  20.321  0.00  0.00    +0.000 A 
ATOM     29  C   UNL     1       5.792  14.513  21.338  0.00  0.00    +0.000 A 
ENDBRANCH   7  23
BRANCH   1  31
ATOM     30  C   UNL     1       5.507  17.073  24.938  0.00  0.00    +0.000 C 
ATOM     31  C   UNL     1       4.779  15.826  24.475  0.00  0.00    +0.000 C 
ENDBRANCH   1  31
TORSDOF 4
ENDMDL
MODEL 6
REMARK VINA RESULT:      -5.6      7.929     10.115
REMARK  Name = 
REMARK  8 active torsions:
REMARK  status: ('A' for Active; 'I' for Inactive)
REMARK    1  A    between atoms: C_1  and  C_2
REMARK    2  A    between atoms: C_2  and  C_3
REMARK    3  A    between atoms: N_5  and  C_6
REMARK    4  A    between atoms: C_9  and  C_10
REMARK    5  A    between atoms: N_17  and  C_18
REMARK    6  A    between atoms: C_20  and  O_21
REMARK    7  A    between atoms: O_21  and  C_22
REMARK    8  A    between atoms: C_26  and  C_27
REMARK                            x       y       z     vdW  Elec       q    Type
REMARK                         _______ _______ _______ _____ _____    ______ ____
ROOT
ATOM      1  C   UNL     1       0.320   9.775  20.951  0.00  0.00    +0.000 A 
ATOM      2  N   UNL     1       0.778   9.039  19.926  0.00  0.00    +0.000 NA
ATOM      3  N   UNL     1       1.330   9.939  19.066  0.00  0.00    +0.000 N 
ATOM      4  C   UNL     1       1.856   9.452  17.812  0.00  0.00    +0.000 C 
ATOM      5  C   UNL     1       1.231  11.205  19.535  0.00  0.00    +0.000 A 
ATOM      6  C   UNL     1       0.672  11.115  20.779  0.00  0.00    +0.000 A 
ATOM      7  C   UNL     1       0.457  12.457  21.353  0.00  0.00    +0.000 C 
ATOM      8  N   UNL     1       0.828  13.334  20.211  0.00  0.00    +0.000 N 
ATOM      9  C   UNL     1       1.361  12.559  19.107  0.00  0.00    +0.000 C 
ATOM     10  O   UNL     1       1.757  12.939  18.023  0.00  0.00    +0.000 OA
ENDROOT
BRANCH   8  11
ATOM     11  C   UNL     1       0.388  14.669  20.147  0.00  0.00    +0.000 A 
ATOM     12  C   UNL     1      -0.282  15.107  18.909  0.00  0.00    +0.000 A 
ATOM     13  C   UNL     1      -0.530  16.421  18.709  0.00  0.00    +0.000 A 
ATOM     14  C   UNL     1      -0.833  17.205  19.855  0.00  0.00    +0.000 A 
ATOM     15  N   UNL     1      -1.465  18.345  20.021  0.00  0.00    +0.000 NA
ATOM     16  N   UNL     1      -1.464  18.630  21.359  0.00  0.00    +0.000 NA
ATOM     17  C   UNL     1      -0.828  17.663  21.992  0.00  0.00    +0.000 A 
ATOM     18  C   UNL     1      -0.767  17.548  23.466  0.00  0.00    +0.000 C 
ATOM     19  N   UNL     1      -0.357  16.741  21.069  0.00  0.00    +0.000 N 
ATOM     20  C   UNL     1       0.359  15.539  21.191  0.00  0.00    +0.000 A 
BRANCH  13  21
ATOM     21  O   UNL     1       0.087  17.178  17.735  0.00  0.00    +0.000 OA
ATOM     22  C   UNL     1       1.459  17.477  17.967  0.00  0.00    +0.000 C 
ENDBRANCH  13  21
ENDBRANCH   8  11
BRANCH   7  23
ATOM     23  C   UNL     1      -1.016  12.512  21.697  0.00  0.00    +0.000 A 
ATOM     24  C   UNL     1      -1.974  12.412  20.670  0.00  0.00    +0.000 A 
ATOM     25  C   UNL     1      -3.321  12.465  20.983  0.00  0.00    +0.000 A 
ATOM     26  C   UNL     1      -3.733  12.610  22.304  0.00  0.00    +0.000 A 
ATOM     27 CL   UNL     1      -5.409  12.709  22.673  0.00  0.00    +0.000 Cl
ATOM     28  C   UNL     1      -2.805  12.685  23.334  0.00  0.00    +0.000 A 
ATOM     29  C   UNL     1      -1.451  12.633  23.034  0.00  0.00    +0.000 A 
ENDBRANCH   7  23
BRANCH   1  31
ATOM     30  C   UNL     1      -0.018   9.368  23.401  0.00  0.00    +0.000 C 
ATOM     31  C   UNL     1      -0.555   9.169  21.996  0.00  0.00    +0.000 C 
ENDBRANCH   1  31
TORSDOF 4
ENDMDL
MODEL 7
REMARK VINA RESULT:      -5.6      8.926     13.384
REMARK  Name = 
REMARK  8 active torsions:
REMARK  status: ('A' for Active; 'I' for Inactive)
REMARK    1  A    between atoms: C_1  and  C_2
REMARK    2  A    between atoms: C_2  and  C_3
REMARK    3  A    between atoms: N_5  and  C_6
REMARK    4  A    between atoms: C_9  and  C_10
REMARK    5  A    between atoms: N_17  and  C_18
REMARK    6  A    between atoms: C_20  and  O_21
REMARK    7  A    between atoms: O_21  and  C_22
REMARK    8  A    between atoms: C_26  and  C_27
REMARK                            x       y       z     vdW  Elec       q    Type
REMARK                         _______ _______ _______ _____ _____    ______ ____
ROOT
ATOM      1  C   UNL     1      -6.112  12.061  18.560  0.00  0.00    +0.000 A 
ATOM      2  N   UNL     1      -5.596  11.639  17.395  0.00  0.00    +0.000 NA
ATOM      3  N   UNL     1      -4.253  11.573  17.610  0.00  0.00    +0.000 N 
ATOM      4  C   UNL     1      -3.400  11.209  16.502  0.00  0.00    +0.000 C 
ATOM      5  C   UNL     1      -3.929  11.936  18.874  0.00  0.00    +0.000 A 
ATOM      6  C   UNL     1      -5.109  12.163  19.525  0.00  0.00    +0.000 A 
ATOM      7  C   UNL     1      -4.862  12.634  20.901  0.00  0.00    +0.000 C 
ATOM      8  N   UNL     1      -3.384  12.790  20.904  0.00  0.00    +0.000 N 
ATOM      9  C   UNL     1      -2.803  12.303  19.668  0.00  0.00    +0.000 C 
ATOM     10  O   UNL     1      -1.638  12.278  19.324  0.00  0.00    +0.000 OA
ENDROOT
BRANCH   8  11
ATOM     11  C   UNL     1      -2.741  13.606  21.854  0.00  0.00    +0.000 A 
ATOM     12  C   UNL     1      -2.967  13.302  23.279  0.00  0.00    +0.000 A 
ATOM     13  C   UNL     1      -2.552  14.175  24.225  0.00  0.00    +0.000 A 
ATOM     14  C   UNL     1      -1.363  14.905  23.956  0.00  0.00    +0.000 A 
ATOM     15  N   UNL     1      -0.489  15.512  24.727  0.00  0.00    +0.000 NA
ATOM     16  N   UNL     1       0.473  16.053  23.919  0.00  0.00    +0.000 NA
ATOM     17  C   UNL     1       0.173  15.773  22.665  0.00  0.00    +0.000 A 
ATOM     18  C   UNL     1       1.069  16.058  21.524  0.00  0.00    +0.000 C 
ATOM     19  N   UNL     1      -1.025  15.076  22.625  0.00  0.00    +0.000 N 
ATOM     20  C   UNL     1      -1.785  14.532  21.576  0.00  0.00    +0.000 A 
BRANCH  13  21
ATOM     21  O   UNL     1      -3.409  14.895  25.031  0.00  0.00    +0.000 OA
ATOM     22  C   UNL     1      -4.310  15.760  24.351  0.00  0.00    +0.000 C 
ENDBRANCH  13  21
ENDBRANCH   8  11
BRANCH   7  23
ATOM     23  C   UNL     1      -5.604  13.949  21.012  0.00  0.00    +0.000 A 
ATOM     24  C   UNL     1      -6.665  14.073  21.929  0.00  0.00    +0.000 A 
ATOM     25  C   UNL     1      -7.346  15.275  22.028  0.00  0.00    +0.000 A 
ATOM     26  C   UNL     1      -6.984  16.359  21.234  0.00  0.00    +0.000 A 
ATOM     27 CL   UNL     1      -7.862  17.832  21.345  0.00  0.00    +0.000 Cl
ATOM     28  C   UNL     1      -5.924  16.263  20.342  0.00  0.00    +0.000 A 
ATOM     29  C   UNL     1      -5.233  15.066  20.232  0.00  0.00    +0.000 A 
ENDBRANCH   7  23
BRANCH   1  31
ATOM     30  C   UNL     1      -7.836  13.761  17.908  0.00  0.00    +0.000 C 
ATOM     31  C   UNL     1      -7.542  12.474  18.656  0.00  0.00    +0.000 C 
ENDBRANCH   1  31
TORSDOF 4
ENDMDL
MODEL 8
REMARK VINA RESULT:      -5.5      8.660     12.083
REMARK  Name = 
REMARK  8 active torsions:
REMARK  status: ('A' for Active; 'I' for Inactive)
REMARK    1  A    between atoms: C_1  and  C_2
REMARK    2  A    between atoms: C_2  and  C_3
REMARK    3  A    between atoms: N_5  and  C_6
REMARK    4  A    between atoms: C_9  and  C_10
REMARK    5  A    between atoms: N_17  and  C_18
REMARK    6  A    between atoms: C_20  and  O_21
REMARK    7  A    between atoms: O_21  and  C_22
REMARK    8  A    between atoms: C_26  and  C_27
REMARK                            x       y       z     vdW  Elec       q    Type
REMARK                         _______ _______ _______ _____ _____    ______ ____
ROOT
ATOM      1  C   UNL     1      -3.778  15.814  24.209  0.00  0.00    +0.000 A 
ATOM      2  N   UNL     1      -5.102  15.862  24.424  0.00  0.00    +0.000 NA
ATOM      3  N   UNL     1      -5.595  14.744  23.823  0.00  0.00    +0.000 N 
ATOM      4  C   UNL     1      -7.026  14.544  23.820  0.00  0.00    +0.000 C 
ATOM      5  C   UNL     1      -4.613  14.007  23.253  0.00  0.00    +0.000 A 
ATOM      6  C   UNL     1      -3.434  14.623  23.566  0.00  0.00    +0.000 A 
ATOM      7  C   UNL     1      -2.298  13.931  22.929  0.00  0.00    +0.000 C 
ATOM      8  N   UNL     1      -2.994  12.925  22.086  0.00  0.00    +0.000 N 
ATOM      9  C   UNL     1      -4.424  12.935  22.331  0.00  0.00    +0.000 C 
ATOM     10  O   UNL     1      -5.295  12.257  21.823  0.00  0.00    +0.000 OA
ENDROOT
BRANCH   8  11
ATOM     11  C   UNL     1      -2.349  12.321  20.991  0.00  0.00    +0.000 A 
ATOM     12  C   UNL     1      -1.161  11.494  21.270  0.00  0.00    +0.000 A 
ATOM     13  C   UNL     1      -0.383  11.070  20.250  0.00  0.00    +0.000 A 
ATOM     14  C   UNL     1      -1.030  10.779  19.018  0.00  0.00    +0.000 A 
ATOM     15  N   UNL     1      -0.706  10.030  17.989  0.00  0.00    +0.000 NA
ATOM     16  N   UNL     1      -1.720  10.118  17.075  0.00  0.00    +0.000 NA
ATOM     17  C   UNL     1      -2.649  10.921  17.556  0.00  0.00    +0.000 A 
ATOM     18  C   UNL     1      -3.966  11.130  16.916  0.00  0.00    +0.000 C 
ATOM     19  N   UNL     1      -2.237  11.416  18.785  0.00  0.00    +0.000 N 
ATOM     20  C   UNL     1      -2.829  12.281  19.720  0.00  0.00    +0.000 A 
BRANCH  13  21
ATOM     21  O   UNL     1       0.912  11.500  20.044  0.00  0.00    +0.000 OA
ATOM     22  C   UNL     1       1.054  12.868  19.679  0.00  0.00    +0.000 C 
ENDBRANCH  13  21
ENDBRANCH   8  11
BRANCH   7  23
ATOM     23  C   UNL     1      -1.583  14.995  22.124  0.00  0.00    +0.000 A 
ATOM     24  C   UNL     1      -2.271  15.669  21.097  0.00  0.00    +0.000 A 
ATOM     25  C   UNL     1      -1.617  16.641  20.359  0.00  0.00    +0.000 A 
ATOM     26  C   UNL     1      -0.290  16.959  20.630  0.00  0.00    +0.000 A 
ATOM     27 CL   UNL     1       0.518  18.143  19.681  0.00  0.00    +0.000 Cl
ATOM     28  C   UNL     1       0.398  16.324  21.655  0.00  0.00    +0.000 A 
ATOM     29  C   UNL     1      -0.245  15.348  22.403  0.00  0.00    +0.000 A 
ENDBRANCH   7  23
BRANCH   1  31
ATOM     30  C   UNL     1      -3.665  18.114  25.199  0.00  0.00    +0.000 C 
ATOM     31  C   UNL     1      -2.910  16.985  24.524  0.00  0.00    +0.000 C 
ENDBRANCH   1  31
TORSDOF 4
ENDMDL
MODEL 9
REMARK VINA RESULT:      -5.5      7.508     10.156
REMARK  Name = 
REMARK  8 active torsions:
REMARK  status: ('A' for Active; 'I' for Inactive)
REMARK    1  A    between atoms: C_1  and  C_2
REMARK    2  A    between atoms: C_2  and  C_3
REMARK    3  A    between atoms: N_5  and  C_6
REMARK    4  A    between atoms: C_9  and  C_10
REMARK    5  A    between atoms: N_17  and  C_18
REMARK    6  A    between atoms: C_20  and  O_21
REMARK    7  A    between atoms: O_21  and  C_22
REMARK    8  A    between atoms: C_26  and  C_27
REMARK                            x       y       z     vdW  Elec       q    Type
REMARK                         _______ _______ _______ _____ _____    ______ ____
ROOT
ATOM      1  C   UNL     1      -0.274  16.182  23.433  0.00  0.00    +0.000 A 
ATOM      2  N   UNL     1      -1.350  16.542  24.149  0.00  0.00    +0.000 NA
ATOM      3  N   UNL     1      -2.258  15.549  23.942  0.00  0.00    +0.000 N 
ATOM      4  C   UNL     1      -3.568  15.685  24.534  0.00  0.00    +0.000 C 
ATOM      5  C   UNL     1      -1.768  14.586  23.125  0.00  0.00    +0.000 A 
ATOM      6  C   UNL     1      -0.471  14.924  22.862  0.00  0.00    +0.000 A 
ATOM      7  C   UNL     1       0.137  13.967  21.917  0.00  0.00    +0.000 C 
ATOM      8  N   UNL     1      -1.031  13.120  21.556  0.00  0.00    +0.000 N 
ATOM      9  C   UNL     1      -2.195  13.469  22.348  0.00  0.00    +0.000 C 
ATOM     10  O   UNL     1      -3.313  12.994  22.319  0.00  0.00    +0.000 OA
ENDROOT
BRANCH   8  11
ATOM     11  C   UNL     1      -1.032  12.347  20.381  0.00  0.00    +0.000 A 
ATOM     12  C   UNL     1      -0.078  11.227  20.300  0.00  0.00    +0.000 A 
ATOM     13  C   UNL     1       0.112  10.591  19.122  0.00  0.00    +0.000 A 
ATOM     14  C   UNL     1      -1.012  10.474  18.260  0.00  0.00    +0.000 A 
ATOM     15  N   UNL     1      -1.310   9.652  17.279  0.00  0.00    +0.000 NA
ATOM     16  N   UNL     1      -2.541  10.006  16.800  0.00  0.00    +0.000 NA
ATOM     17  C   UNL     1      -2.978  11.041  17.490  0.00  0.00    +0.000 A 
ATOM     18  C   UNL     1      -4.342  11.598  17.360  0.00  0.00    +0.000 C 
ATOM     19  N   UNL     1      -2.013  11.418  18.413  0.00  0.00    +0.000 N 
ATOM     20  C   UNL     1      -1.960  12.426  19.390  0.00  0.00    +0.000 A 
BRANCH  13  21
ATOM     21  O   UNL     1       1.289  10.642  18.404  0.00  0.00    +0.000 OA
ATOM     22  C   UNL     1       1.941  11.906  18.385  0.00  0.00    +0.000 C 
ENDBRANCH  13  21
ENDBRANCH   8  11
BRANCH   7  23
ATOM     23  C   UNL     1       0.644  14.810  20.767  0.00  0.00    +0.000 A 
ATOM     24  C   UNL     1      -0.274  15.501  19.954  0.00  0.00    +0.000 A 
ATOM     25  C   UNL     1       0.190  16.270  18.900  0.00  0.00    +0.000 A 
ATOM     26  C   UNL     1       1.554  16.368  18.645  0.00  0.00    +0.000 A 
ATOM     27 CL   UNL     1       2.111  17.299  17.311  0.00  0.00    +0.000 Cl
ATOM     28  C   UNL     1       2.477  15.714  19.451  0.00  0.00    +0.000 A 
ATOM     29  C   UNL     1       2.026  14.941  20.510  0.00  0.00    +0.000 A 
ENDBRANCH   7  23
BRANCH   1  31
ATOM     30  C   UNL     1       0.501  18.279  22.298  0.00  0.00    +0.000 C 
ATOM     31  C   UNL     1       0.858  17.132  23.224  0.00  0.00    +0.000 C 
ENDBRANCH   1  31
TORSDOF 4
ENDMDL
