MODEL 1
REMARK VINA RESULT:      -7.8      0.000      0.000
REMARK  Name = 
REMARK  6 active torsions:
REMARK  status: ('A' for Active; 'I' for Inactive)
REMARK    1  A    between atoms: C_1  and  N_2
REMARK    2  A    between atoms: C_6  and  C_8
REMARK    3  A    between atoms: C_8  and  C_9
REMARK    4  A    between atoms: C_8  and  C_10
REMARK    5  A    between atoms: C_8  and  C_17
REMARK    6  A    between atoms: C_10  and  C_11
REMARK                            x       y       z     vdW  Elec       q    Type
REMARK                         _______ _______ _______ _____ _____    ______ ____
ROOT
ATOM      1  C   UNL     1       5.831   5.185  17.446  0.00  0.00    +0.000 C 
ATOM      2  C   UNL     1       6.441   4.301  16.336  0.00  0.00    +0.000 C 
ENDROOT
BRANCH   1   8
ATOM      3  C   UNL     1       0.508   2.237  19.281  0.00  0.00    +0.000 C 
ATOM      4  N   UNL     1       1.935   2.061  19.009  0.00  0.00    +0.000 NA
ATOM      5  C   UNL     1       2.731   2.570  20.149  0.00  0.00    +0.000 C 
ATOM      6  C   UNL     1       4.245   2.533  19.874  0.00  0.00    +0.000 C 
ATOM      7  N   UNL     1       4.563   3.266  18.644  0.00  0.00    +0.000 N 
ATOM      8  C   UNL     1       5.470   4.315  18.701  0.00  0.00    +0.000 C 
ATOM      9  O   UNL     1       6.038   4.537  19.782  0.00  0.00    +0.000 OA
ATOM     10  C   UNL     1       3.839   2.732  17.490  0.00  0.00    +0.000 C 
ATOM     11  C   UNL     1       2.315   2.753  17.756  0.00  0.00    +0.000 C 
ENDBRANCH   1   8
BRANCH   1  12
ATOM     12  C   UNL     1       6.780   6.363  17.814  0.00  0.00    +0.000 A 
ATOM     13  C   UNL     1       7.757   6.243  18.824  0.00  0.00    +0.000 A 
ATOM     14  C   UNL     1       8.596   7.312  19.156  0.00  0.00    +0.000 A 
ATOM     15  C   UNL     1       8.489   8.520  18.474  0.00  0.00    +0.000 A 
ATOM     16  C   UNL     1       7.563   8.649  17.445  0.00  0.00    +0.000 A 
ATOM     17  C   UNL     1       6.728   7.578  17.108  0.00  0.00    +0.000 A 
ENDBRANCH   1  12
BRANCH   1  18
ATOM     18  C   UNL     1       4.510   5.870  16.903  0.00  0.00    +0.000 C 
BRANCH  18  19
ATOM     19  C   UNL     1       3.614   6.705  17.813  0.00  0.00    +0.000 A 
ATOM     20  C   UNL     1       3.162   7.965  17.373  0.00  0.00    +0.000 A 
ATOM     21  C   UNL     1       2.272   8.725  18.135  0.00  0.00    +0.000 A 
ATOM     22  C   UNL     1       1.820   8.246  19.360  0.00  0.00    +0.000 A 
ATOM     23  C   UNL     1       2.257   7.005  19.816  0.00  0.00    +0.000 A 
ATOM     24  C   UNL     1       3.135   6.236  19.041  0.00  0.00    +0.000 A 
ENDBRANCH  18  19
ENDBRANCH   1  18
TORSDOF 4
ENDMDL
MODEL 2
REMARK VINA RESULT:      -7.7      2.230      4.222
REMARK  Name = 
REMARK  6 active torsions:
REMARK  status: ('A' for Active; 'I' for Inactive)
REMARK    1  A    between atoms: C_1  and  N_2
REMARK    2  A    between atoms: C_6  and  C_8
REMARK    3  A    between atoms: C_8  and  C_9
REMARK    4  A    between atoms: C_8  and  C_10
REMARK    5  A    between atoms: C_8  and  C_17
REMARK    6  A    between atoms: C_10  and  C_11
REMARK                            x       y       z     vdW  Elec       q    Type
REMARK                         _______ _______ _______ _____ _____    ______ ____
ROOT
ATOM      1  C   UNL     1       5.054   5.402  17.104  0.00  0.00    +0.000 C 
ATOM      2  C   UNL     1       5.258   3.873  17.190  0.00  0.00    +0.000 C 
ENDROOT
BRANCH   1   8
ATOM      3  C   UNL     1       1.335   2.460  21.334  0.00  0.00    +0.000 C 
ATOM      4  N   UNL     1       2.094   3.681  21.060  0.00  0.00    +0.000 NA
ATOM      5  C   UNL     1       1.332   4.549  20.134  0.00  0.00    +0.000 C 
ATOM      6  C   UNL     1       2.131   5.793  19.702  0.00  0.00    +0.000 C 
ATOM      7  N   UNL     1       3.417   5.400  19.115  0.00  0.00    +0.000 N 
ATOM      8  C   UNL     1       3.725   5.817  17.828  0.00  0.00    +0.000 C 
ATOM      9  O   UNL     1       2.927   6.574  17.253  0.00  0.00    +0.000 OA
ATOM     10  C   UNL     1       4.216   4.599  20.044  0.00  0.00    +0.000 C 
ATOM     11  C   UNL     1       3.423   3.351  20.495  0.00  0.00    +0.000 C 
ENDBRANCH   1   8
BRANCH   1  12
ATOM     12  C   UNL     1       6.284   6.167  17.675  0.00  0.00    +0.000 A 
ATOM     13  C   UNL     1       7.124   5.600  18.654  0.00  0.00    +0.000 A 
ATOM     14  C   UNL     1       8.218   6.302  19.170  0.00  0.00    +0.000 A 
ATOM     15  C   UNL     1       8.509   7.581  18.706  0.00  0.00    +0.000 A 
ATOM     16  C   UNL     1       7.721   8.145  17.709  0.00  0.00    +0.000 A 
ATOM     17  C   UNL     1       6.629   7.441  17.188  0.00  0.00    +0.000 A 
ENDBRANCH   1  12
BRANCH   1  18
ATOM     18  C   UNL     1       4.964   5.834  15.583  0.00  0.00    +0.000 C 
BRANCH  18  19
ATOM     19  C   UNL     1       5.698   5.060  14.492  0.00  0.00    +0.000 A 
ATOM     20  C   UNL     1       5.002   4.094  13.740  0.00  0.00    +0.000 A 
ATOM     21  C   UNL     1       5.610   3.424  12.675  0.00  0.00    +0.000 A 
ATOM     22  C   UNL     1       6.933   3.700  12.343  0.00  0.00    +0.000 A 
ATOM     23  C   UNL     1       7.640   4.650  13.076  0.00  0.00    +0.000 A 
ATOM     24  C   UNL     1       7.023   5.333  14.132  0.00  0.00    +0.000 A 
ENDBRANCH  18  19
ENDBRANCH   1  18
TORSDOF 4
ENDMDL
MODEL 3
REMARK VINA RESULT:      -7.7      2.219      4.308
REMARK  Name = 
REMARK  6 active torsions:
REMARK  status: ('A' for Active; 'I' for Inactive)
REMARK    1  A    between atoms: C_1  and  N_2
REMARK    2  A    between atoms: C_6  and  C_8
REMARK    3  A    between atoms: C_8  and  C_9
REMARK    4  A    between atoms: C_8  and  C_10
REMARK    5  A    between atoms: C_8  and  C_17
REMARK    6  A    between atoms: C_10  and  C_11
REMARK                            x       y       z     vdW  Elec       q    Type
REMARK                         _______ _______ _______ _____ _____    ______ ____
ROOT
ATOM      1  C   UNL     1       4.890   5.253  17.204  0.00  0.00    +0.000 C 
ATOM      2  C   UNL     1       5.085   3.724  17.315  0.00  0.00    +0.000 C 
ENDROOT
BRANCH   1   8
ATOM      3  C   UNL     1       1.257   2.396  21.565  0.00  0.00    +0.000 C 
ATOM      4  N   UNL     1       2.030   3.602  21.261  0.00  0.00    +0.000 NA
ATOM      5  C   UNL     1       1.255   4.481  20.357  0.00  0.00    +0.000 C 
ATOM      6  C   UNL     1       2.062   5.708  19.894  0.00  0.00    +0.000 C 
ATOM      7  N   UNL     1       3.321   5.289  19.268  0.00  0.00    +0.000 N 
ATOM      8  C   UNL     1       3.594   5.695  17.969  0.00  0.00    +0.000 C 
ATOM      9  O   UNL     1       2.792   6.467  17.418  0.00  0.00    +0.000 OA
ATOM     10  C   UNL     1       4.135   4.476  20.172  0.00  0.00    +0.000 C 
ATOM     11  C   UNL     1       3.333   3.245  20.654  0.00  0.00    +0.000 C 
ENDBRANCH   1   8
BRANCH   1  12
ATOM     12  C   UNL     1       6.148   6.019  17.709  0.00  0.00    +0.000 A 
ATOM     13  C   UNL     1       6.471   7.310  17.242  0.00  0.00    +0.000 A 
ATOM     14  C   UNL     1       7.610   7.983  17.692  0.00  0.00    +0.000 A 
ATOM     15  C   UNL     1       8.446   7.389  18.633  0.00  0.00    +0.000 A 
ATOM     16  C   UNL     1       8.126   6.134  19.141  0.00  0.00    +0.000 A 
ATOM     17  C   UNL     1       6.982   5.463  18.696  0.00  0.00    +0.000 A 
ENDBRANCH   1  12
BRANCH   1  18
ATOM     18  C   UNL     1       4.745   5.652  15.678  0.00  0.00    +0.000 C 
BRANCH  18  19
ATOM     19  C   UNL     1       5.589   4.985  14.597  0.00  0.00    +0.000 A 
ATOM     20  C   UNL     1       5.002   4.019  13.757  0.00  0.00    +0.000 A 
ATOM     21  C   UNL     1       5.713   3.445  12.700  0.00  0.00    +0.000 A 
ATOM     22  C   UNL     1       7.031   3.820  12.463  0.00  0.00    +0.000 A 
ATOM     23  C   UNL     1       7.632   4.772  13.283  0.00  0.00    +0.000 A 
ATOM     24  C   UNL     1       6.912   5.359  14.331  0.00  0.00    +0.000 A 
ENDBRANCH  18  19
ENDBRANCH   1  18
TORSDOF 4
ENDMDL
MODEL 4
REMARK VINA RESULT:      -7.5      2.296      5.368
REMARK  Name = 
REMARK  6 active torsions:
REMARK  status: ('A' for Active; 'I' for Inactive)
REMARK    1  A    between atoms: C_1  and  N_2
REMARK    2  A    between atoms: C_6  and  C_8
REMARK    3  A    between atoms: C_8  and  C_9
REMARK    4  A    between atoms: C_8  and  C_10
REMARK    5  A    between atoms: C_8  and  C_17
REMARK    6  A    between atoms: C_10  and  C_11
REMARK                            x       y       z     vdW  Elec       q    Type
REMARK                         _______ _______ _______ _____ _____    ______ ____
ROOT
ATOM      1  C   UNL     1       3.614   4.985  18.373  0.00  0.00    +0.000 C 
ATOM      2  C   UNL     1       4.818   5.657  19.072  0.00  0.00    +0.000 C 
ENDROOT
BRANCH   1   8
ATOM      3  C   UNL     1       7.800   5.741  13.652  0.00  0.00    +0.000 C 
ATOM      4  N   UNL     1       7.428   4.903  14.792  0.00  0.00    +0.000 NA
ATOM      5  C   UNL     1       6.297   4.022  14.420  0.00  0.00    +0.000 C 
ATOM      6  C   UNL     1       5.771   3.203  15.613  0.00  0.00    +0.000 C 
ATOM      7  N   UNL     1       5.402   4.090  16.723  0.00  0.00    +0.000 N 
ATOM      8  C   UNL     1       4.109   4.039  17.223  0.00  0.00    +0.000 C 
ATOM      9  O   UNL     1       3.337   3.184  16.760  0.00  0.00    +0.000 OA
ATOM     10  C   UNL     1       6.528   4.920  17.153  0.00  0.00    +0.000 C 
ATOM     11  C   UNL     1       7.075   5.741  15.962  0.00  0.00    +0.000 C 
ENDBRANCH   1   8
BRANCH   1  12
ATOM     12  C   UNL     1       2.719   4.229  19.398  0.00  0.00    +0.000 A 
ATOM     13  C   UNL     1       1.406   3.823  19.082  0.00  0.00    +0.000 A 
ATOM     14  C   UNL     1       0.605   3.156  20.015  0.00  0.00    +0.000 A 
ATOM     15  C   UNL     1       1.105   2.864  21.280  0.00  0.00    +0.000 A 
ATOM     16  C   UNL     1       2.411   3.214  21.601  0.00  0.00    +0.000 A 
ATOM     17  C   UNL     1       3.215   3.876  20.666  0.00  0.00    +0.000 A 
ENDBRANCH   1  12
BRANCH   1  18
ATOM     18  C   UNL     1       2.680   6.102  17.750  0.00  0.00    +0.000 C 
BRANCH  18  19
ATOM     19  C   UNL     1       2.217   7.302  18.571  0.00  0.00    +0.000 A 
ATOM     20  C   UNL     1       1.905   8.510  17.917  0.00  0.00    +0.000 A 
ATOM     21  C   UNL     1       1.397   9.606  18.618  0.00  0.00    +0.000 A 
ATOM     22  C   UNL     1       1.195   9.521  19.992  0.00  0.00    +0.000 A 
ATOM     23  C   UNL     1       1.499   8.337  20.658  0.00  0.00    +0.000 A 
ATOM     24  C   UNL     1       1.993   7.234  19.951  0.00  0.00    +0.000 A 
ENDBRANCH  18  19
ENDBRANCH   1  18
TORSDOF 4
ENDMDL
MODEL 5
REMARK VINA RESULT:      -7.3      1.995      5.246
REMARK  Name = 
REMARK  6 active torsions:
REMARK  status: ('A' for Active; 'I' for Inactive)
REMARK    1  A    between atoms: C_1  and  N_2
REMARK    2  A    between atoms: C_6  and  C_8
REMARK    3  A    between atoms: C_8  and  C_9
REMARK    4  A    between atoms: C_8  and  C_10
REMARK    5  A    between atoms: C_8  and  C_17
REMARK    6  A    between atoms: C_10  and  C_11
REMARK                            x       y       z     vdW  Elec       q    Type
REMARK                         _______ _______ _______ _____ _____    ______ ____
ROOT
ATOM      1  C   UNL     1       3.384   5.562  19.222  0.00  0.00    +0.000 C 
ATOM      2  C   UNL     1       3.106   6.054  20.660  0.00  0.00    +0.000 C 
ENDROOT
BRANCH   1   8
ATOM      3  C   UNL     1       6.892   4.590  14.013  0.00  0.00    +0.000 C 
ATOM      4  N   UNL     1       6.703   5.454  15.179  0.00  0.00    +0.000 NA
ATOM      5  C   UNL     1       7.272   4.805  16.383  0.00  0.00    +0.000 C 
ATOM      6  C   UNL     1       6.994   5.603  17.669  0.00  0.00    +0.000 C 
ATOM      7  N   UNL     1       5.554   5.835  17.829  0.00  0.00    +0.000 N 
ATOM      8  C   UNL     1       4.927   5.401  18.989  0.00  0.00    +0.000 C 
ATOM      9  O   UNL     1       5.631   4.902  19.881  0.00  0.00    +0.000 OA
ATOM     10  C   UNL     1       4.985   6.540  16.679  0.00  0.00    +0.000 C 
ATOM     11  C   UNL     1       5.267   5.755  15.377  0.00  0.00    +0.000 C 
ENDBRANCH   1   8
BRANCH   1  12
ATOM     12  C   UNL     1       2.614   4.243  18.920  0.00  0.00    +0.000 A 
ATOM     13  C   UNL     1       1.403   3.923  19.568  0.00  0.00    +0.000 A 
ATOM     14  C   UNL     1       0.727   2.729  19.300  0.00  0.00    +0.000 A 
ATOM     15  C   UNL     1       1.236   1.833  18.365  0.00  0.00    +0.000 A 
ATOM     16  C   UNL     1       2.406   2.145  17.681  0.00  0.00    +0.000 A 
ATOM     17  C   UNL     1       3.080   3.343  17.944  0.00  0.00    +0.000 A 
ENDBRANCH   1  12
BRANCH   1  18
ATOM     18  C   UNL     1       2.818   6.620  18.188  0.00  0.00    +0.000 C 
BRANCH  18  19
ATOM     19  C   UNL     1       2.188   7.929  18.654  0.00  0.00    +0.000 A 
ATOM     20  C   UNL     1       2.131   9.023  17.768  0.00  0.00    +0.000 A 
ATOM     21  C   UNL     1       1.488  10.212  18.121  0.00  0.00    +0.000 A 
ATOM     22  C   UNL     1       0.894  10.337  19.373  0.00  0.00    +0.000 A 
ATOM     23  C   UNL     1       0.942   9.268  20.265  0.00  0.00    +0.000 A 
ATOM     24  C   UNL     1       1.571   8.071  19.902  0.00  0.00    +0.000 A 
ENDBRANCH  18  19
ENDBRANCH   1  18
TORSDOF 4
ENDMDL
MODEL 6
REMARK VINA RESULT:      -7.3      7.732      9.928
REMARK  Name = 
REMARK  6 active torsions:
REMARK  status: ('A' for Active; 'I' for Inactive)
REMARK    1  A    between atoms: C_1  and  N_2
REMARK    2  A    between atoms: C_6  and  C_8
REMARK    3  A    between atoms: C_8  and  C_9
REMARK    4  A    between atoms: C_8  and  C_10
REMARK    5  A    between atoms: C_8  and  C_17
REMARK    6  A    between atoms: C_10  and  C_11
REMARK                            x       y       z     vdW  Elec       q    Type
REMARK                         _______ _______ _______ _____ _____    ______ ____
ROOT
ATOM      1  C   UNL     1      -0.583  12.370  20.007  0.00  0.00    +0.000 C 
ATOM      2  C   UNL     1       0.364  12.179  18.801  0.00  0.00    +0.000 C 
ENDROOT
BRANCH   1   8
ATOM      3  C   UNL     1      -3.418  10.278  14.719  0.00  0.00    +0.000 C 
ATOM      4  N   UNL     1      -3.409  10.194  16.180  0.00  0.00    +0.000 NA
ATOM      5  C   UNL     1      -4.077  11.383  16.756  0.00  0.00    +0.000 C 
ATOM      6  C   UNL     1      -3.989  11.422  18.293  0.00  0.00    +0.000 C 
ATOM      7  N   UNL     1      -2.592  11.341  18.730  0.00  0.00    +0.000 N 
ATOM      8  C   UNL     1      -2.079  12.349  19.535  0.00  0.00    +0.000 C 
ATOM      9  O   UNL     1      -2.853  13.241  19.917  0.00  0.00    +0.000 OA
ATOM     10  C   UNL     1      -1.933  10.134  18.229  0.00  0.00    +0.000 C 
ATOM     11  C   UNL     1      -2.023  10.076  16.686  0.00  0.00    +0.000 C 
ENDBRANCH   1   8
BRANCH   1  12
ATOM     12  C   UNL     1      -0.311  11.305  21.110  0.00  0.00    +0.000 A 
ATOM     13  C   UNL     1      -1.060  11.264  22.304  0.00  0.00    +0.000 A 
ATOM     14  C   UNL     1      -0.798  10.312  23.295  0.00  0.00    +0.000 A 
ATOM     15  C   UNL     1       0.207   9.368  23.108  0.00  0.00    +0.000 A 
ATOM     16  C   UNL     1       0.930   9.361  21.920  0.00  0.00    +0.000 A 
ATOM     17  C   UNL     1       0.665  10.309  20.925  0.00  0.00    +0.000 A 
ENDBRANCH   1  12
BRANCH   1  18
ATOM     18  C   UNL     1      -0.283  13.765  20.693  0.00  0.00    +0.000 C 
BRANCH  18  19
ATOM     19  C   UNL     1       0.240  14.951  19.888  0.00  0.00    +0.000 A 
ATOM     20  C   UNL     1       1.627  15.196  19.836  0.00  0.00    +0.000 A 
ATOM     21  C   UNL     1       2.156  16.218  19.044  0.00  0.00    +0.000 A 
ATOM     22  C   UNL     1       1.309  17.023  18.290  0.00  0.00    +0.000 A 
ATOM     23  C   UNL     1      -0.065  16.801  18.329  0.00  0.00    +0.000 A 
ATOM     24  C   UNL     1      -0.592  15.764  19.110  0.00  0.00    +0.000 A 
ENDBRANCH  18  19
ENDBRANCH   1  18
TORSDOF 4
ENDMDL
MODEL 7
REMARK VINA RESULT:      -7.3      2.141      4.111
REMARK  Name = 
REMARK  6 active torsions:
REMARK  status: ('A' for Active; 'I' for Inactive)
REMARK    1  A    between atoms: C_1  and  N_2
REMARK    2  A    between atoms: C_6  and  C_8
REMARK    3  A    between atoms: C_8  and  C_9
REMARK    4  A    between atoms: C_8  and  C_10
REMARK    5  A    between atoms: C_8  and  C_17
REMARK    6  A    between atoms: C_10  and  C_11
REMARK                            x       y       z     vdW  Elec       q    Type
REMARK                         _______ _______ _______ _____ _____    ______ ____
ROOT
ATOM      1  C   UNL     1       5.323   5.425  16.893  0.00  0.00    +0.000 C 
ATOM      2  C   UNL     1       5.640   3.912  16.873  0.00  0.00    +0.000 C 
ENDROOT
BRANCH   1   8
ATOM      3  C   UNL     1       0.995   1.560  19.484  0.00  0.00    +0.000 C 
ATOM      4  N   UNL     1       1.851   2.723  19.724  0.00  0.00    +0.000 NA
ATOM      5  C   UNL     1       1.248   3.927  19.108  0.00  0.00    +0.000 C 
ATOM      6  C   UNL     1       2.161   5.162  19.212  0.00  0.00    +0.000 C 
ATOM      7  N   UNL     1       3.479   4.879  18.632  0.00  0.00    +0.000 N 
ATOM      8  C   UNL     1       3.950   5.685  17.605  0.00  0.00    +0.000 C 
ATOM      9  O   UNL     1       3.266   6.667  17.274  0.00  0.00    +0.000 OA
ATOM     10  C   UNL     1       4.122   3.733  19.277  0.00  0.00    +0.000 C 
ATOM     11  C   UNL     1       3.212   2.487  19.190  0.00  0.00    +0.000 C 
ENDBRANCH   1   8
BRANCH   1  12
ATOM     12  C   UNL     1       6.478   6.233  17.553  0.00  0.00    +0.000 A 
ATOM     13  C   UNL     1       7.247   5.704  18.610  0.00  0.00    +0.000 A 
ATOM     14  C   UNL     1       8.273   6.444  19.206  0.00  0.00    +0.000 A 
ATOM     15  C   UNL     1       8.567   7.725  18.747  0.00  0.00    +0.000 A 
ATOM     16  C   UNL     1       7.851   8.252  17.678  0.00  0.00    +0.000 A 
ATOM     17  C   UNL     1       6.828   7.510  17.077  0.00  0.00    +0.000 A 
ENDBRANCH   1  12
BRANCH   1  18
ATOM     18  C   UNL     1       5.237   5.961  15.406  0.00  0.00    +0.000 C 
BRANCH  18  19
ATOM     19  C   UNL     1       5.818   5.168  14.239  0.00  0.00    +0.000 A 
ATOM     20  C   UNL     1       7.155   5.382  13.853  0.00  0.00    +0.000 A 
ATOM     21  C   UNL     1       7.753   4.618  12.847  0.00  0.00    +0.000 A 
ATOM     22  C   UNL     1       7.024   3.627  12.199  0.00  0.00    +0.000 A 
ATOM     23  C   UNL     1       5.699   3.401  12.563  0.00  0.00    +0.000 A 
ATOM     24  C   UNL     1       5.107   4.156  13.583  0.00  0.00    +0.000 A 
ENDBRANCH  18  19
ENDBRANCH   1  18
TORSDOF 4
ENDMDL
MODEL 8
REMARK VINA RESULT:      -7.3      2.511      4.704
REMARK  Name = 
REMARK  6 active torsions:
REMARK  status: ('A' for Active; 'I' for Inactive)
REMARK    1  A    between atoms: C_1  and  N_2
REMARK    2  A    between atoms: C_6  and  C_8
REMARK    3  A    between atoms: C_8  and  C_9
REMARK    4  A    between atoms: C_8  and  C_10
REMARK    5  A    between atoms: C_8  and  C_17
REMARK    6  A    between atoms: C_10  and  C_11
REMARK                            x       y       z     vdW  Elec       q    Type
REMARK                         _______ _______ _______ _____ _____    ______ ____
ROOT
ATOM      1  C   UNL     1       5.641   4.563  16.016  0.00  0.00    +0.000 C 
ATOM      2  C   UNL     1       6.684   4.314  17.129  0.00  0.00    +0.000 C 
ENDROOT
BRANCH   1   8
ATOM      3  C   UNL     1       1.645   6.458  20.580  0.00  0.00    +0.000 C 
ATOM      4  N   UNL     1       2.888   6.777  19.874  0.00  0.00    +0.000 NA
ATOM      5  C   UNL     1       2.578   7.377  18.556  0.00  0.00    +0.000 C 
ATOM      6  C   UNL     1       3.840   7.618  17.708  0.00  0.00    +0.000 C 
ATOM      7  N   UNL     1       4.601   6.374  17.553  0.00  0.00    +0.000 N 
ATOM      8  C   UNL     1       4.877   5.908  16.275  0.00  0.00    +0.000 C 
ATOM      9  O   UNL     1       4.533   6.611  15.311  0.00  0.00    +0.000 OA
ATOM     10  C   UNL     1       4.979   5.803  18.846  0.00  0.00    +0.000 C 
ATOM     11  C   UNL     1       3.722   5.564  19.715  0.00  0.00    +0.000 C 
ENDBRANCH   1   8
BRANCH   1  12
ATOM     12  C   UNL     1       6.304   4.537  14.608  0.00  0.00    +0.000 A 
ATOM     13  C   UNL     1       7.447   5.307  14.309  0.00  0.00    +0.000 A 
ATOM     14  C   UNL     1       8.026   5.287  13.037  0.00  0.00    +0.000 A 
ATOM     15  C   UNL     1       7.486   4.484  12.036  0.00  0.00    +0.000 A 
ATOM     16  C   UNL     1       6.385   3.682  12.318  0.00  0.00    +0.000 A 
ATOM     17  C   UNL     1       5.809   3.697  13.594  0.00  0.00    +0.000 A 
ENDBRANCH   1  12
BRANCH   1  18
ATOM     18  C   UNL     1       4.594   3.375  16.005  0.00  0.00    +0.000 C 
BRANCH  18  19
ATOM     19  C   UNL     1       3.611   3.169  17.154  0.00  0.00    +0.000 A 
ATOM     20  C   UNL     1       2.347   3.788  17.103  0.00  0.00    +0.000 A 
ATOM     21  C   UNL     1       1.384   3.560  18.089  0.00  0.00    +0.000 A 
ATOM     22  C   UNL     1       1.668   2.711  19.155  0.00  0.00    +0.000 A 
ATOM     23  C   UNL     1       2.913   2.092  19.226  0.00  0.00    +0.000 A 
ATOM     24  C   UNL     1       3.870   2.308  18.227  0.00  0.00    +0.000 A 
ENDBRANCH  18  19
ENDBRANCH   1  18
TORSDOF 4
ENDMDL
MODEL 9
REMARK VINA RESULT:      -7.3      1.994      5.346
REMARK  Name = 
REMARK  6 active torsions:
REMARK  status: ('A' for Active; 'I' for Inactive)
REMARK    1  A    between atoms: C_1  and  N_2
REMARK    2  A    between atoms: C_6  and  C_8
REMARK    3  A    between atoms: C_8  and  C_9
REMARK    4  A    between atoms: C_8  and  C_10
REMARK    5  A    between atoms: C_8  and  C_17
REMARK    6  A    between atoms: C_10  and  C_11
REMARK                            x       y       z     vdW  Elec       q    Type
REMARK                         _______ _______ _______ _____ _____    ______ ____
ROOT
ATOM      1  C   UNL     1       3.298   5.725  19.185  0.00  0.00    +0.000 C 
ATOM      2  C   UNL     1       2.993   6.248  20.607  0.00  0.00    +0.000 C 
ENDROOT
BRANCH   1   8
ATOM      3  C   UNL     1       6.880   4.578  14.063  0.00  0.00    +0.000 C 
ATOM      4  N   UNL     1       6.659   5.495  15.181  0.00  0.00    +0.000 NA
ATOM      5  C   UNL     1       7.232   4.923  16.421  0.00  0.00    +0.000 C 
ATOM      6  C   UNL     1       6.921   5.779  17.663  0.00  0.00    +0.000 C 
ATOM      7  N   UNL     1       5.474   5.982  17.799  0.00  0.00    +0.000 N 
ATOM      8  C   UNL     1       4.847   5.592  18.973  0.00  0.00    +0.000 C 
ATOM      9  O   UNL     1       5.554   5.157  19.896  0.00  0.00    +0.000 OA
ATOM     10  C   UNL     1       4.900   6.612  16.609  0.00  0.00    +0.000 C 
ATOM     11  C   UNL     1       5.213   5.769  15.351  0.00  0.00    +0.000 C 
ENDBRANCH   1   8
BRANCH   1  12
ATOM     12  C   UNL     1       2.560   4.383  18.908  0.00  0.00    +0.000 A 
ATOM     13  C   UNL     1       3.035   3.455  17.959  0.00  0.00    +0.000 A 
ATOM     14  C   UNL     1       2.357   2.258  17.709  0.00  0.00    +0.000 A 
ATOM     15  C   UNL     1       1.196   1.952  18.414  0.00  0.00    +0.000 A 
ATOM     16  C   UNL     1       0.732   2.831  19.386  0.00  0.00    +0.000 A 
ATOM     17  C   UNL     1       1.413   4.027  19.642  0.00  0.00    +0.000 A 
ENDBRANCH   1  12
BRANCH   1  18
ATOM     18  C   UNL     1       2.722   6.744  18.118  0.00  0.00    +0.000 C 
BRANCH  18  19
ATOM     19  C   UNL     1       2.070   8.057  18.542  0.00  0.00    +0.000 A 
ATOM     20  C   UNL     1       1.468   8.153  19.811  0.00  0.00    +0.000 A 
ATOM     21  C   UNL     1       0.935   9.359  20.275  0.00  0.00    +0.000 A 
ATOM     22  C   UNL     1       0.987  10.495  19.474  0.00  0.00    +0.000 A 
ATOM     23  C   UNL     1       1.575  10.422  18.214  0.00  0.00    +0.000 A 
ATOM     24  C   UNL     1       2.124   9.216  17.759  0.00  0.00    +0.000 A 
ENDBRANCH  18  19
ENDBRANCH   1  18
TORSDOF 4
ENDMDL
