MODEL 1
REMARK VINA RESULT:      -7.3      0.000      0.000
REMARK  Name = 
REMARK  20 active torsions:
REMARK  status: ('A' for Active; 'I' for Inactive)
REMARK    1  A    between atoms: C_1  and  C_2
REMARK    2  A    between atoms: C_2  and  C_3
REMARK    3  A    between atoms: C_3  and  C_4
REMARK    4  A    between atoms: C_4  and  C_5
REMARK    5  A    between atoms: C_5  and  C_6
REMARK    6  A    between atoms: C_6  and  C_7
REMARK    7  A    between atoms: C_7  and  C_8
REMARK    8  A    between atoms: C_7  and  N_22
REMARK    9  A    between atoms: C_8  and  C_9
REMARK   10  A    between atoms: C_10  and  C_11
REMARK   11  A    between atoms: C_11  and  C_12
REMARK   12  A    between atoms: C_12  and  C_13
REMARK   13  A    between atoms: C_13  and  C_14
REMARK   14  A    between atoms: C_14  and  C_15
REMARK   15  A    between atoms: C_15  and  C_16
REMARK   16  A    between atoms: C_16  and  C_17
REMARK   17  A    between atoms: C_17  and  C_18
REMARK   18  A    between atoms: C_18  and  O_20
REMARK   19  A    between atoms: O_20  and  C_21
REMARK   20  A    between atoms: C_23  and  C_24
REMARK                            x       y       z     vdW  Elec       q    Type
REMARK                         _______ _______ _______ _____ _____    ______ ____
ROOT
ATOM      1  C   UNL     1       5.583   5.028  16.257  0.00  0.00    +0.000 C 
ENDROOT
BRANCH   1   2
ATOM      2  N   UNL     1       4.739   6.173  16.623  0.00  0.00    +0.000 NA
ATOM      3  C   UNL     1       3.784   6.174  17.487  0.00  0.00    +0.000 C 
BRANCH   3   4
ATOM      4  C   UNL     1       3.257   5.094  18.353  0.00  0.00    +0.000 A 
ATOM      5  C   UNL     1       1.945   4.657  18.128  0.00  0.00    +0.000 A 
ATOM      6  C   UNL     1       1.310   3.847  19.078  0.00  0.00    +0.000 A 
ATOM      7  C   UNL     1       2.002   3.442  20.217  0.00  0.00    +0.000 A 
ATOM      8 CL   UNL     1       1.194   2.585  21.468  0.00  0.00    +0.000 Cl
ATOM      9  C   UNL     1       3.351   3.745  20.359  0.00  0.00    +0.000 A 
ATOM     10  C   UNL     1       3.983   4.545  19.407  0.00  0.00    +0.000 A 
ENDBRANCH   3   4
ENDBRANCH   1   2
BRANCH   1  11
ATOM     11  C   UNL     1       7.083   5.300  16.498  0.00  0.00    +0.000 C 
BRANCH  11  12
ATOM     12  C   UNL     1       7.562   5.497  17.913  0.00  0.00    +0.000 C 
ATOM     13  C   UNL     1       7.873   6.669  18.494  0.00  0.00    +0.000 C 
BRANCH  13  14
ATOM     14  C   UNL     1       7.918   8.007  17.817  0.00  0.00    +0.000 C 
BRANCH  14  15
ATOM     15  C   UNL     1       8.650   9.028  18.674  0.00  0.00    +0.000 C 
BRANCH  15  16
ATOM     16  C   UNL     1       8.676  10.390  17.984  0.00  0.00    +0.000 C 
BRANCH  16  17
ATOM     17  C   UNL     1       9.718  11.282  18.642  0.00  0.00    +0.000 C 
BRANCH  17  18
ATOM     18  C   UNL     1      10.861  11.610  17.688  0.00  0.00    +0.000 C 
BRANCH  18  19
ATOM     19  C   UNL     1      10.845  13.100  17.388  0.00  0.00    +0.000 C 
BRANCH  19  20
ATOM     20  C   UNL     1      10.260  13.914  18.545  0.00  0.00    +0.000 C 
BRANCH  20  21
ATOM     21  C   UNL     1       9.531  15.138  18.016  0.00  0.00    +0.000 C 
ATOM     22  O   UNL     1      10.033  15.975  17.291  0.00  0.00    +0.000 OA
BRANCH  21  23
ATOM     23  O   UNL     1       8.258  15.135  18.490  0.00  0.00    +0.000 OA
ATOM     24  C   UNL     1       7.646  16.428  18.397  0.00  0.00    +0.000 C 
ENDBRANCH  21  23
ENDBRANCH  20  21
ENDBRANCH  19  20
ENDBRANCH  18  19
ENDBRANCH  17  18
ENDBRANCH  16  17
ENDBRANCH  15  16
ENDBRANCH  14  15
ENDBRANCH  13  14
ENDBRANCH  11  12
ENDBRANCH   1  11
BRANCH   1  25
ATOM     25  C   UNL     1       5.337   4.747  14.751  0.00  0.00    +0.000 C 
BRANCH  25  26
ATOM     26  C   UNL     1       6.490   4.022  14.032  0.00  0.00    +0.000 C 
BRANCH  26  27
ATOM     27  C   UNL     1       6.111   3.333  12.715  0.00  0.00    +0.000 C 
BRANCH  27  28
ATOM     28  C   UNL     1       4.779   3.859  12.189  0.00  0.00    +0.000 C 
BRANCH  28  30
ATOM     29  C   UNL     1       3.256   3.755  10.213  0.00  0.00    +0.000 C 
ATOM     30  C   UNL     1       4.175   2.953  11.123  0.00  0.00    +0.000 C 
ENDBRANCH  28  30
ENDBRANCH  27  28
ENDBRANCH  26  27
ENDBRANCH  25  26
ENDBRANCH   1  25
TORSDOF 18
ENDMDL
MODEL 2
REMARK VINA RESULT:      -6.9      1.234      2.036
REMARK  Name = 
REMARK  20 active torsions:
REMARK  status: ('A' for Active; 'I' for Inactive)
REMARK    1  A    between atoms: C_1  and  C_2
REMARK    2  A    between atoms: C_2  and  C_3
REMARK    3  A    between atoms: C_3  and  C_4
REMARK    4  A    between atoms: C_4  and  C_5
REMARK    5  A    between atoms: C_5  and  C_6
REMARK    6  A    between atoms: C_6  and  C_7
REMARK    7  A    between atoms: C_7  and  C_8
REMARK    8  A    between atoms: C_7  and  N_22
REMARK    9  A    between atoms: C_8  and  C_9
REMARK   10  A    between atoms: C_10  and  C_11
REMARK   11  A    between atoms: C_11  and  C_12
REMARK   12  A    between atoms: C_12  and  C_13
REMARK   13  A    between atoms: C_13  and  C_14
REMARK   14  A    between atoms: C_14  and  C_15
REMARK   15  A    between atoms: C_15  and  C_16
REMARK   16  A    between atoms: C_16  and  C_17
REMARK   17  A    between atoms: C_17  and  C_18
REMARK   18  A    between atoms: C_18  and  O_20
REMARK   19  A    between atoms: O_20  and  C_21
REMARK   20  A    between atoms: C_23  and  C_24
REMARK                            x       y       z     vdW  Elec       q    Type
REMARK                         _______ _______ _______ _____ _____    ______ ____
ROOT
ATOM      1  C   UNL     1       6.012   6.009  18.011  0.00  0.00    +0.000 C 
ENDROOT
BRANCH   1   2
ATOM      2  N   UNL     1       5.022   6.826  17.296  0.00  0.00    +0.000 NA
ATOM      3  C   UNL     1       3.742   6.747  17.407  0.00  0.00    +0.000 C 
BRANCH   3   4
ATOM      4  C   UNL     1       2.893   5.869  18.246  0.00  0.00    +0.000 A 
ATOM      5  C   UNL     1       2.669   6.251  19.575  0.00  0.00    +0.000 A 
ATOM      6  C   UNL     1       2.114   5.335  20.477  0.00  0.00    +0.000 A 
ATOM      7  C   UNL     1       1.745   4.066  20.037  0.00  0.00    +0.000 A 
ATOM      8 CL   UNL     1       1.214   2.877  21.159  0.00  0.00    +0.000 Cl
ATOM      9  C   UNL     1       1.821   3.746  18.687  0.00  0.00    +0.000 A 
ATOM     10  C   UNL     1       2.366   4.663  17.790  0.00  0.00    +0.000 A 
ENDBRANCH   3   4
ENDBRANCH   1   2
BRANCH   1  11
ATOM     11  C   UNL     1       7.411   6.660  18.027  0.00  0.00    +0.000 C 
BRANCH  11  12
ATOM     12  C   UNL     1       7.604   7.975  17.317  0.00  0.00    +0.000 C 
ATOM     13  C   UNL     1       8.271   9.044  17.785  0.00  0.00    +0.000 C 
BRANCH  13  14
ATOM     14  C   UNL     1       8.861   9.187  19.157  0.00  0.00    +0.000 C 
BRANCH  14  15
ATOM     15  C   UNL     1       9.625  10.495  19.289  0.00  0.00    +0.000 C 
BRANCH  15  16
ATOM     16  C   UNL     1       9.169  11.494  18.228  0.00  0.00    +0.000 C 
BRANCH  16  17
ATOM     17  C   UNL     1      10.379  12.162  17.593  0.00  0.00    +0.000 C 
BRANCH  17  18
ATOM     18  C   UNL     1      11.158  12.995  18.604  0.00  0.00    +0.000 C 
BRANCH  18  19
ATOM     19  C   UNL     1      10.223  14.016  19.231  0.00  0.00    +0.000 C 
BRANCH  19  20
ATOM     20  C   UNL     1       9.951  15.198  18.296  0.00  0.00    +0.000 C 
BRANCH  20  21
ATOM     21  C   UNL     1       8.469  15.531  18.282  0.00  0.00    +0.000 C 
ATOM     22  O   UNL     1       7.622  14.867  17.713  0.00  0.00    +0.000 OA
BRANCH  21  23
ATOM     23  O   UNL     1       8.263  16.671  18.991  0.00  0.00    +0.000 OA
ATOM     24  C   UNL     1       8.688  17.836  18.271  0.00  0.00    +0.000 C 
ENDBRANCH  21  23
ENDBRANCH  20  21
ENDBRANCH  19  20
ENDBRANCH  18  19
ENDBRANCH  17  18
ENDBRANCH  16  17
ENDBRANCH  15  16
ENDBRANCH  14  15
ENDBRANCH  13  14
ENDBRANCH  11  12
ENDBRANCH   1  11
BRANCH   1  25
ATOM     25  C   UNL     1       6.079   4.641  17.284  0.00  0.00    +0.000 C 
BRANCH  25  26
ATOM     26  C   UNL     1       6.969   4.620  16.027  0.00  0.00    +0.000 C 
BRANCH  26  27
ATOM     27  C   UNL     1       6.226   4.772  14.694  0.00  0.00    +0.000 C 
BRANCH  27  28
ATOM     28  C   UNL     1       7.203   4.765  13.522  0.00  0.00    +0.000 C 
BRANCH  28  30
ATOM     29  C   UNL     1       5.296   3.429  12.622  0.00  0.00    +0.000 C 
ATOM     30  C   UNL     1       6.721   3.898  12.366  0.00  0.00    +0.000 C 
ENDBRANCH  28  30
ENDBRANCH  27  28
ENDBRANCH  26  27
ENDBRANCH  25  26
ENDBRANCH   1  25
TORSDOF 18
ENDMDL
MODEL 3
REMARK VINA RESULT:      -6.7      3.171      4.711
REMARK  Name = 
REMARK  20 active torsions:
REMARK  status: ('A' for Active; 'I' for Inactive)
REMARK    1  A    between atoms: C_1  and  C_2
REMARK    2  A    between atoms: C_2  and  C_3
REMARK    3  A    between atoms: C_3  and  C_4
REMARK    4  A    between atoms: C_4  and  C_5
REMARK    5  A    between atoms: C_5  and  C_6
REMARK    6  A    between atoms: C_6  and  C_7
REMARK    7  A    between atoms: C_7  and  C_8
REMARK    8  A    between atoms: C_7  and  N_22
REMARK    9  A    between atoms: C_8  and  C_9
REMARK   10  A    between atoms: C_10  and  C_11
REMARK   11  A    between atoms: C_11  and  C_12
REMARK   12  A    between atoms: C_12  and  C_13
REMARK   13  A    between atoms: C_13  and  C_14
REMARK   14  A    between atoms: C_14  and  C_15
REMARK   15  A    between atoms: C_15  and  C_16
REMARK   16  A    between atoms: C_16  and  C_17
REMARK   17  A    between atoms: C_17  and  C_18
REMARK   18  A    between atoms: C_18  and  O_20
REMARK   19  A    between atoms: O_20  and  C_21
REMARK   20  A    between atoms: C_23  and  C_24
REMARK                            x       y       z     vdW  Elec       q    Type
REMARK                         _______ _______ _______ _____ _____    ______ ____
ROOT
ATOM      1  C   UNL     1       4.118   5.280  18.343  0.00  0.00    +0.000 C 
ENDROOT
BRANCH   1   2
ATOM      2  N   UNL     1       4.140   6.389  17.380  0.00  0.00    +0.000 NA
ATOM      3  C   UNL     1       3.430   7.462  17.433  0.00  0.00    +0.000 C 
BRANCH   3   4
ATOM      4  C   UNL     1       2.426   7.914  18.423  0.00  0.00    +0.000 A 
ATOM      5  C   UNL     1       1.621   9.010  18.086  0.00  0.00    +0.000 A 
ATOM      6  C   UNL     1       0.858   9.643  19.075  0.00  0.00    +0.000 A 
ATOM      7  C   UNL     1       0.869   9.152  20.379  0.00  0.00    +0.000 A 
ATOM      8 CL   UNL     1       0.070  10.007  21.637  0.00  0.00    +0.000 Cl
ATOM      9  C   UNL     1       1.542   7.972  20.675  0.00  0.00    +0.000 A 
ATOM     10  C   UNL     1       2.293   7.339  19.685  0.00  0.00    +0.000 A 
ENDBRANCH   3   4
ENDBRANCH   1   2
BRANCH   1  11
ATOM     11  C   UNL     1       5.451   5.136  19.106  0.00  0.00    +0.000 C 
BRANCH  11  12
ATOM     12  C   UNL     1       6.684   4.734  18.337  0.00  0.00    +0.000 C 
ATOM     13  C   UNL     1       7.790   5.476  18.160  0.00  0.00    +0.000 C 
BRANCH  13  14
ATOM     14  C   UNL     1       7.979   6.900  18.592  0.00  0.00    +0.000 C 
BRANCH  14  15
ATOM     15  C   UNL     1       7.467   7.864  17.533  0.00  0.00    +0.000 C 
BRANCH  15  16
ATOM     16  C   UNL     1       8.194   9.204  17.628  0.00  0.00    +0.000 C 
BRANCH  16  17
ATOM     17  C   UNL     1       8.848   9.340  18.995  0.00  0.00    +0.000 C 
BRANCH  17  18
ATOM     18  C   UNL     1       9.499  10.706  19.175  0.00  0.00    +0.000 C 
BRANCH  18  19
ATOM     19  C   UNL     1      10.154  11.120  17.868  0.00  0.00    +0.000 C 
BRANCH  19  20
ATOM     20  C   UNL     1      11.337  12.066  18.092  0.00  0.00    +0.000 C 
BRANCH  20  21
ATOM     21  C   UNL     1      10.842  13.446  18.490  0.00  0.00    +0.000 C 
ATOM     22  O   UNL     1       9.902  14.015  17.968  0.00  0.00    +0.000 OA
BRANCH  21  23
ATOM     23  O   UNL     1      11.617  13.921  19.499  0.00  0.00    +0.000 OA
ATOM     24  C   UNL     1      10.834  14.367  20.615  0.00  0.00    +0.000 C 
ENDBRANCH  21  23
ENDBRANCH  20  21
ENDBRANCH  19  20
ENDBRANCH  18  19
ENDBRANCH  17  18
ENDBRANCH  16  17
ENDBRANCH  15  16
ENDBRANCH  14  15
ENDBRANCH  13  14
ENDBRANCH  11  12
ENDBRANCH   1  11
BRANCH   1  25
ATOM     25  C   UNL     1       3.833   3.986  17.536  0.00  0.00    +0.000 C 
BRANCH  25  26
ATOM     26  C   UNL     1       3.452   2.763  18.391  0.00  0.00    +0.000 C 
BRANCH  26  27
ATOM     27  C   UNL     1       3.898   2.823  19.858  0.00  0.00    +0.000 C 
BRANCH  27  28
ATOM     28  C   UNL     1       2.721   2.568  20.796  0.00  0.00    +0.000 C 
BRANCH  28  30
ATOM     29  C   UNL     1       0.806   4.090  20.299  0.00  0.00    +0.000 C 
ATOM     30  C   UNL     1       2.009   3.854  21.199  0.00  0.00    +0.000 C 
ENDBRANCH  28  30
ENDBRANCH  27  28
ENDBRANCH  26  27
ENDBRANCH  25  26
ENDBRANCH   1  25
TORSDOF 18
ENDMDL
MODEL 4
REMARK VINA RESULT:      -6.7      1.287      2.075
REMARK  Name = 
REMARK  20 active torsions:
REMARK  status: ('A' for Active; 'I' for Inactive)
REMARK    1  A    between atoms: C_1  and  C_2
REMARK    2  A    between atoms: C_2  and  C_3
REMARK    3  A    between atoms: C_3  and  C_4
REMARK    4  A    between atoms: C_4  and  C_5
REMARK    5  A    between atoms: C_5  and  C_6
REMARK    6  A    between atoms: C_6  and  C_7
REMARK    7  A    between atoms: C_7  and  C_8
REMARK    8  A    between atoms: C_7  and  N_22
REMARK    9  A    between atoms: C_8  and  C_9
REMARK   10  A    between atoms: C_10  and  C_11
REMARK   11  A    between atoms: C_11  and  C_12
REMARK   12  A    between atoms: C_12  and  C_13
REMARK   13  A    between atoms: C_13  and  C_14
REMARK   14  A    between atoms: C_14  and  C_15
REMARK   15  A    between atoms: C_15  and  C_16
REMARK   16  A    between atoms: C_16  and  C_17
REMARK   17  A    between atoms: C_17  and  C_18
REMARK   18  A    between atoms: C_18  and  O_20
REMARK   19  A    between atoms: O_20  and  C_21
REMARK   20  A    between atoms: C_23  and  C_24
REMARK                            x       y       z     vdW  Elec       q    Type
REMARK                         _______ _______ _______ _____ _____    ______ ____
ROOT
ATOM      1  C   UNL     1       6.066   6.281  17.711  0.00  0.00    +0.000 C 
ENDROOT
BRANCH   1   2
ATOM      2  N   UNL     1       4.807   6.327  16.955  0.00  0.00    +0.000 NA
ATOM      3  C   UNL     1       3.683   5.808  17.309  0.00  0.00    +0.000 C 
BRANCH   3   4
ATOM      4  C   UNL     1       3.304   5.049  18.524  0.00  0.00    +0.000 A 
ATOM      5  C   UNL     1       3.338   3.650  18.459  0.00  0.00    +0.000 A 
ATOM      6  C   UNL     1       2.735   2.892  19.470  0.00  0.00    +0.000 A 
ATOM      7  C   UNL     1       2.145   3.532  20.557  0.00  0.00    +0.000 A 
ATOM      8 CL   UNL     1       1.262   2.631  21.723  0.00  0.00    +0.000 Cl
ATOM      9  C   UNL     1       2.252   4.911  20.698  0.00  0.00    +0.000 A 
ATOM     10  C   UNL     1       2.861   5.662  19.693  0.00  0.00    +0.000 A 
ENDBRANCH   3   4
ENDBRANCH   1   2
BRANCH   1  11
ATOM     11  C   UNL     1       7.051   7.389  17.282  0.00  0.00    +0.000 C 
BRANCH  11  12
ATOM     12  C   UNL     1       8.156   7.780  18.230  0.00  0.00    +0.000 C 
ATOM     13  C   UNL     1       8.573   9.029  18.497  0.00  0.00    +0.000 C 
BRANCH  13  14
ATOM     14  C   UNL     1       8.104  10.282  17.817  0.00  0.00    +0.000 C 
BRANCH  14  15
ATOM     15  C   UNL     1       8.960  11.473  18.219  0.00  0.00    +0.000 C 
BRANCH  15  16
ATOM     16  C   UNL     1      10.433  11.078  18.289  0.00  0.00    +0.000 C 
BRANCH  16  17
ATOM     17  C   UNL     1      11.087  11.732  19.497  0.00  0.00    +0.000 C 
BRANCH  17  18
ATOM     18  C   UNL     1      10.066  12.062  20.580  0.00  0.00    +0.000 C 
BRANCH  18  19
ATOM     19  C   UNL     1      10.324  13.469  21.093  0.00  0.00    +0.000 C 
BRANCH  19  20
ATOM     20  C   UNL     1      10.363  14.497  19.959  0.00  0.00    +0.000 C 
BRANCH  20  21
ATOM     21  C   UNL     1       8.963  15.006  19.658  0.00  0.00    +0.000 C 
ATOM     22  O   UNL     1       8.418  14.915  18.575  0.00  0.00    +0.000 OA
BRANCH  21  23
ATOM     23  O   UNL     1       8.446  15.570  20.780  0.00  0.00    +0.000 OA
ATOM     24  C   UNL     1       7.374  16.475  20.483  0.00  0.00    +0.000 C 
ENDBRANCH  21  23
ENDBRANCH  20  21
ENDBRANCH  19  20
ENDBRANCH  18  19
ENDBRANCH  17  18
ENDBRANCH  16  17
ENDBRANCH  15  16
ENDBRANCH  14  15
ENDBRANCH  13  14
ENDBRANCH  11  12
ENDBRANCH   1  11
BRANCH   1  25
ATOM     25  C   UNL     1       6.698   4.889  17.453  0.00  0.00    +0.000 C 
BRANCH  25  26
ATOM     26  C   UNL     1       7.056   4.604  15.982  0.00  0.00    +0.000 C 
BRANCH  26  27
ATOM     27  C   UNL     1       6.081   3.683  15.236  0.00  0.00    +0.000 C 
BRANCH  27  28
ATOM     28  C   UNL     1       5.589   4.340  13.949  0.00  0.00    +0.000 C 
BRANCH  28  30
ATOM     29  C   UNL     1       4.593   3.307  11.907  0.00  0.00    +0.000 C 
ATOM     30  C   UNL     1       5.868   3.488  12.717  0.00  0.00    +0.000 C 
ENDBRANCH  28  30
ENDBRANCH  27  28
ENDBRANCH  26  27
ENDBRANCH  25  26
ENDBRANCH   1  25
TORSDOF 18
ENDMDL
MODEL 5
REMARK VINA RESULT:      -6.7      3.246      6.069
REMARK  Name = 
REMARK  20 active torsions:
REMARK  status: ('A' for Active; 'I' for Inactive)
REMARK    1  A    between atoms: C_1  and  C_2
REMARK    2  A    between atoms: C_2  and  C_3
REMARK    3  A    between atoms: C_3  and  C_4
REMARK    4  A    between atoms: C_4  and  C_5
REMARK    5  A    between atoms: C_5  and  C_6
REMARK    6  A    between atoms: C_6  and  C_7
REMARK    7  A    between atoms: C_7  and  C_8
REMARK    8  A    between atoms: C_7  and  N_22
REMARK    9  A    between atoms: C_8  and  C_9
REMARK   10  A    between atoms: C_10  and  C_11
REMARK   11  A    between atoms: C_11  and  C_12
REMARK   12  A    between atoms: C_12  and  C_13
REMARK   13  A    between atoms: C_13  and  C_14
REMARK   14  A    between atoms: C_14  and  C_15
REMARK   15  A    between atoms: C_15  and  C_16
REMARK   16  A    between atoms: C_16  and  C_17
REMARK   17  A    between atoms: C_17  and  C_18
REMARK   18  A    between atoms: C_18  and  O_20
REMARK   19  A    between atoms: O_20  and  C_21
REMARK   20  A    between atoms: C_23  and  C_24
REMARK                            x       y       z     vdW  Elec       q    Type
REMARK                         _______ _______ _______ _____ _____    ______ ____
ROOT
ATOM      1  C   UNL     1       2.360   7.708  18.268  0.00  0.00    +0.000 C 
ENDROOT
BRANCH   1   2
ATOM      2  N   UNL     1       2.149   7.557  19.714  0.00  0.00    +0.000 NA
ATOM      3  C   UNL     1       2.182   6.456  20.381  0.00  0.00    +0.000 C 
BRANCH   3   4
ATOM      4  C   UNL     1       2.438   5.064  19.944  0.00  0.00    +0.000 A 
ATOM      5  C   UNL     1       3.711   4.528  20.180  0.00  0.00    +0.000 A 
ATOM      6  C   UNL     1       4.090   3.335  19.552  0.00  0.00    +0.000 A 
ATOM      7  C   UNL     1       3.184   2.665  18.733  0.00  0.00    +0.000 A 
ATOM      8 CL   UNL     1       3.681   1.291  17.829  0.00  0.00    +0.000 Cl
ATOM      9  C   UNL     1       1.873   3.115  18.628  0.00  0.00    +0.000 A 
ATOM     10  C   UNL     1       1.497   4.298  19.261  0.00  0.00    +0.000 A 
ENDBRANCH   3   4
ENDBRANCH   1   2
BRANCH   1  11
ATOM     11  C   UNL     1       3.795   7.334  17.840  0.00  0.00    +0.000 C 
BRANCH  11  12
ATOM     12  C   UNL     1       3.994   6.133  16.951  0.00  0.00    +0.000 C 
ATOM     13  C   UNL     1       5.171   5.618  16.558  0.00  0.00    +0.000 C 
BRANCH  13  14
ATOM     14  C   UNL     1       6.526   6.202  16.828  0.00  0.00    +0.000 C 
BRANCH  14  15
ATOM     15  C   UNL     1       7.158   5.571  18.059  0.00  0.00    +0.000 C 
BRANCH  15  16
ATOM     16  C   UNL     1       7.993   6.598  18.821  0.00  0.00    +0.000 C 
BRANCH  16  17
ATOM     17  C   UNL     1       7.971   7.929  18.085  0.00  0.00    +0.000 C 
BRANCH  17  18
ATOM     18  C   UNL     1       8.796   8.986  18.809  0.00  0.00    +0.000 C 
BRANCH  18  19
ATOM     19  C   UNL     1       8.750  10.282  18.016  0.00  0.00    +0.000 C 
BRANCH  19  20
ATOM     20  C   UNL     1       9.429  11.436  18.759  0.00  0.00    +0.000 C 
BRANCH  20  21
ATOM     21  C   UNL     1      10.338  12.208  17.817  0.00  0.00    +0.000 C 
ATOM     22  O   UNL     1       9.968  13.118  17.099  0.00  0.00    +0.000 OA
BRANCH  21  23
ATOM     23  O   UNL     1      11.599  11.712  17.911  0.00  0.00    +0.000 OA
ATOM     24  C   UNL     1      12.008  11.537  19.274  0.00  0.00    +0.000 C 
ENDBRANCH  21  23
ENDBRANCH  20  21
ENDBRANCH  19  20
ENDBRANCH  18  19
ENDBRANCH  17  18
ENDBRANCH  16  17
ENDBRANCH  15  16
ENDBRANCH  14  15
ENDBRANCH  13  14
ENDBRANCH  11  12
ENDBRANCH   1  11
BRANCH   1  25
ATOM     25  C   UNL     1       2.081   9.194  17.922  0.00  0.00    +0.000 C 
BRANCH  25  26
ATOM     26  C   UNL     1       0.613   9.630  18.090  0.00  0.00    +0.000 C 
BRANCH  26  27
ATOM     27  C   UNL     1       0.353  10.641  19.214  0.00  0.00    +0.000 C 
BRANCH  27  28
ATOM     28  C   UNL     1      -0.228   9.949  20.444  0.00  0.00    +0.000 C 
BRANCH  28  30
ATOM     29  C   UNL     1      -0.574   9.997  22.916  0.00  0.00    +0.000 C 
ATOM     30  C   UNL     1      -0.025  10.758  21.719  0.00  0.00    +0.000 C 
ENDBRANCH  28  30
ENDBRANCH  27  28
ENDBRANCH  26  27
ENDBRANCH  25  26
ENDBRANCH   1  25
TORSDOF 18
ENDMDL
MODEL 6
REMARK VINA RESULT:      -6.6      3.539      5.392
REMARK  Name = 
REMARK  20 active torsions:
REMARK  status: ('A' for Active; 'I' for Inactive)
REMARK    1  A    between atoms: C_1  and  C_2
REMARK    2  A    between atoms: C_2  and  C_3
REMARK    3  A    between atoms: C_3  and  C_4
REMARK    4  A    between atoms: C_4  and  C_5
REMARK    5  A    between atoms: C_5  and  C_6
REMARK    6  A    between atoms: C_6  and  C_7
REMARK    7  A    between atoms: C_7  and  C_8
REMARK    8  A    between atoms: C_7  and  N_22
REMARK    9  A    between atoms: C_8  and  C_9
REMARK   10  A    between atoms: C_10  and  C_11
REMARK   11  A    between atoms: C_11  and  C_12
REMARK   12  A    between atoms: C_12  and  C_13
REMARK   13  A    between atoms: C_13  and  C_14
REMARK   14  A    between atoms: C_14  and  C_15
REMARK   15  A    between atoms: C_15  and  C_16
REMARK   16  A    between atoms: C_16  and  C_17
REMARK   17  A    between atoms: C_17  and  C_18
REMARK   18  A    between atoms: C_18  and  O_20
REMARK   19  A    between atoms: O_20  and  C_21
REMARK   20  A    between atoms: C_23  and  C_24
REMARK                            x       y       z     vdW  Elec       q    Type
REMARK                         _______ _______ _______ _____ _____    ______ ____
ROOT
ATOM      1  C   UNL     1       3.083   5.814  18.578  0.00  0.00    +0.000 C 
ENDROOT
BRANCH   1   2
ATOM      2  N   UNL     1       3.248   7.063  17.822  0.00  0.00    +0.000 NA
ATOM      3  C   UNL     1       2.664   8.186  18.063  0.00  0.00    +0.000 C 
BRANCH   3   4
ATOM      4  C   UNL     1       1.701   8.571  19.121  0.00  0.00    +0.000 A 
ATOM      5  C   UNL     1       0.837   9.643  18.860  0.00  0.00    +0.000 A 
ATOM      6  C   UNL     1       0.108  10.220  19.907  0.00  0.00    +0.000 A 
ATOM      7  C   UNL     1       0.212   9.696  21.194  0.00  0.00    +0.000 A 
ATOM      8 CL   UNL     1      -0.545  10.486  22.519  0.00  0.00    +0.000 Cl
ATOM      9  C   UNL     1       0.945   8.536  21.419  0.00  0.00    +0.000 A 
ATOM     10  C   UNL     1       1.663   7.959  20.371  0.00  0.00    +0.000 A 
ENDBRANCH   3   4
ENDBRANCH   1   2
BRANCH   1  11
ATOM     11  C   UNL     1       4.329   4.908  18.496  0.00  0.00    +0.000 C 
BRANCH  11  12
ATOM     12  C   UNL     1       5.514   5.228  19.371  0.00  0.00    +0.000 C 
ATOM     13  C   UNL     1       6.783   5.403  18.963  0.00  0.00    +0.000 C 
BRANCH  13  14
ATOM     14  C   UNL     1       7.300   5.199  17.569  0.00  0.00    +0.000 C 
BRANCH  14  15
ATOM     15  C   UNL     1       7.597   6.531  16.897  0.00  0.00    +0.000 C 
BRANCH  15  16
ATOM     16  C   UNL     1       7.161   7.692  17.789  0.00  0.00    +0.000 C 
BRANCH  16  17
ATOM     17  C   UNL     1       8.381   8.475  18.249  0.00  0.00    +0.000 C 
BRANCH  17  18
ATOM     18  C   UNL     1       8.331   9.924  17.779  0.00  0.00    +0.000 C 
BRANCH  18  19
ATOM     19  C   UNL     1       9.520  10.675  18.355  0.00  0.00    +0.000 C 
BRANCH  19  20
ATOM     20  C   UNL     1       9.119  12.038  18.925  0.00  0.00    +0.000 C 
BRANCH  20  21
ATOM     21  C   UNL     1       9.566  12.159  20.372  0.00  0.00    +0.000 C 
ATOM     22  O   UNL     1      10.609  11.709  20.808  0.00  0.00    +0.000 OA
BRANCH  21  23
ATOM     23  O   UNL     1       8.619  12.834  21.074  0.00  0.00    +0.000 OA
ATOM     24  C   UNL     1       8.381  12.246  22.360  0.00  0.00    +0.000 C 
ENDBRANCH  21  23
ENDBRANCH  20  21
ENDBRANCH  19  20
ENDBRANCH  18  19
ENDBRANCH  17  18
ENDBRANCH  16  17
ENDBRANCH  15  16
ENDBRANCH  14  15
ENDBRANCH  13  14
ENDBRANCH  11  12
ENDBRANCH   1  11
BRANCH   1  25
ATOM     25  C   UNL     1       1.859   5.078  17.974  0.00  0.00    +0.000 C 
BRANCH  25  26
ATOM     26  C   UNL     1       2.043   3.559  17.793  0.00  0.00    +0.000 C 
BRANCH  26  27
ATOM     27  C   UNL     1       1.302   2.683  18.812  0.00  0.00    +0.000 C 
BRANCH  27  28
ATOM     28  C   UNL     1       0.851   3.509  20.014  0.00  0.00    +0.000 C 
BRANCH  28  30
ATOM     29  C   UNL     1       2.755   2.751  21.440  0.00  0.00    +0.000 C 
ATOM     30  C   UNL     1       1.241   2.869  21.340  0.00  0.00    +0.000 C 
ENDBRANCH  28  30
ENDBRANCH  27  28
ENDBRANCH  26  27
ENDBRANCH  25  26
ENDBRANCH   1  25
TORSDOF 18
ENDMDL
MODEL 7
REMARK VINA RESULT:      -6.5      4.614      9.352
REMARK  Name = 
REMARK  20 active torsions:
REMARK  status: ('A' for Active; 'I' for Inactive)
REMARK    1  A    between atoms: C_1  and  C_2
REMARK    2  A    between atoms: C_2  and  C_3
REMARK    3  A    between atoms: C_3  and  C_4
REMARK    4  A    between atoms: C_4  and  C_5
REMARK    5  A    between atoms: C_5  and  C_6
REMARK    6  A    between atoms: C_6  and  C_7
REMARK    7  A    between atoms: C_7  and  C_8
REMARK    8  A    between atoms: C_7  and  N_22
REMARK    9  A    between atoms: C_8  and  C_9
REMARK   10  A    between atoms: C_10  and  C_11
REMARK   11  A    between atoms: C_11  and  C_12
REMARK   12  A    between atoms: C_12  and  C_13
REMARK   13  A    between atoms: C_13  and  C_14
REMARK   14  A    between atoms: C_14  and  C_15
REMARK   15  A    between atoms: C_15  and  C_16
REMARK   16  A    between atoms: C_16  and  C_17
REMARK   17  A    between atoms: C_17  and  C_18
REMARK   18  A    between atoms: C_18  and  O_20
REMARK   19  A    between atoms: O_20  and  C_21
REMARK   20  A    between atoms: C_23  and  C_24
REMARK                            x       y       z     vdW  Elec       q    Type
REMARK                         _______ _______ _______ _____ _____    ______ ____
ROOT
ATOM      1  C   UNL     1       6.559   6.316  18.611  0.00  0.00    +0.000 C 
ENDROOT
BRANCH   1   2
ATOM      2  N   UNL     1       7.492   5.185  18.503  0.00  0.00    +0.000 NA
ATOM      3  C   UNL     1       7.636   4.408  17.486  0.00  0.00    +0.000 C 
BRANCH   3   4
ATOM      4  C   UNL     1       6.963   4.400  16.167  0.00  0.00    +0.000 A 
ATOM      5  C   UNL     1       5.779   3.660  16.041  0.00  0.00    +0.000 A 
ATOM      6  C   UNL     1       5.257   3.394  14.770  0.00  0.00    +0.000 A 
ATOM      7  C   UNL     1       5.892   3.904  13.639  0.00  0.00    +0.000 A 
ATOM      8 CL   UNL     1       5.362   3.457  12.067  0.00  0.00    +0.000 Cl
ATOM      9  C   UNL     1       6.972   4.768  13.776  0.00  0.00    +0.000 A 
ATOM     10  C   UNL     1       7.484   5.038  15.045  0.00  0.00    +0.000 A 
ENDBRANCH   3   4
ENDBRANCH   1   2
BRANCH   1  11
ATOM     11  C   UNL     1       5.144   5.963  18.107  0.00  0.00    +0.000 C 
BRANCH  11  12
ATOM     12  C   UNL     1       4.448   6.924  17.178  0.00  0.00    +0.000 C 
ATOM     13  C   UNL     1       3.214   7.432  17.335  0.00  0.00    +0.000 C 
BRANCH  13  14
ATOM     14  C   UNL     1       2.233   7.057  18.406  0.00  0.00    +0.000 C 
BRANCH  14  15
ATOM     15  C   UNL     1       2.172   8.124  19.489  0.00  0.00    +0.000 C 
BRANCH  15  16
ATOM     16  C   UNL     1       1.627   7.539  20.790  0.00  0.00    +0.000 C 
BRANCH  16  17
ATOM     17  C   UNL     1       0.972   6.193  20.516  0.00  0.00    +0.000 C 
BRANCH  17  18
ATOM     18  C   UNL     1       1.889   5.035  20.891  0.00  0.00    +0.000 C 
BRANCH  18  19
ATOM     19  C   UNL     1       1.262   3.733  20.418  0.00  0.00    +0.000 C 
BRANCH  19  20
ATOM     20  C   UNL     1       2.252   2.870  19.631  0.00  0.00    +0.000 C 
BRANCH  20  21
ATOM     21  C   UNL     1       1.986   2.988  18.140  0.00  0.00    +0.000 C 
ATOM     22  O   UNL     1       1.149   3.721  17.648  0.00  0.00    +0.000 OA
BRANCH  21  23
ATOM     23  O   UNL     1       2.821   2.149  17.473  0.00  0.00    +0.000 OA
ATOM     24  C   UNL     1       3.687   1.432  18.363  0.00  0.00    +0.000 C 
ENDBRANCH  21  23
ENDBRANCH  20  21
ENDBRANCH  19  20
ENDBRANCH  18  19
ENDBRANCH  17  18
ENDBRANCH  16  17
ENDBRANCH  15  16
ENDBRANCH  14  15
ENDBRANCH  13  14
ENDBRANCH  11  12
ENDBRANCH   1  11
BRANCH   1  25
ATOM     25  C   UNL     1       7.147   7.470  17.758  0.00  0.00    +0.000 C 
BRANCH  25  26
ATOM     26  C   UNL     1       8.424   8.112  18.332  0.00  0.00    +0.000 C 
BRANCH  26  27
ATOM     27  C   UNL     1       8.486   9.642  18.243  0.00  0.00    +0.000 C 
BRANCH  27  28
ATOM     28  C   UNL     1       9.239  10.227  19.435  0.00  0.00    +0.000 C 
BRANCH  28  30
ATOM     29  C   UNL     1      10.085  11.834  17.723  0.00  0.00    +0.000 C 
ATOM     30  C   UNL     1      10.416  11.096  19.012  0.00  0.00    +0.000 C 
ENDBRANCH  28  30
ENDBRANCH  27  28
ENDBRANCH  26  27
ENDBRANCH  25  26
ENDBRANCH   1  25
TORSDOF 18
ENDMDL
MODEL 8
REMARK VINA RESULT:      -6.5      5.586      8.276
REMARK  Name = 
REMARK  20 active torsions:
REMARK  status: ('A' for Active; 'I' for Inactive)
REMARK    1  A    between atoms: C_1  and  C_2
REMARK    2  A    between atoms: C_2  and  C_3
REMARK    3  A    between atoms: C_3  and  C_4
REMARK    4  A    between atoms: C_4  and  C_5
REMARK    5  A    between atoms: C_5  and  C_6
REMARK    6  A    between atoms: C_6  and  C_7
REMARK    7  A    between atoms: C_7  and  C_8
REMARK    8  A    between atoms: C_7  and  N_22
REMARK    9  A    between atoms: C_8  and  C_9
REMARK   10  A    between atoms: C_10  and  C_11
REMARK   11  A    between atoms: C_11  and  C_12
REMARK   12  A    between atoms: C_12  and  C_13
REMARK   13  A    between atoms: C_13  and  C_14
REMARK   14  A    between atoms: C_14  and  C_15
REMARK   15  A    between atoms: C_15  and  C_16
REMARK   16  A    between atoms: C_16  and  C_17
REMARK   17  A    between atoms: C_17  and  C_18
REMARK   18  A    between atoms: C_18  and  O_20
REMARK   19  A    between atoms: O_20  and  C_21
REMARK   20  A    between atoms: C_23  and  C_24
REMARK                            x       y       z     vdW  Elec       q    Type
REMARK                         _______ _______ _______ _____ _____    ______ ____
ROOT
ATOM      1  C   UNL     1       5.337   5.886  17.422  0.00  0.00    +0.000 C 
ENDROOT
BRANCH   1   2
ATOM      2  N   UNL     1       5.087   4.839  16.422  0.00  0.00    +0.000 NA
ATOM      3  C   UNL     1       4.370   3.781  16.585  0.00  0.00    +0.000 C 
BRANCH   3   4
ATOM      4  C   UNL     1       3.600   3.301  17.756  0.00  0.00    +0.000 A 
ATOM      5  C   UNL     1       2.206   3.436  17.722  0.00  0.00    +0.000 A 
ATOM      6  C   UNL     1       1.461   3.257  18.895  0.00  0.00    +0.000 A 
ATOM      7  C   UNL     1       2.106   2.903  20.078  0.00  0.00    +0.000 A 
ATOM      8 CL   UNL     1       1.235   2.838  21.557  0.00  0.00    +0.000 Cl
ATOM      9  C   UNL     1       3.466   2.616  20.073  0.00  0.00    +0.000 A 
ATOM     10  C   UNL     1       4.203   2.786  18.901  0.00  0.00    +0.000 A 
ENDBRANCH   3   4
ENDBRANCH   1   2
BRANCH   1  11
ATOM     11  C   UNL     1       4.215   6.944  17.461  0.00  0.00    +0.000 C 
BRANCH  11  12
ATOM     12  C   UNL     1       3.156   6.835  18.527  0.00  0.00    +0.000 C 
ATOM     13  C   UNL     1       2.131   7.682  18.723  0.00  0.00    +0.000 C 
BRANCH  13  14
ATOM     14  C   UNL     1       1.899   8.973  17.994  0.00  0.00    +0.000 C 
BRANCH  14  15
ATOM     15  C   UNL     1       1.033   9.916  18.815  0.00  0.00    +0.000 C 
BRANCH  15  16
ATOM     16  C   UNL     1       1.085   9.542  20.294  0.00  0.00    +0.000 C 
BRANCH  16  17
ATOM     17  C   UNL     1      -0.327   9.371  20.834  0.00  0.00    +0.000 C 
BRANCH  17  18
ATOM     18  C   UNL     1      -0.560  10.217  22.080  0.00  0.00    +0.000 C 
BRANCH  18  19
ATOM     19  C   UNL     1      -0.973  11.618  21.660  0.00  0.00    +0.000 C 
BRANCH  19  20
ATOM     20  C   UNL     1      -1.074  12.570  22.854  0.00  0.00    +0.000 C 
BRANCH  20  21
ATOM     21  C   UNL     1      -2.530  12.878  23.164  0.00  0.00    +0.000 C 
ATOM     22  O   UNL     1      -3.422  12.052  23.157  0.00  0.00    +0.000 OA
BRANCH  21  23
ATOM     23  O   UNL     1      -2.655  14.203  23.434  0.00  0.00    +0.000 OA
ATOM     24  C   UNL     1      -3.911  14.510  24.054  0.00  0.00    +0.000 C 
ENDBRANCH  21  23
ENDBRANCH  20  21
ENDBRANCH  19  20
ENDBRANCH  18  19
ENDBRANCH  17  18
ENDBRANCH  16  17
ENDBRANCH  15  16
ENDBRANCH  14  15
ENDBRANCH  13  14
ENDBRANCH  11  12
ENDBRANCH   1  11
BRANCH   1  25
ATOM     25  C   UNL     1       6.682   6.560  17.044  0.00  0.00    +0.000 C 
BRANCH  25  26
ATOM     26  C   UNL     1       6.873   7.980  17.608  0.00  0.00    +0.000 C 
BRANCH  26  27
ATOM     27  C   UNL     1       8.318   8.357  17.959  0.00  0.00    +0.000 C 
BRANCH  27  28
ATOM     28  C   UNL     1       8.458   9.866  18.145  0.00  0.00    +0.000 C 
BRANCH  28  30
ATOM     29  C   UNL     1      10.122  11.474  19.080  0.00  0.00    +0.000 C 
ATOM     30  C   UNL     1       9.296  10.228  19.364  0.00  0.00    +0.000 C 
ENDBRANCH  28  30
ENDBRANCH  27  28
ENDBRANCH  26  27
ENDBRANCH  25  26
ENDBRANCH   1  25
TORSDOF 18
ENDMDL
MODEL 9
REMARK VINA RESULT:      -6.4      5.316      8.245
REMARK  Name = 
REMARK  20 active torsions:
REMARK  status: ('A' for Active; 'I' for Inactive)
REMARK    1  A    between atoms: C_1  and  C_2
REMARK    2  A    between atoms: C_2  and  C_3
REMARK    3  A    between atoms: C_3  and  C_4
REMARK    4  A    between atoms: C_4  and  C_5
REMARK    5  A    between atoms: C_5  and  C_6
REMARK    6  A    between atoms: C_6  and  C_7
REMARK    7  A    between atoms: C_7  and  C_8
REMARK    8  A    between atoms: C_7  and  N_22
REMARK    9  A    between atoms: C_8  and  C_9
REMARK   10  A    between atoms: C_10  and  C_11
REMARK   11  A    between atoms: C_11  and  C_12
REMARK   12  A    between atoms: C_12  and  C_13
REMARK   13  A    between atoms: C_13  and  C_14
REMARK   14  A    between atoms: C_14  and  C_15
REMARK   15  A    between atoms: C_15  and  C_16
REMARK   16  A    between atoms: C_16  and  C_17
REMARK   17  A    between atoms: C_17  and  C_18
REMARK   18  A    between atoms: C_18  and  O_20
REMARK   19  A    between atoms: O_20  and  C_21
REMARK   20  A    between atoms: C_23  and  C_24
REMARK                            x       y       z     vdW  Elec       q    Type
REMARK                         _______ _______ _______ _____ _____    ______ ____
ROOT
ATOM      1  C   UNL     1       5.166   5.994  17.340  0.00  0.00    +0.000 C 
ENDROOT
BRANCH   1   2
ATOM      2  N   UNL     1       4.844   4.987  16.320  0.00  0.00    +0.000 NA
ATOM      3  C   UNL     1       4.146   3.919  16.493  0.00  0.00    +0.000 C 
BRANCH   3   4
ATOM      4  C   UNL     1       3.469   3.387  17.699  0.00  0.00    +0.000 A 
ATOM      5  C   UNL     1       2.068   3.365  17.706  0.00  0.00    +0.000 A 
ATOM      6  C   UNL     1       1.383   3.136  18.906  0.00  0.00    +0.000 A 
ATOM      7  C   UNL     1       2.098   2.885  20.075  0.00  0.00    +0.000 A 
ATOM      8 CL   UNL     1       1.283   2.762  21.583  0.00  0.00    +0.000 Cl
ATOM      9  C   UNL     1       3.480   2.750  20.033  0.00  0.00    +0.000 A 
ATOM     10  C   UNL     1       4.159   2.971  18.835  0.00  0.00    +0.000 A 
ENDBRANCH   3   4
ENDBRANCH   1   2
BRANCH   1  11
ATOM     11  C   UNL     1       4.153   7.158  17.359  0.00  0.00    +0.000 C 
BRANCH  11  12
ATOM     12  C   UNL     1       2.806   6.933  17.996  0.00  0.00    +0.000 C 
ATOM     13  C   UNL     1       1.970   7.882  18.451  0.00  0.00    +0.000 C 
BRANCH  13  14
ATOM     14  C   UNL     1       2.258   9.353  18.524  0.00  0.00    +0.000 C 
BRANCH  14  15
ATOM     15  C   UNL     1       0.986  10.168  18.342  0.00  0.00    +0.000 C 
BRANCH  15  16
ATOM     16  C   UNL     1       1.270  11.656  18.527  0.00  0.00    +0.000 C 
BRANCH  16  17
ATOM     17  C   UNL     1       0.047  12.346  19.112  0.00  0.00    +0.000 C 
BRANCH  17  18
ATOM     18  C   UNL     1      -1.179  12.165  18.225  0.00  0.00    +0.000 C 
BRANCH  18  19
ATOM     19  C   UNL     1      -2.358  11.747  19.088  0.00  0.00    +0.000 C 
BRANCH  19  20
ATOM     20  C   UNL     1      -3.660  11.669  18.284  0.00  0.00    +0.000 C 
BRANCH  20  21
ATOM     21  C   UNL     1      -3.627  10.480  17.339  0.00  0.00    +0.000 C 
ATOM     22  O   UNL     1      -3.339   9.346  17.672  0.00  0.00    +0.000 OA
BRANCH  21  23
ATOM     23  O   UNL     1      -3.959  10.897  16.090  0.00  0.00    +0.000 OA
ATOM     24  C   UNL     1      -3.019  10.448  15.104  0.00  0.00    +0.000 C 
ENDBRANCH  21  23
ENDBRANCH  20  21
ENDBRANCH  19  20
ENDBRANCH  18  19
ENDBRANCH  17  18
ENDBRANCH  16  17
ENDBRANCH  15  16
ENDBRANCH  14  15
ENDBRANCH  13  14
ENDBRANCH  11  12
ENDBRANCH   1  11
BRANCH   1  25
ATOM     25  C   UNL     1       6.581   6.536  17.010  0.00  0.00    +0.000 C 
BRANCH  25  26
ATOM     26  C   UNL     1       7.679   6.127  18.010  0.00  0.00    +0.000 C 
BRANCH  26  27
ATOM     27  C   UNL     1       8.340   7.285  18.769  0.00  0.00    +0.000 C 
BRANCH  27  28
ATOM     28  C   UNL     1       8.237   8.584  17.975  0.00  0.00    +0.000 C 
BRANCH  28  30
ATOM     29  C   UNL     1       8.583  11.056  17.966  0.00  0.00    +0.000 C 
ATOM     30  C   UNL     1       8.908   9.754  18.683  0.00  0.00    +0.000 C 
ENDBRANCH  28  30
ENDBRANCH  27  28
ENDBRANCH  26  27
ENDBRANCH  25  26
ENDBRANCH   1  25
TORSDOF 18
ENDMDL
