MODEL 1
REMARK VINA RESULT:      -7.4      0.000      0.000
REMARK  Name = 
REMARK  7 active torsions:
REMARK  status: ('A' for Active; 'I' for Inactive)
REMARK    1  A    between atoms: C_1  and  C_2
REMARK    2  A    between atoms: C_2  and  N_3
REMARK    3  A    between atoms: C_4  and  S_5
REMARK    4  A    between atoms: S_5  and  C_6
REMARK    5  A    between atoms: C_6  and  C_7
REMARK    6  A    between atoms: C_9  and  C_10
REMARK    7  A    between atoms: C_20  and  C_21
REMARK                            x       y       z     vdW  Elec       q    Type
REMARK                         _______ _______ _______ _____ _____    ______ ____
ROOT
ATOM      1  S   UNL     1       6.388   5.704  16.357  0.00  0.00    +0.000 S 
ENDROOT
BRANCH   1   3
ATOM      2  N   UNL     1       4.316   4.862  17.970  0.00  0.00    +0.000 N 
ATOM      3  C   UNL     1       5.225   4.568  16.980  0.00  0.00    +0.000 A 
ATOM      4  N   UNL     1       5.083   3.321  16.605  0.00  0.00    +0.000 NA
ATOM      5  N   UNL     1       4.082   2.770  17.375  0.00  0.00    +0.000 NA
ATOM      6  C   UNL     1       3.615   3.690  18.202  0.00  0.00    +0.000 A 
BRANCH   6   7
ATOM      7  C   UNL     1       2.591   3.434  19.196  0.00  0.00    +0.000 A 
ATOM      8  C   UNL     1       1.219   3.629  19.146  0.00  0.00    +0.000 A 
ATOM      9  C   UNL     1       0.550   3.283  20.363  0.00  0.00    +0.000 A 
ATOM     10  C   UNL     1       1.422   2.785  21.300  0.00  0.00    +0.000 A 
ATOM     11  S   UNL     1       3.029   2.750  20.720  0.00  0.00    +0.000 S 
ENDBRANCH   6   7
BRANCH   2  13
ATOM     12  C   UNL     1       3.072   6.997  18.080  0.00  0.00    +0.000 C 
ATOM     13  C   UNL     1       4.166   6.122  18.666  0.00  0.00    +0.000 C 
ENDBRANCH   2  13
ENDBRANCH   1   3
BRANCH   1  14
ATOM     14  C   UNL     1       7.479   6.013  17.789  0.00  0.00    +0.000 C 
BRANCH  14  15
ATOM     15  C   UNL     1       7.819   7.467  17.915  0.00  0.00    +0.000 A 
ATOM     16  N   UNL     1       8.690   8.096  18.681  0.00  0.00    +0.000 NA
ATOM     17  C   UNL     1       8.543   9.423  18.298  0.00  0.00    +0.000 A 
ATOM     18  N   UNL     1       7.628   9.594  17.327  0.00  0.00    +0.000 NA
ATOM     19  O   UNL     1       7.152   8.312  17.074  0.00  0.00    +0.000 OA
BRANCH  17  20
ATOM     20  C   UNL     1       9.301  10.533  18.890  0.00  0.00    +0.000 A 
ATOM     21  C   UNL     1       9.394  10.690  20.280  0.00  0.00    +0.000 A 
ATOM     22  C   UNL     1      10.114  11.759  20.836  0.00  0.00    +0.000 A 
ATOM     23  C   UNL     1      10.750  12.687  20.017  0.00  0.00    +0.000 A 
ATOM     24  C   UNL     1      10.670  12.545  18.636  0.00  0.00    +0.000 A 
ATOM     25  C   UNL     1       9.955  11.477  18.077  0.00  0.00    +0.000 A 
ENDBRANCH  17  20
ENDBRANCH  14  15
ENDBRANCH   1  14
TORSDOF 6
ENDMDL
MODEL 2
REMARK VINA RESULT:      -7.0      4.927      6.782
REMARK  Name = 
REMARK  7 active torsions:
REMARK  status: ('A' for Active; 'I' for Inactive)
REMARK    1  A    between atoms: C_1  and  C_2
REMARK    2  A    between atoms: C_2  and  N_3
REMARK    3  A    between atoms: C_4  and  S_5
REMARK    4  A    between atoms: S_5  and  C_6
REMARK    5  A    between atoms: C_6  and  C_7
REMARK    6  A    between atoms: C_9  and  C_10
REMARK    7  A    between atoms: C_20  and  C_21
REMARK                            x       y       z     vdW  Elec       q    Type
REMARK                         _______ _______ _______ _____ _____    ______ ____
ROOT
ATOM      1  S   UNL     1       3.271   4.253  18.542  0.00  0.00    +0.000 S 
ENDROOT
BRANCH   1   3
ATOM      2  N   UNL     1       2.134   6.391  19.861  0.00  0.00    +0.000 N 
ATOM      3  C   UNL     1       2.818   5.919  18.765  0.00  0.00    +0.000 A 
ATOM      4  N   UNL     1       3.055   6.904  17.934  0.00  0.00    +0.000 NA
ATOM      5  N   UNL     1       2.496   8.042  18.473  0.00  0.00    +0.000 NA
ATOM      6  C   UNL     1       1.936   7.742  19.633  0.00  0.00    +0.000 A 
BRANCH   6   7
ATOM      7  C   UNL     1       1.206   8.697  20.445  0.00  0.00    +0.000 A 
ATOM      8  C   UNL     1       0.900   8.681  21.797  0.00  0.00    +0.000 A 
ATOM      9  C   UNL     1       0.119   9.803  22.217  0.00  0.00    +0.000 A 
ATOM     10  C   UNL     1      -0.114  10.679  21.184  0.00  0.00    +0.000 A 
ATOM     11  S   UNL     1       0.592  10.141  19.724  0.00  0.00    +0.000 S 
ENDBRANCH   6   7
BRANCH   2  13
ATOM     12  C   UNL     1       0.900   4.372  20.581  0.00  0.00    +0.000 C 
ATOM     13  C   UNL     1       1.664   5.618  20.991  0.00  0.00    +0.000 C 
ENDBRANCH   2  13
ENDBRANCH   1   3
BRANCH   1  14
ATOM     14  C   UNL     1       5.053   4.246  18.942  0.00  0.00    +0.000 C 
BRANCH  14  15
ATOM     15  C   UNL     1       5.892   4.307  17.702  0.00  0.00    +0.000 A 
ATOM     16  N   UNL     1       5.560   4.331  16.424  0.00  0.00    +0.000 NA
ATOM     17  C   UNL     1       6.788   4.422  15.783  0.00  0.00    +0.000 A 
ATOM     18  N   UNL     1       7.827   4.467  16.636  0.00  0.00    +0.000 NA
ATOM     19  O   UNL     1       7.241   4.392  17.895  0.00  0.00    +0.000 OA
BRANCH  17  20
ATOM     20  C   UNL     1       6.947   4.463  14.323  0.00  0.00    +0.000 A 
ATOM     21  C   UNL     1       7.785   5.404  13.709  0.00  0.00    +0.000 A 
ATOM     22  C   UNL     1       7.924   5.441  12.314  0.00  0.00    +0.000 A 
ATOM     23  C   UNL     1       7.229   4.543  11.508  0.00  0.00    +0.000 A 
ATOM     24  C   UNL     1       6.395   3.601  12.101  0.00  0.00    +0.000 A 
ATOM     25  C   UNL     1       6.257   3.559  13.495  0.00  0.00    +0.000 A 
ENDBRANCH  17  20
ENDBRANCH  14  15
ENDBRANCH   1  14
TORSDOF 6
ENDMDL
MODEL 3
REMARK VINA RESULT:      -7.0      1.289      1.737
REMARK  Name = 
REMARK  7 active torsions:
REMARK  status: ('A' for Active; 'I' for Inactive)
REMARK    1  A    between atoms: C_1  and  C_2
REMARK    2  A    between atoms: C_2  and  N_3
REMARK    3  A    between atoms: C_4  and  S_5
REMARK    4  A    between atoms: S_5  and  C_6
REMARK    5  A    between atoms: C_6  and  C_7
REMARK    6  A    between atoms: C_9  and  C_10
REMARK    7  A    between atoms: C_20  and  C_21
REMARK                            x       y       z     vdW  Elec       q    Type
REMARK                         _______ _______ _______ _____ _____    ______ ____
ROOT
ATOM      1  S   UNL     1       6.426   6.612  17.256  0.00  0.00    +0.000 S 
ENDROOT
BRANCH   1   3
ATOM      2  N   UNL     1       4.331   5.148  18.290  0.00  0.00    +0.000 N 
ATOM      3  C   UNL     1       5.688   5.354  18.206  0.00  0.00    +0.000 A 
ATOM      4  N   UNL     1       6.315   4.477  18.951  0.00  0.00    +0.000 NA
ATOM      5  N   UNL     1       5.359   3.694  19.560  0.00  0.00    +0.000 NA
ATOM      6  C   UNL     1       4.160   4.092  19.169  0.00  0.00    +0.000 A 
BRANCH   6   7
ATOM      7  C   UNL     1       2.922   3.520  19.662  0.00  0.00    +0.000 A 
ATOM      8  C   UNL     1       2.350   3.564  20.924  0.00  0.00    +0.000 A 
ATOM      9  C   UNL     1       1.124   2.833  21.019  0.00  0.00    +0.000 A 
ATOM     10  C   UNL     1       0.760   2.287  19.812  0.00  0.00    +0.000 A 
ATOM     11  S   UNL     1       1.896   2.642  18.585  0.00  0.00    +0.000 S 
ENDBRANCH   6   7
BRANCH   2  13
ATOM     12  C   UNL     1       2.778   7.062  18.492  0.00  0.00    +0.000 C 
ATOM     13  C   UNL     1       3.293   5.918  17.637  0.00  0.00    +0.000 C 
ENDBRANCH   2  13
ENDBRANCH   1   3
BRANCH   1  14
ATOM     14  C   UNL     1       8.005   6.920  18.123  0.00  0.00    +0.000 C 
BRANCH  14  15
ATOM     15  C   UNL     1       8.294   8.386  18.230  0.00  0.00    +0.000 A 
ATOM     16  N   UNL     1       9.038   9.068  19.080  0.00  0.00    +0.000 NA
ATOM     17  C   UNL     1       8.918  10.374  18.623  0.00  0.00    +0.000 A 
ATOM     18  N   UNL     1       8.142  10.481  17.530  0.00  0.00    +0.000 NA
ATOM     19  O   UNL     1       7.732   9.178  17.270  0.00  0.00    +0.000 OA
BRANCH  17  20
ATOM     20  C   UNL     1       9.564  11.527  19.264  0.00  0.00    +0.000 A 
ATOM     21  C   UNL     1      10.197  12.521  18.504  0.00  0.00    +0.000 A 
ATOM     22  C   UNL     1      10.819  13.614  19.126  0.00  0.00    +0.000 A 
ATOM     23  C   UNL     1      10.823  13.733  20.513  0.00  0.00    +0.000 A 
ATOM     24  C   UNL     1      10.198  12.757  21.282  0.00  0.00    +0.000 A 
ATOM     25  C   UNL     1       9.573  11.666  20.664  0.00  0.00    +0.000 A 
ENDBRANCH  17  20
ENDBRANCH  14  15
ENDBRANCH   1  14
TORSDOF 6
ENDMDL
MODEL 4
REMARK VINA RESULT:      -6.9      4.268      7.041
REMARK  Name = 
REMARK  7 active torsions:
REMARK  status: ('A' for Active; 'I' for Inactive)
REMARK    1  A    between atoms: C_1  and  C_2
REMARK    2  A    between atoms: C_2  and  N_3
REMARK    3  A    between atoms: C_4  and  S_5
REMARK    4  A    between atoms: S_5  and  C_6
REMARK    5  A    between atoms: C_6  and  C_7
REMARK    6  A    between atoms: C_9  and  C_10
REMARK    7  A    between atoms: C_20  and  C_21
REMARK                            x       y       z     vdW  Elec       q    Type
REMARK                         _______ _______ _______ _____ _____    ______ ____
ROOT
ATOM      1  S   UNL     1       6.873   6.674  17.715  0.00  0.00    +0.000 S 
ENDROOT
BRANCH   1   3
ATOM      2  N   UNL     1       4.624   5.405  18.683  0.00  0.00    +0.000 N 
ATOM      3  C   UNL     1       5.164   6.404  17.906  0.00  0.00    +0.000 A 
ATOM      4  N   UNL     1       4.203   7.090  17.339  0.00  0.00    +0.000 NA
ATOM      5  N   UNL     1       3.007   6.523  17.724  0.00  0.00    +0.000 NA
ATOM      6  C   UNL     1       3.252   5.505  18.532  0.00  0.00    +0.000 A 
BRANCH   6   7
ATOM      7  C   UNL     1       2.219   4.647  19.080  0.00  0.00    +0.000 A 
ATOM      8  C   UNL     1       1.669   4.598  20.352  0.00  0.00    +0.000 A 
ATOM      9  C   UNL     1       0.687   3.570  20.508  0.00  0.00    +0.000 A 
ATOM     10  C   UNL     1       0.472   2.886  19.337  0.00  0.00    +0.000 A 
ATOM     11  S   UNL     1       1.458   3.471  18.069  0.00  0.00    +0.000 S 
ENDBRANCH   6   7
BRANCH   2  13
ATOM     12  C   UNL     1       4.878   2.997  19.187  0.00  0.00    +0.000 C 
ATOM     13  C   UNL     1       5.348   4.416  19.453  0.00  0.00    +0.000 C 
ENDBRANCH   2  13
ENDBRANCH   1   3
BRANCH   1  14
ATOM     14  C   UNL     1       7.498   5.042  17.184  0.00  0.00    +0.000 C 
BRANCH  14  15
ATOM     15  C   UNL     1       7.205   4.789  15.737  0.00  0.00    +0.000 A 
ATOM     16  N   UNL     1       6.444   3.887  15.146  0.00  0.00    +0.000 NA
ATOM     17  C   UNL     1       6.572   4.204  13.799  0.00  0.00    +0.000 A 
ATOM     18  N   UNL     1       7.368   5.265  13.580  0.00  0.00    +0.000 NA
ATOM     19  O   UNL     1       7.784   5.650  14.850  0.00  0.00    +0.000 OA
BRANCH  17  20
ATOM     20  C   UNL     1       5.912   3.459  12.719  0.00  0.00    +0.000 A 
ATOM     21  C   UNL     1       6.539   2.368  12.100  0.00  0.00    +0.000 A 
ATOM     22  C   UNL     1       5.904   1.668  11.063  0.00  0.00    +0.000 A 
ATOM     23  C   UNL     1       4.638   2.045  10.624  0.00  0.00    +0.000 A 
ATOM     24  C   UNL     1       4.001   3.124  11.228  0.00  0.00    +0.000 A 
ATOM     25  C   UNL     1       4.631   3.822  12.267  0.00  0.00    +0.000 A 
ENDBRANCH  17  20
ENDBRANCH  14  15
ENDBRANCH   1  14
TORSDOF 6
ENDMDL
MODEL 5
REMARK VINA RESULT:      -6.9      1.532      1.926
REMARK  Name = 
REMARK  7 active torsions:
REMARK  status: ('A' for Active; 'I' for Inactive)
REMARK    1  A    between atoms: C_1  and  C_2
REMARK    2  A    between atoms: C_2  and  N_3
REMARK    3  A    between atoms: C_4  and  S_5
REMARK    4  A    between atoms: S_5  and  C_6
REMARK    5  A    between atoms: C_6  and  C_7
REMARK    6  A    between atoms: C_9  and  C_10
REMARK    7  A    between atoms: C_20  and  C_21
REMARK                            x       y       z     vdW  Elec       q    Type
REMARK                         _______ _______ _______ _____ _____    ______ ____
ROOT
ATOM      1  S   UNL     1       6.888   7.218  17.409  0.00  0.00    +0.000 S 
ENDROOT
BRANCH   1   3
ATOM      2  N   UNL     1       4.801   5.538  18.059  0.00  0.00    +0.000 N 
ATOM      3  C   UNL     1       6.136   5.847  18.174  0.00  0.00    +0.000 A 
ATOM      4  N   UNL     1       6.728   4.970  18.946  0.00  0.00    +0.000 NA
ATOM      5  N   UNL     1       5.766   4.079  19.372  0.00  0.00    +0.000 NA
ATOM      6  C   UNL     1       4.601   4.415  18.844  0.00  0.00    +0.000 A 
BRANCH   6   7
ATOM      7  C   UNL     1       3.360   3.722  19.128  0.00  0.00    +0.000 A 
ATOM      8  C   UNL     1       2.327   4.044  19.996  0.00  0.00    +0.000 A 
ATOM      9  C   UNL     1       1.278   3.072  20.019  0.00  0.00    +0.000 A 
ATOM     10  C   UNL     1       1.510   2.050  19.130  0.00  0.00    +0.000 A 
ATOM     11  S   UNL     1       2.984   2.259  18.291  0.00  0.00    +0.000 S 
ENDBRANCH   6   7
BRANCH   2  13
ATOM     12  C   UNL     1       3.059   7.291  18.166  0.00  0.00    +0.000 C 
ATOM     13  C   UNL     1       3.799   6.273  17.316  0.00  0.00    +0.000 C 
ENDBRANCH   2  13
ENDBRANCH   1   3
BRANCH   1  14
ATOM     14  C   UNL     1       8.317   7.569  18.491  0.00  0.00    +0.000 C 
BRANCH  14  15
ATOM     15  C   UNL     1       8.588   9.040  18.579  0.00  0.00    +0.000 A 
ATOM     16  N   UNL     1       9.237   9.755  19.479  0.00  0.00    +0.000 NA
ATOM     17  C   UNL     1       9.161  11.045  18.968  0.00  0.00    +0.000 A 
ATOM     18  N   UNL     1       8.504  11.110  17.797  0.00  0.00    +0.000 NA
ATOM     19  O   UNL     1       8.128   9.797  17.540  0.00  0.00    +0.000 OA
BRANCH  17  20
ATOM     20  C   UNL     1       9.733  12.222  19.635  0.00  0.00    +0.000 A 
ATOM     21  C   UNL     1       9.128  12.782  20.768  0.00  0.00    +0.000 A 
ATOM     22  C   UNL     1       9.677  13.911  21.393  0.00  0.00    +0.000 A 
ATOM     23  C   UNL     1      10.835  14.503  20.897  0.00  0.00    +0.000 A 
ATOM     24  C   UNL     1      11.450  13.960  19.774  0.00  0.00    +0.000 A 
ATOM     25  C   UNL     1      10.906  12.829  19.151  0.00  0.00    +0.000 A 
ENDBRANCH  17  20
ENDBRANCH  14  15
ENDBRANCH   1  14
TORSDOF 6
ENDMDL
MODEL 6
REMARK VINA RESULT:      -6.8      1.909      2.748
REMARK  Name = 
REMARK  7 active torsions:
REMARK  status: ('A' for Active; 'I' for Inactive)
REMARK    1  A    between atoms: C_1  and  C_2
REMARK    2  A    between atoms: C_2  and  N_3
REMARK    3  A    between atoms: C_4  and  S_5
REMARK    4  A    between atoms: S_5  and  C_6
REMARK    5  A    between atoms: C_6  and  C_7
REMARK    6  A    between atoms: C_9  and  C_10
REMARK    7  A    between atoms: C_20  and  C_21
REMARK                            x       y       z     vdW  Elec       q    Type
REMARK                         _______ _______ _______ _____ _____    ______ ____
ROOT
ATOM      1  S   UNL     1       7.442   7.758  17.504  0.00  0.00    +0.000 S 
ENDROOT
BRANCH   1   3
ATOM      2  N   UNL     1       5.475   5.836  17.712  0.00  0.00    +0.000 N 
ATOM      3  C   UNL     1       6.738   6.264  18.054  0.00  0.00    +0.000 A 
ATOM      4  N   UNL     1       7.300   5.390  18.851  0.00  0.00    +0.000 NA
ATOM      5  N   UNL     1       6.388   4.379  19.064  0.00  0.00    +0.000 NA
ATOM      6  C   UNL     1       5.284   4.640  18.383  0.00  0.00    +0.000 A 
BRANCH   6   7
ATOM      7  C   UNL     1       4.097   3.810  18.426  0.00  0.00    +0.000 A 
ATOM      8  C   UNL     1       3.714   2.743  17.626  0.00  0.00    +0.000 A 
ATOM      9  C   UNL     1       2.435   2.204  17.970  0.00  0.00    +0.000 A 
ATOM     10  C   UNL     1       1.888   2.839  19.059  0.00  0.00    +0.000 A 
ATOM     11  S   UNL     1       2.905   4.082  19.645  0.00  0.00    +0.000 S 
ENDBRANCH   6   7
BRANCH   2  13
ATOM     12  C   UNL     1       3.545   7.382  17.659  0.00  0.00    +0.000 C 
ATOM     13  C   UNL     1       4.521   6.527  16.870  0.00  0.00    +0.000 C 
ENDBRANCH   2  13
ENDBRANCH   1   3
BRANCH   1  14
ATOM     14  C   UNL     1       8.669   8.144  18.802  0.00  0.00    +0.000 C 
BRANCH  14  15
ATOM     15  C   UNL     1       8.921   9.618  18.894  0.00  0.00    +0.000 A 
ATOM     16  N   UNL     1       9.295  10.377  19.908  0.00  0.00    +0.000 NA
ATOM     17  C   UNL     1       9.382  11.640  19.337  0.00  0.00    +0.000 A 
ATOM     18  N   UNL     1       9.086  11.648  18.026  0.00  0.00    +0.000 NA
ATOM     19  O   UNL     1       8.784  10.323  17.733  0.00  0.00    +0.000 OA
BRANCH  17  20
ATOM     20  C   UNL     1       9.755  12.849  20.083  0.00  0.00    +0.000 A 
ATOM     21  C   UNL     1      10.670  13.773  19.560  0.00  0.00    +0.000 A 
ATOM     22  C   UNL     1      11.026  14.921  20.283  0.00  0.00    +0.000 A 
ATOM     23  C   UNL     1      10.479  15.166  21.540  0.00  0.00    +0.000 A 
ATOM     24  C   UNL     1       9.568  14.260  22.073  0.00  0.00    +0.000 A 
ATOM     25  C   UNL     1       9.207  13.115  21.351  0.00  0.00    +0.000 A 
ENDBRANCH  17  20
ENDBRANCH  14  15
ENDBRANCH   1  14
TORSDOF 6
ENDMDL
MODEL 7
REMARK VINA RESULT:      -6.7      6.184      8.719
REMARK  Name = 
REMARK  7 active torsions:
REMARK  status: ('A' for Active; 'I' for Inactive)
REMARK    1  A    between atoms: C_1  and  C_2
REMARK    2  A    between atoms: C_2  and  N_3
REMARK    3  A    between atoms: C_4  and  S_5
REMARK    4  A    between atoms: S_5  and  C_6
REMARK    5  A    between atoms: C_6  and  C_7
REMARK    6  A    between atoms: C_9  and  C_10
REMARK    7  A    between atoms: C_20  and  C_21
REMARK                            x       y       z     vdW  Elec       q    Type
REMARK                         _______ _______ _______ _____ _____    ______ ____
ROOT
ATOM      1  S   UNL     1       1.449   8.559  20.168  0.00  0.00    +0.000 S 
ENDROOT
BRANCH   1   3
ATOM      2  N   UNL     1      -0.026  10.651  21.195  0.00  0.00    +0.000 N 
ATOM      3  C   UNL     1       0.646   9.472  21.415  0.00  0.00    +0.000 A 
ATOM      4  N   UNL     1       0.595   9.165  22.687  0.00  0.00    +0.000 NA
ATOM      5  N   UNL     1      -0.099  10.169  23.327  0.00  0.00    +0.000 NA
ATOM      6  C   UNL     1      -0.475  11.071  22.435  0.00  0.00    +0.000 A 
BRANCH   6   7
ATOM      7  C   UNL     1      -1.178  12.292  22.774  0.00  0.00    +0.000 A 
ATOM      8  C   UNL     1      -0.737  13.607  22.805  0.00  0.00    +0.000 A 
ATOM      9  C   UNL     1      -1.738  14.534  23.235  0.00  0.00    +0.000 A 
ATOM     10  C   UNL     1      -2.940  13.912  23.475  0.00  0.00    +0.000 A 
ATOM     11  S   UNL     1      -2.851  12.228  23.200  0.00  0.00    +0.000 S 
ENDBRANCH   6   7
BRANCH   2  13
ATOM     12  C   UNL     1      -1.401  10.890  19.153  0.00  0.00    +0.000 C 
ATOM     13  C   UNL     1      -0.178  11.342  19.932  0.00  0.00    +0.000 C 
ENDBRANCH   2  13
ENDBRANCH   1   3
BRANCH   1  14
ATOM     14  C   UNL     1       1.424   6.852  20.817  0.00  0.00    +0.000 C 
BRANCH  14  15
ATOM     15  C   UNL     1       2.353   5.962  20.051  0.00  0.00    +0.000 A 
ATOM     16  N   UNL     1       3.329   6.240  19.206  0.00  0.00    +0.000 NA
ATOM     17  C   UNL     1       3.821   4.985  18.872  0.00  0.00    +0.000 A 
ATOM     18  N   UNL     1       3.180   3.982  19.499  0.00  0.00    +0.000 NA
ATOM     19  O   UNL     1       2.218   4.621  20.273  0.00  0.00    +0.000 OA
BRANCH  17  20
ATOM     20  C   UNL     1       4.925   4.765  17.928  0.00  0.00    +0.000 A 
ATOM     21  C   UNL     1       6.261   4.907  18.327  0.00  0.00    +0.000 A 
ATOM     22  C   UNL     1       7.309   4.703  17.417  0.00  0.00    +0.000 A 
ATOM     23  C   UNL     1       7.042   4.357  16.095  0.00  0.00    +0.000 A 
ATOM     24  C   UNL     1       5.722   4.210  15.683  0.00  0.00    +0.000 A 
ATOM     25  C   UNL     1       4.674   4.409  16.591  0.00  0.00    +0.000 A 
ENDBRANCH  17  20
ENDBRANCH  14  15
ENDBRANCH   1  14
TORSDOF 6
ENDMDL
MODEL 8
REMARK VINA RESULT:      -6.7      5.122      7.553
REMARK  Name = 
REMARK  7 active torsions:
REMARK  status: ('A' for Active; 'I' for Inactive)
REMARK    1  A    between atoms: C_1  and  C_2
REMARK    2  A    between atoms: C_2  and  N_3
REMARK    3  A    between atoms: C_4  and  S_5
REMARK    4  A    between atoms: S_5  and  C_6
REMARK    5  A    between atoms: C_6  and  C_7
REMARK    6  A    between atoms: C_9  and  C_10
REMARK    7  A    between atoms: C_20  and  C_21
REMARK                            x       y       z     vdW  Elec       q    Type
REMARK                         _______ _______ _______ _____ _____    ______ ____
ROOT
ATOM      1  S   UNL     1       2.630   5.840  19.831  0.00  0.00    +0.000 S 
ENDROOT
BRANCH   1   3
ATOM      2  N   UNL     1       1.724   8.437  19.635  0.00  0.00    +0.000 N 
ATOM      3  C   UNL     1       2.265   7.335  19.015  0.00  0.00    +0.000 A 
ATOM      4  N   UNL     1       2.441   7.585  17.742  0.00  0.00    +0.000 NA
ATOM      5  N   UNL     1       1.987   8.864  17.506  0.00  0.00    +0.000 NA
ATOM      6  C   UNL     1       1.550   9.385  18.640  0.00  0.00    +0.000 A 
BRANCH   6   7
ATOM      7  C   UNL     1       0.950  10.700  18.743  0.00  0.00    +0.000 A 
ATOM      8  C   UNL     1      -0.357  11.075  19.018  0.00  0.00    +0.000 A 
ATOM      9  C   UNL     1      -0.561  12.491  18.992  0.00  0.00    +0.000 A 
ATOM     10  C   UNL     1       0.608  13.171  18.746  0.00  0.00    +0.000 A 
ATOM     11  S   UNL     1       1.929  12.108  18.535  0.00  0.00    +0.000 S 
ENDBRANCH   6   7
BRANCH   2  13
ATOM     12  C   UNL     1      -0.117   8.295  21.281  0.00  0.00    +0.000 C 
ATOM     13  C   UNL     1       1.357   8.559  21.030  0.00  0.00    +0.000 C 
ENDBRANCH   2  13
ENDBRANCH   1   3
BRANCH   1  14
ATOM     14  C   UNL     1       4.399   5.580  19.454  0.00  0.00    +0.000 C 
BRANCH  14  15
ATOM     15  C   UNL     1       4.588   5.019  18.078  0.00  0.00    +0.000 A 
ATOM     16  N   UNL     1       5.457   5.313  17.128  0.00  0.00    +0.000 NA
ATOM     17  C   UNL     1       5.128   4.420  16.117  0.00  0.00    +0.000 A 
ATOM     18  N   UNL     1       4.110   3.604  16.443  0.00  0.00    +0.000 NA
ATOM     19  O   UNL     1       3.754   3.996  17.729  0.00  0.00    +0.000 OA
BRANCH  17  20
ATOM     20  C   UNL     1       5.815   4.366  14.819  0.00  0.00    +0.000 A 
ATOM     21  C   UNL     1       7.011   5.063  14.601  0.00  0.00    +0.000 A 
ATOM     22  C   UNL     1       7.656   5.013  13.356  0.00  0.00    +0.000 A 
ATOM     23  C   UNL     1       7.118   4.269  12.309  0.00  0.00    +0.000 A 
ATOM     24  C   UNL     1       5.934   3.569  12.509  0.00  0.00    +0.000 A 
ATOM     25  C   UNL     1       5.290   3.615  13.753  0.00  0.00    +0.000 A 
ENDBRANCH  17  20
ENDBRANCH  14  15
ENDBRANCH   1  14
TORSDOF 6
ENDMDL
MODEL 9
REMARK VINA RESULT:      -6.7      2.467      3.457
REMARK  Name = 
REMARK  7 active torsions:
REMARK  status: ('A' for Active; 'I' for Inactive)
REMARK    1  A    between atoms: C_1  and  C_2
REMARK    2  A    between atoms: C_2  and  N_3
REMARK    3  A    between atoms: C_4  and  S_5
REMARK    4  A    between atoms: S_5  and  C_6
REMARK    5  A    between atoms: C_6  and  C_7
REMARK    6  A    between atoms: C_9  and  C_10
REMARK    7  A    between atoms: C_20  and  C_21
REMARK                            x       y       z     vdW  Elec       q    Type
REMARK                         _______ _______ _______ _____ _____    ______ ____
ROOT
ATOM      1  S   UNL     1       7.668   8.281  17.632  0.00  0.00    +0.000 S 
ENDROOT
BRANCH   1   3
ATOM      2  N   UNL     1       5.915   6.153  17.670  0.00  0.00    +0.000 N 
ATOM      3  C   UNL     1       7.139   6.670  18.026  0.00  0.00    +0.000 A 
ATOM      4  N   UNL     1       7.816   5.776  18.702  0.00  0.00    +0.000 NA
ATOM      5  N   UNL     1       7.019   4.658  18.822  0.00  0.00    +0.000 NA
ATOM      6  C   UNL     1       5.870   4.877  18.204  0.00  0.00    +0.000 A 
BRANCH   6   7
ATOM      7  C   UNL     1       4.775   3.927  18.181  0.00  0.00    +0.000 A 
ATOM      8  C   UNL     1       3.934   3.547  17.147  0.00  0.00    +0.000 A 
ATOM      9  C   UNL     1       2.940   2.597  17.541  0.00  0.00    +0.000 A 
ATOM     10  C   UNL     1       3.074   2.234  18.860  0.00  0.00    +0.000 A 
ATOM     11  S   UNL     1       4.377   3.045  19.612  0.00  0.00    +0.000 S 
ENDBRANCH   6   7
BRANCH   2  13
ATOM     12  C   UNL     1       4.964   6.628  15.436  0.00  0.00    +0.000 C 
ATOM     13  C   UNL     1       4.865   6.830  16.937  0.00  0.00    +0.000 C 
ENDBRANCH   2  13
ENDBRANCH   1   3
BRANCH   1  14
ATOM     14  C   UNL     1       8.882   8.655  18.946  0.00  0.00    +0.000 C 
BRANCH  14  15
ATOM     15  C   UNL     1       9.117  10.129  19.070  0.00  0.00    +0.000 A 
ATOM     16  N   UNL     1       9.167  11.084  18.160  0.00  0.00    +0.000 NA
ATOM     17  C   UNL     1       9.384  12.227  18.918  0.00  0.00    +0.000 A 
ATOM     18  N   UNL     1       9.449  11.981  20.239  0.00  0.00    +0.000 NA
ATOM     19  O   UNL     1       9.274  10.605  20.340  0.00  0.00    +0.000 OA
BRANCH  17  20
ATOM     20  C   UNL     1       9.531  13.572  18.345  0.00  0.00    +0.000 A 
ATOM     21  C   UNL     1      10.751  14.002  17.807  0.00  0.00    +0.000 A 
ATOM     22  C   UNL     1      10.885  15.291  17.269  0.00  0.00    +0.000 A 
ATOM     23  C   UNL     1       9.806  16.171  17.261  0.00  0.00    +0.000 A 
ATOM     24  C   UNL     1       8.587  15.759  17.788  0.00  0.00    +0.000 A 
ATOM     25  C   UNL     1       8.450  14.471  18.323  0.00  0.00    +0.000 A 
ENDBRANCH  17  20
ENDBRANCH  14  15
ENDBRANCH   1  14
TORSDOF 6
ENDMDL
