MODEL 1
REMARK VINA RESULT:      -7.4      0.000      0.000
REMARK  Name = 
REMARK  2 active torsions:
REMARK  status: ('A' for Active; 'I' for Inactive)
REMARK    1  A    between atoms: C_2  and  C_3
REMARK    2  A    between atoms: N_18  and  C_19
REMARK                            x       y       z     vdW  Elec       q    Type
REMARK                         _______ _______ _______ _____ _____    ______ ____
ROOT
ATOM      1  O   UNL     1      -6.585  11.543  17.569  0.00  0.00    +0.000 OA
ATOM      2  C   UNL     1      -5.749  11.743  18.457  0.00  0.00    +0.000 C 
ATOM      3  N   UNL     1      -4.354  11.544  18.246  0.00  0.00    +0.000 N 
ATOM      4  C   UNL     1      -4.106  11.242  16.853  0.00  0.00    +0.000 C 
ATOM      5  C   UNL     1      -2.703  10.968  16.387  0.00  0.00    +0.000 C 
ATOM      6  C   UNL     1      -1.608  10.874  17.414  0.00  0.00    +0.000 C 
ATOM      7  C   UNL     1      -1.711  11.702  18.698  0.00  0.00    +0.000 C 
ATOM      8  C   UNL     1      -1.058  13.103  18.485  0.00  0.00    +0.000 C 
ATOM      9  O   UNL     1       0.363  13.127  18.317  0.00  0.00    +0.000 OA
ATOM     10  C   UNL     1       1.084  13.099  19.551  0.00  0.00    +0.000 C 
ATOM     11  C   UNL     1       1.440  11.687  20.020  0.00  0.00    +0.000 C 
ATOM     12  N   UNL     1       0.515  10.659  19.522  0.00  0.00    +0.000 N 
ATOM     13  C   UNL     1      -0.931  10.870  19.808  0.00  0.00    +0.000 C 
ATOM     14  C   UNL     1      -3.225  11.936  19.137  0.00  0.00    +0.000 C 
ENDROOT
BRANCH   2  15
ATOM     15  C   UNL     1      -6.332  12.253  19.714  0.00  0.00    +0.000 A 
ATOM     16  C   UNL     1      -6.993  11.459  20.632  0.00  0.00    +0.000 A 
ATOM     17  C   UNL     1      -7.498  12.026  21.797  0.00  0.00    +0.000 A 
ATOM     18  C   UNL     1      -7.368  13.386  21.990  0.00  0.00    +0.000 A 
ATOM     19  N   UNL     1      -6.805  14.216  21.084  0.00  0.00    +0.000 NA
ATOM     20  C   UNL     1      -6.319  13.635  19.956  0.00  0.00    +0.000 A 
ENDBRANCH   2  15
BRANCH  12  21
ATOM     21  C   UNL     1       1.071   9.369  19.452  0.00  0.00    +0.000 A 
ATOM     22  C   UNL     1       1.208   8.524  20.571  0.00  0.00    +0.000 A 
ATOM     23  C   UNL     1       1.930   7.317  20.523  0.00  0.00    +0.000 A 
ATOM     24  C   UNL     1       2.527   6.909  19.338  0.00  0.00    +0.000 A 
ATOM     25  C   UNL     1       2.396   7.708  18.212  0.00  0.00    +0.000 A 
ATOM     26  C   UNL     1       1.686   8.919  18.275  0.00  0.00    +0.000 A 
ENDBRANCH  12  21
TORSDOF 2
ENDMDL
MODEL 2
REMARK VINA RESULT:      -7.1      2.713      8.593
REMARK  Name = 
REMARK  2 active torsions:
REMARK  status: ('A' for Active; 'I' for Inactive)
REMARK    1  A    between atoms: C_2  and  C_3
REMARK    2  A    between atoms: N_18  and  C_19
REMARK                            x       y       z     vdW  Elec       q    Type
REMARK                         _______ _______ _______ _____ _____    ______ ____
ROOT
ATOM      1  O   UNL     1       2.564   5.605  20.540  0.00  0.00    +0.000 OA
ATOM      2  C   UNL     1       2.468   6.480  19.672  0.00  0.00    +0.000 C 
ATOM      3  N   UNL     1       1.641   7.627  19.838  0.00  0.00    +0.000 N 
ATOM      4  C   UNL     1       1.103   7.654  21.181  0.00  0.00    +0.000 C 
ATOM      5  C   UNL     1       0.176   8.766  21.592  0.00  0.00    +0.000 C 
ATOM      6  C   UNL     1      -0.281   9.746  20.546  0.00  0.00    +0.000 C 
ATOM      7  C   UNL     1       0.646  10.079  19.375  0.00  0.00    +0.000 C 
ATOM      8  C   UNL     1       1.570  11.280  19.747  0.00  0.00    +0.000 C 
ATOM      9  O   UNL     1       0.934  12.553  19.898  0.00  0.00    +0.000 OA
ATOM     10  C   UNL     1       0.727  13.237  18.660  0.00  0.00    +0.000 C 
ATOM     11  C   UNL     1      -0.631  12.944  18.018  0.00  0.00    +0.000 C 
ATOM     12  N   UNL     1      -1.183  11.636  18.400  0.00  0.00    +0.000 N 
ATOM     13  C   UNL     1      -0.314  10.452  18.161  0.00  0.00    +0.000 C 
ATOM     14  C   UNL     1       1.583   8.850  18.986  0.00  0.00    +0.000 C 
ENDROOT
BRANCH   2  15
ATOM     15  C   UNL     1       3.325   6.240  18.494  0.00  0.00    +0.000 A 
ATOM     16  C   UNL     1       3.914   7.248  17.754  0.00  0.00    +0.000 A 
ATOM     17  C   UNL     1       4.718   6.926  16.666  0.00  0.00    +0.000 A 
ATOM     18  C   UNL     1       4.874   5.599  16.318  0.00  0.00    +0.000 A 
ATOM     19  N   UNL     1       4.251   4.585  16.959  0.00  0.00    +0.000 NA
ATOM     20  C   UNL     1       3.473   4.929  18.019  0.00  0.00    +0.000 A 
ENDBRANCH   2  15
BRANCH  12  21
ATOM     21  C   UNL     1      -2.585  11.554  18.305  0.00  0.00    +0.000 A 
ATOM     22  C   UNL     1      -3.256  11.108  17.150  0.00  0.00    +0.000 A 
ATOM     23  C   UNL     1      -4.652  11.205  17.003  0.00  0.00    +0.000 A 
ATOM     24  C   UNL     1      -5.425  11.740  18.025  0.00  0.00    +0.000 A 
ATOM     25  C   UNL     1      -4.797  12.171  19.185  0.00  0.00    +0.000 A 
ATOM     26  C   UNL     1      -3.401  12.084  19.314  0.00  0.00    +0.000 A 
ENDBRANCH  12  21
TORSDOF 2
ENDMDL
MODEL 3
REMARK VINA RESULT:      -7.1      2.790      8.472
REMARK  Name = 
REMARK  2 active torsions:
REMARK  status: ('A' for Active; 'I' for Inactive)
REMARK    1  A    between atoms: C_2  and  C_3
REMARK    2  A    between atoms: N_18  and  C_19
REMARK                            x       y       z     vdW  Elec       q    Type
REMARK                         _______ _______ _______ _____ _____    ______ ____
ROOT
ATOM      1  O   UNL     1       2.231   5.570  20.891  0.00  0.00    +0.000 OA
ATOM      2  C   UNL     1       2.307   6.498  20.079  0.00  0.00    +0.000 C 
ATOM      3  N   UNL     1       1.469   7.647  20.157  0.00  0.00    +0.000 N 
ATOM      4  C   UNL     1       0.684   7.600  21.372  0.00  0.00    +0.000 C 
ATOM      5  C   UNL     1      -0.299   8.699  21.668  0.00  0.00    +0.000 C 
ATOM      6  C   UNL     1      -0.543   9.749  20.620  0.00  0.00    +0.000 C 
ATOM      7  C   UNL     1       0.592  10.138  19.670  0.00  0.00    +0.000 C 
ATOM      8  C   UNL     1       1.434  11.299  20.287  0.00  0.00    +0.000 C 
ATOM      9  O   UNL     1       0.786  12.570  20.395  0.00  0.00    +0.000 OA
ATOM     10  C   UNL     1       0.823  13.333  19.186  0.00  0.00    +0.000 C 
ATOM     11  C   UNL     1      -0.388  13.103  18.280  0.00  0.00    +0.000 C 
ATOM     12  N   UNL     1      -1.010  11.783  18.466  0.00  0.00    +0.000 N 
ATOM     13  C   UNL     1      -0.116  10.601  18.322  0.00  0.00    +0.000 C 
ATOM     14  C   UNL     1       1.581   8.920  19.390  0.00  0.00    +0.000 C 
ENDROOT
BRANCH   2  15
ATOM     15  C   UNL     1       3.373   6.317  19.073  0.00  0.00    +0.000 A 
ATOM     16  C   UNL     1       3.382   6.945  17.842  0.00  0.00    +0.000 A 
ATOM     17  C   UNL     1       4.437   6.725  16.962  0.00  0.00    +0.000 A 
ATOM     18  C   UNL     1       5.434   5.841  17.322  0.00  0.00    +0.000 A 
ATOM     19  N   UNL     1       5.425   5.139  18.478  0.00  0.00    +0.000 NA
ATOM     20  C   UNL     1       4.384   5.376  19.318  0.00  0.00    +0.000 A 
ENDBRANCH   2  15
BRANCH  12  21
ATOM     21  C   UNL     1      -2.367  11.730  18.101  0.00  0.00    +0.000 A 
ATOM     22  C   UNL     1      -3.420  11.997  18.998  0.00  0.00    +0.000 A 
ATOM     23  C   UNL     1      -4.769  11.761  18.671  0.00  0.00    +0.000 A 
ATOM     24  C   UNL     1      -5.106  11.264  17.420  0.00  0.00    +0.000 A 
ATOM     25  C   UNL     1      -4.095  11.008  16.506  0.00  0.00    +0.000 A 
ATOM     26  C   UNL     1      -2.750  11.232  16.848  0.00  0.00    +0.000 A 
ENDBRANCH  12  21
TORSDOF 2
ENDMDL
MODEL 4
REMARK VINA RESULT:      -6.9      0.818      1.143
REMARK  Name = 
REMARK  2 active torsions:
REMARK  status: ('A' for Active; 'I' for Inactive)
REMARK    1  A    between atoms: C_2  and  C_3
REMARK    2  A    between atoms: N_18  and  C_19
REMARK                            x       y       z     vdW  Elec       q    Type
REMARK                         _______ _______ _______ _____ _____    ______ ____
ROOT
ATOM      1  O   UNL     1      -6.785  11.886  18.470  0.00  0.00    +0.000 OA
ATOM      2  C   UNL     1      -5.842  12.083  19.245  0.00  0.00    +0.000 C 
ATOM      3  N   UNL     1      -4.488  11.854  18.868  0.00  0.00    +0.000 N 
ATOM      4  C   UNL     1      -4.419  11.529  17.460  0.00  0.00    +0.000 C 
ATOM      5  C   UNL     1      -3.088  11.222  16.829  0.00  0.00    +0.000 C 
ATOM      6  C   UNL     1      -1.877  11.121  17.715  0.00  0.00    +0.000 C 
ATOM      7  C   UNL     1      -1.807  11.968  18.988  0.00  0.00    +0.000 C 
ATOM      8  C   UNL     1      -1.161  13.354  18.675  0.00  0.00    +0.000 C 
ATOM      9  O   UNL     1       0.229  13.349  18.333  0.00  0.00    +0.000 OA
ATOM     10  C   UNL     1       1.095  13.324  19.469  0.00  0.00    +0.000 C 
ATOM     11  C   UNL     1       1.482  11.912  19.914  0.00  0.00    +0.000 C 
ATOM     12  N   UNL     1       0.485  10.895  19.549  0.00  0.00    +0.000 N 
ATOM     13  C   UNL     1      -0.910  11.138  20.008  0.00  0.00    +0.000 C 
ATOM     14  C   UNL     1      -3.251  12.237  19.607  0.00  0.00    +0.000 C 
ENDROOT
BRANCH   2  15
ATOM     15  C   UNL     1      -6.257  12.621  20.556  0.00  0.00    +0.000 A 
ATOM     16  C   UNL     1      -6.115  13.945  20.924  0.00  0.00    +0.000 A 
ATOM     17  C   UNL     1      -6.548  14.364  22.177  0.00  0.00    +0.000 A 
ATOM     18  C   UNL     1      -7.071  13.431  23.051  0.00  0.00    +0.000 A 
ATOM     19  N   UNL     1      -7.152  12.111  22.769  0.00  0.00    +0.000 NA
ATOM     20  C   UNL     1      -6.723  11.732  21.536  0.00  0.00    +0.000 A 
ENDBRANCH   2  15
BRANCH  12  21
ATOM     21  C   UNL     1       1.007   9.594  19.432  0.00  0.00    +0.000 A 
ATOM     22  C   UNL     1       1.133   8.711  20.523  0.00  0.00    +0.000 A 
ATOM     23  C   UNL     1       1.823   7.488  20.428  0.00  0.00    +0.000 A 
ATOM     24  C   UNL     1       2.397   7.102  19.224  0.00  0.00    +0.000 A 
ATOM     25  C   UNL     1       2.275   7.940  18.125  0.00  0.00    +0.000 A 
ATOM     26  C   UNL     1       1.598   9.167  18.235  0.00  0.00    +0.000 A 
ENDBRANCH  12  21
TORSDOF 2
ENDMDL
MODEL 5
REMARK VINA RESULT:      -6.9      4.570      8.079
REMARK  Name = 
REMARK  2 active torsions:
REMARK  status: ('A' for Active; 'I' for Inactive)
REMARK    1  A    between atoms: C_2  and  C_3
REMARK    2  A    between atoms: N_18  and  C_19
REMARK                            x       y       z     vdW  Elec       q    Type
REMARK                         _______ _______ _______ _____ _____    ______ ____
ROOT
ATOM      1  O   UNL     1      -0.628   9.619  21.291  0.00  0.00    +0.000 OA
ATOM      2  C   UNL     1       0.252  10.168  20.619  0.00  0.00    +0.000 C 
ATOM      3  N   UNL     1       0.474  11.575  20.662  0.00  0.00    +0.000 N 
ATOM      4  C   UNL     1      -0.354  12.171  21.687  0.00  0.00    +0.000 C 
ATOM      5  C   UNL     1      -0.312  13.658  21.909  0.00  0.00    +0.000 C 
ATOM      6  C   UNL     1       0.488  14.506  20.959  0.00  0.00    +0.000 C 
ATOM      7  C   UNL     1       1.737  13.917  20.299  0.00  0.00    +0.000 C 
ATOM      8  C   UNL     1       2.988  14.173  21.196  0.00  0.00    +0.000 C 
ATOM      9  O   UNL     1       3.419  15.532  21.319  0.00  0.00    +0.000 OA
ATOM     10  C   UNL     1       4.242  15.969  20.235  0.00  0.00    +0.000 C 
ATOM     11  C   UNL     1       3.457  16.612  19.090  0.00  0.00    +0.000 C 
ATOM     12  N   UNL     1       2.068  16.137  19.000  0.00  0.00    +0.000 N 
ATOM     13  C   UNL     1       1.875  14.664  18.900  0.00  0.00    +0.000 C 
ATOM     14  C   UNL     1       1.611  12.344  20.081  0.00  0.00    +0.000 C 
ENDROOT
BRANCH   2  15
ATOM     15  C   UNL     1       1.066   9.225  19.826  0.00  0.00    +0.000 A 
ATOM     16  C   UNL     1       1.268   9.341  18.464  0.00  0.00    +0.000 A 
ATOM     17  C   UNL     1       2.063   8.411  17.803  0.00  0.00    +0.000 A 
ATOM     18  C   UNL     1       2.599   7.360  18.518  0.00  0.00    +0.000 A 
ATOM     19  N   UNL     1       2.361   7.157  19.833  0.00  0.00    +0.000 NA
ATOM     20  C   UNL     1       1.582   8.082  20.454  0.00  0.00    +0.000 A 
ENDBRANCH   2  15
BRANCH  12  21
ATOM     21  C   UNL     1       1.190  17.040  18.373  0.00  0.00    +0.000 A 
ATOM     22  C   UNL     1      -0.185  17.112  18.669  0.00  0.00    +0.000 A 
ATOM     23  C   UNL     1      -1.081  17.886  17.908  0.00  0.00    +0.000 A 
ATOM     24  C   UNL     1      -0.619  18.631  16.832  0.00  0.00    +0.000 A 
ATOM     25  C   UNL     1       0.733  18.597  16.525  0.00  0.00    +0.000 A 
ATOM     26  C   UNL     1       1.617  17.808  17.281  0.00  0.00    +0.000 A 
ENDBRANCH  12  21
TORSDOF 2
ENDMDL
MODEL 6
REMARK VINA RESULT:      -6.6      1.243      1.433
REMARK  Name = 
REMARK  2 active torsions:
REMARK  status: ('A' for Active; 'I' for Inactive)
REMARK    1  A    between atoms: C_2  and  C_3
REMARK    2  A    between atoms: N_18  and  C_19
REMARK                            x       y       z     vdW  Elec       q    Type
REMARK                         _______ _______ _______ _____ _____    ______ ____
ROOT
ATOM      1  O   UNL     1      -6.734  12.321  19.622  0.00  0.00    +0.000 OA
ATOM      2  C   UNL     1      -5.664  12.539  20.202  0.00  0.00    +0.000 C 
ATOM      3  N   UNL     1      -4.406  12.200  19.626  0.00  0.00    +0.000 N 
ATOM      4  C   UNL     1      -4.596  11.737  18.268  0.00  0.00    +0.000 C 
ATOM      5  C   UNL     1      -3.409  11.298  17.456  0.00  0.00    +0.000 C 
ATOM      6  C   UNL     1      -2.066  11.215  18.130  0.00  0.00    +0.000 C 
ATOM      7  C   UNL     1      -1.743  12.175  19.277  0.00  0.00    +0.000 C 
ATOM      8  C   UNL     1      -1.109  13.487  18.716  0.00  0.00    +0.000 C 
ATOM      9  O   UNL     1       0.198  13.371  18.146  0.00  0.00    +0.000 OA
ATOM     10  C   UNL     1       1.248  13.407  19.115  0.00  0.00    +0.000 C 
ATOM     11  C   UNL     1       1.653  12.025  19.632  0.00  0.00    +0.000 C 
ATOM     12  N   UNL     1       0.569  11.035  19.550  0.00  0.00    +0.000 N 
ATOM     13  C   UNL     1      -0.715  11.398  20.211  0.00  0.00    +0.000 C 
ATOM     14  C   UNL     1      -3.046  12.582  20.101  0.00  0.00    +0.000 C 
ENDROOT
BRANCH   2  15
ATOM     15  C   UNL     1      -5.823  13.222  21.501  0.00  0.00    +0.000 A 
ATOM     16  C   UNL     1      -6.313  12.608  22.637  0.00  0.00    +0.000 A 
ATOM     17  C   UNL     1      -6.414  13.329  23.822  0.00  0.00    +0.000 A 
ATOM     18  C   UNL     1      -6.066  14.665  23.825  0.00  0.00    +0.000 A 
ATOM     19  N   UNL     1      -5.662  15.330  22.719  0.00  0.00    +0.000 NA
ATOM     20  C   UNL     1      -5.571  14.600  21.577  0.00  0.00    +0.000 A 
ENDBRANCH   2  15
BRANCH  12  21
ATOM     21  C   UNL     1       1.012   9.701  19.482  0.00  0.00    +0.000 A 
ATOM     22  C   UNL     1       1.022   8.833  20.592  0.00  0.00    +0.000 A 
ATOM     23  C   UNL     1       1.636   7.567  20.554  0.00  0.00    +0.000 A 
ATOM     24  C   UNL     1       2.249   7.123  19.390  0.00  0.00    +0.000 A 
ATOM     25  C   UNL     1       2.241   7.946  18.274  0.00  0.00    +0.000 A 
ATOM     26  C   UNL     1       1.638   9.215  18.327  0.00  0.00    +0.000 A 
ENDBRANCH  12  21
TORSDOF 2
ENDMDL
MODEL 7
REMARK VINA RESULT:      -6.5      2.691      8.357
REMARK  Name = 
REMARK  2 active torsions:
REMARK  status: ('A' for Active; 'I' for Inactive)
REMARK    1  A    between atoms: C_2  and  C_3
REMARK    2  A    between atoms: N_18  and  C_19
REMARK                            x       y       z     vdW  Elec       q    Type
REMARK                         _______ _______ _______ _____ _____    ______ ____
ROOT
ATOM      1  O   UNL     1       2.251   5.675  20.869  0.00  0.00    +0.000 OA
ATOM      2  C   UNL     1       2.214   6.516  19.964  0.00  0.00    +0.000 C 
ATOM      3  N   UNL     1       1.458   7.719  20.075  0.00  0.00    +0.000 N 
ATOM      4  C   UNL     1       0.916   7.837  21.412  0.00  0.00    +0.000 C 
ATOM      5  C   UNL     1       0.058   9.020  21.767  0.00  0.00    +0.000 C 
ATOM      6  C   UNL     1      -0.332   9.980  20.677  0.00  0.00    +0.000 C 
ATOM      7  C   UNL     1       0.620  10.205  19.500  0.00  0.00    +0.000 C 
ATOM      8  C   UNL     1       1.615  11.362  19.828  0.00  0.00    +0.000 C 
ATOM      9  O   UNL     1       1.058  12.677  19.919  0.00  0.00    +0.000 OA
ATOM     10  C   UNL     1       0.900  13.318  18.652  0.00  0.00    +0.000 C 
ATOM     11  C   UNL     1      -0.470  13.082  18.012  0.00  0.00    +0.000 C 
ATOM     12  N   UNL     1      -1.104  11.829  18.446  0.00  0.00    +0.000 N 
ATOM     13  C   UNL     1      -0.309  10.583  18.264  0.00  0.00    +0.000 C 
ATOM     14  C   UNL     1       1.481   8.905  19.172  0.00  0.00    +0.000 C 
ENDROOT
BRANCH   2  15
ATOM     15  C   UNL     1       3.060   6.174  18.804  0.00  0.00    +0.000 A 
ATOM     16  C   UNL     1       3.419   4.883  18.468  0.00  0.00    +0.000 A 
ATOM     17  C   UNL     1       4.210   4.655  17.347  0.00  0.00    +0.000 A 
ATOM     18  C   UNL     1       4.662   5.736  16.617  0.00  0.00    +0.000 A 
ATOM     19  N   UNL     1       4.408   7.020  16.954  0.00  0.00    +0.000 NA
ATOM     20  C   UNL     1       3.631   7.212  18.053  0.00  0.00    +0.000 A 
ENDBRANCH   2  15
BRANCH  12  21
ATOM     21  C   UNL     1      -2.508  11.829  18.343  0.00  0.00    +0.000 A 
ATOM     22  C   UNL     1      -3.359  12.234  19.390  0.00  0.00    +0.000 A 
ATOM     23  C   UNL     1      -4.754  12.055  19.341  0.00  0.00    +0.000 A 
ATOM     24  C   UNL     1      -5.344  11.476  18.226  0.00  0.00    +0.000 A 
ATOM     25  C   UNL     1      -4.536  11.083  17.169  0.00  0.00    +0.000 A 
ATOM     26  C   UNL     1      -3.143  11.251  17.235  0.00  0.00    +0.000 A 
ENDBRANCH  12  21
TORSDOF 2
ENDMDL
MODEL 8
REMARK VINA RESULT:      -6.4      4.680      8.186
REMARK  Name = 
REMARK  2 active torsions:
REMARK  status: ('A' for Active; 'I' for Inactive)
REMARK    1  A    between atoms: C_2  and  C_3
REMARK    2  A    between atoms: N_18  and  C_19
REMARK                            x       y       z     vdW  Elec       q    Type
REMARK                         _______ _______ _______ _____ _____    ______ ____
ROOT
ATOM      1  O   UNL     1      -0.276   9.062  21.211  0.00  0.00    +0.000 OA
ATOM      2  C   UNL     1       0.499   9.716  20.505  0.00  0.00    +0.000 C 
ATOM      3  N   UNL     1       0.589  11.136  20.589  0.00  0.00    +0.000 N 
ATOM      4  C   UNL     1      -0.219  11.614  21.691  0.00  0.00    +0.000 C 
ATOM      5  C   UNL     1      -0.303  13.090  21.968  0.00  0.00    +0.000 C 
ATOM      6  C   UNL     1       0.345  14.043  21.002  0.00  0.00    +0.000 C 
ATOM      7  C   UNL     1       1.595  13.601  20.238  0.00  0.00    +0.000 C 
ATOM      8  C   UNL     1       2.876  13.947  21.059  0.00  0.00    +0.000 C 
ATOM      9  O   UNL     1       3.184  15.337  21.208  0.00  0.00    +0.000 OA
ATOM     10  C   UNL     1       3.884  15.888  20.090  0.00  0.00    +0.000 C 
ATOM     11  C   UNL     1       2.964  16.489  19.027  0.00  0.00    +0.000 C 
ATOM     12  N   UNL     1       1.624  15.884  19.010  0.00  0.00    +0.000 N 
ATOM     13  C   UNL     1       1.564  14.404  18.864  0.00  0.00    +0.000 C 
ATOM     14  C   UNL     1       1.605  12.031  19.965  0.00  0.00    +0.000 C 
ENDROOT
BRANCH   2  15
ATOM     15  C   UNL     1       1.341   8.885  19.623  0.00  0.00    +0.000 A 
ATOM     16  C   UNL     1       1.582   9.174  18.293  0.00  0.00    +0.000 A 
ATOM     17  C   UNL     1       2.401   8.338  17.542  0.00  0.00    +0.000 A 
ATOM     18  C   UNL     1       2.922   7.204  18.134  0.00  0.00    +0.000 A 
ATOM     19  N   UNL     1       2.647   6.835  19.404  0.00  0.00    +0.000 NA
ATOM     20  C   UNL     1       1.845   7.671  20.115  0.00  0.00    +0.000 A 
ENDBRANCH   2  15
BRANCH  12  21
ATOM     21  C   UNL     1       0.623  16.719  18.480  0.00  0.00    +0.000 A 
ATOM     22  C   UNL     1       0.868  17.682  17.481  0.00  0.00    +0.000 A 
ATOM     23  C   UNL     1      -0.097  18.631  17.094  0.00  0.00    +0.000 A 
ATOM     24  C   UNL     1      -1.352  18.631  17.688  0.00  0.00    +0.000 A 
ATOM     25  C   UNL     1      -1.632  17.684  18.661  0.00  0.00    +0.000 A 
ATOM     26  C   UNL     1      -0.657  16.751  19.052  0.00  0.00    +0.000 A 
ENDBRANCH  12  21
TORSDOF 2
ENDMDL
MODEL 9
REMARK VINA RESULT:      -6.3      2.882      7.773
REMARK  Name = 
REMARK  2 active torsions:
REMARK  status: ('A' for Active; 'I' for Inactive)
REMARK    1  A    between atoms: C_2  and  C_3
REMARK    2  A    between atoms: N_18  and  C_19
REMARK                            x       y       z     vdW  Elec       q    Type
REMARK                         _______ _______ _______ _____ _____    ______ ____
ROOT
ATOM      1  O   UNL     1       3.025  12.534  18.044  0.00  0.00    +0.000 OA
ATOM      2  C   UNL     1       2.231  13.179  18.737  0.00  0.00    +0.000 C 
ATOM      3  N   UNL     1       1.022  12.612  19.234  0.00  0.00    +0.000 N 
ATOM      4  C   UNL     1       0.983  11.197  18.933  0.00  0.00    +0.000 C 
ATOM      5  C   UNL     1      -0.212  10.381  19.340  0.00  0.00    +0.000 C 
ATOM      6  C   UNL     1      -1.403  11.089  19.925  0.00  0.00    +0.000 C 
ATOM      7  C   UNL     1      -1.190  12.369  20.737  0.00  0.00    +0.000 C 
ATOM      8  C   UNL     1      -0.966  12.018  22.242  0.00  0.00    +0.000 C 
ATOM      9  O   UNL     1      -2.092  11.489  22.949  0.00  0.00    +0.000 OA
ATOM     10  C   UNL     1      -2.988  12.495  23.429  0.00  0.00    +0.000 C 
ATOM     11  C   UNL     1      -4.112  12.833  22.448  0.00  0.00    +0.000 C 
ATOM     12  N   UNL     1      -3.756  12.573  21.045  0.00  0.00    +0.000 N 
ATOM     13  C   UNL     1      -2.516  13.226  20.542  0.00  0.00    +0.000 C 
ATOM     14  C   UNL     1       0.082  13.188  20.238  0.00  0.00    +0.000 C 
ENDROOT
BRANCH   2  15
ATOM     15  C   UNL     1       2.685  14.552  19.034  0.00  0.00    +0.000 A 
ATOM     16  C   UNL     1       2.167  15.681  18.428  0.00  0.00    +0.000 A 
ATOM     17  C   UNL     1       2.648  16.937  18.782  0.00  0.00    +0.000 A 
ATOM     18  C   UNL     1       3.673  17.026  19.702  0.00  0.00    +0.000 A 
ATOM     19  N   UNL     1       4.269  15.947  20.258  0.00  0.00    +0.000 NA
ATOM     20  C   UNL     1       3.777  14.733  19.895  0.00  0.00    +0.000 A 
ENDBRANCH   2  15
BRANCH  12  21
ATOM     21  C   UNL     1      -4.860  12.341  20.205  0.00  0.00    +0.000 A 
ATOM     22  C   UNL     1      -6.170  12.148  20.686  0.00  0.00    +0.000 A 
ATOM     23  C   UNL     1      -7.227  11.736  19.853  0.00  0.00    +0.000 A 
ATOM     24  C   UNL     1      -7.005  11.519  18.500  0.00  0.00    +0.000 A 
ATOM     25  C   UNL     1      -5.730  11.717  17.990  0.00  0.00    +0.000 A 
ATOM     26  C   UNL     1      -4.678  12.114  18.834  0.00  0.00    +0.000 A 
ENDBRANCH  12  21
TORSDOF 2
ENDMDL
