MODEL 1
REMARK VINA RESULT:      -9.5      0.000      0.000
REMARK  Name = 
REMARK  5 active torsions:
REMARK  status: ('A' for Active; 'I' for Inactive)
REMARK    1  A    between atoms: C_2  and  C_21
REMARK    2  A    between atoms: N_3  and  C_4
REMARK    3  A    between atoms: C_7  and  O_8
REMARK    4  A    between atoms: O_8  and  C_9
REMARK    5  A    between atoms: C_25  and  C_26
REMARK                            x       y       z     vdW  Elec       q    Type
REMARK                         _______ _______ _______ _____ _____    ______ ____
ROOT
ATOM      1  O   UNL     1       1.515   9.881  22.240  0.00  0.00    +0.000 OA
ATOM      2  C   UNL     1       0.827  10.214  21.277  0.00  0.00    +0.000 C 
ATOM      3  N   UNL     1       0.828   9.615  20.038  0.00  0.00    +0.000 N 
ATOM      4  H   UNL     1       0.264  10.066  19.313  0.00  0.00    +0.000 HD
ENDROOT
BRANCH   3   5
ATOM      5  C   UNL     1       1.610   8.526  19.612  0.00  0.00    +0.000 A 
ATOM      6  C   UNL     1       2.335   8.506  18.417  0.00  0.00    +0.000 A 
ATOM      7  C   UNL     1       3.021   7.349  18.021  0.00  0.00    +0.000 A 
ATOM      8  C   UNL     1       2.993   6.205  18.819  0.00  0.00    +0.000 A 
ATOM      9  C   UNL     1       2.349   6.265  20.055  0.00  0.00    +0.000 A 
ATOM     10  F   UNL     1       2.359   5.223  20.898  0.00  0.00    +0.000 F 
ATOM     11  C   UNL     1       1.645   7.404  20.442  0.00  0.00    +0.000 A 
BRANCH   8  12
ATOM     12  O   UNL     1       3.666   5.114  18.319  0.00  0.00    +0.000 OA
BRANCH  12  13
ATOM     13  C   UNL     1       5.039   5.141  18.203  0.00  0.00    +0.000 A 
ATOM     14  C   UNL     1       5.920   5.347  19.271  0.00  0.00    +0.000 A 
ATOM     15  C   UNL     1       7.282   5.424  19.021  0.00  0.00    +0.000 A 
ATOM     16  N   UNL     1       7.878   5.247  17.822  0.00  0.00    +0.000 NA
ATOM     17  C   UNL     1       6.999   4.959  16.846  0.00  0.00    +0.000 A 
ATOM     18  N   UNL     1       7.349   4.689  15.552  0.00  0.00    +0.000 N 
ATOM     19  C   UNL     1       6.229   4.406  14.814  0.00  0.00    +0.000 A 
ATOM     20  C   UNL     1       5.137   4.527  15.649  0.00  0.00    +0.000 A 
ATOM     21  C   UNL     1       5.614   4.879  16.945  0.00  0.00    +0.000 A 
ATOM     22  H   UNL     1       8.304   4.691  15.224  0.00  0.00    +0.000 HD
ENDBRANCH  12  13
ENDBRANCH   8  12
ENDBRANCH   3   5
BRANCH   2  23
ATOM     23  C   UNL     1      -0.089  11.386  21.391  0.00  0.00    +0.000 A 
ATOM     24  C   UNL     1       0.210  12.496  20.696  0.00  0.00    +0.000 A 
ATOM     25  O   UNL     1      -0.540  13.645  20.679  0.00  0.00    +0.000 OA
ATOM     26  C   UNL     1      -1.734  13.636  21.361  0.00  0.00    +0.000 A 
ATOM     27  C   UNL     1      -2.185  12.616  22.102  0.00  0.00    +0.000 A 
ATOM     28  C   UNL     1      -1.322  11.409  22.211  0.00  0.00    +0.000 A 
ATOM     29  O   UNL     1      -1.614  10.465  22.944  0.00  0.00    +0.000 OA
BRANCH  27  30
ATOM     30  C   UNL     1      -3.488  12.697  22.766  0.00  0.00    +0.000 A 
ATOM     31  C   UNL     1      -4.658  12.837  22.000  0.00  0.00    +0.000 A 
ATOM     32  C   UNL     1      -5.898  12.936  22.631  0.00  0.00    +0.000 A 
ATOM     33  C   UNL     1      -5.967  12.895  24.019  0.00  0.00    +0.000 A 
ATOM     34  F   UNL     1      -7.158  12.998  24.624  0.00  0.00    +0.000 F 
ATOM     35  C   UNL     1      -4.819  12.751  24.790  0.00  0.00    +0.000 A 
ATOM     36  C   UNL     1      -3.576  12.650  24.162  0.00  0.00    +0.000 A 
ENDBRANCH  27  30
ENDBRANCH   2  23
TORSDOF 5
ENDMDL
MODEL 2
REMARK VINA RESULT:      -9.4      2.896     11.608
REMARK  Name = 
REMARK  5 active torsions:
REMARK  status: ('A' for Active; 'I' for Inactive)
REMARK    1  A    between atoms: C_2  and  C_21
REMARK    2  A    between atoms: N_3  and  C_4
REMARK    3  A    between atoms: C_7  and  O_8
REMARK    4  A    between atoms: O_8  and  C_9
REMARK    5  A    between atoms: C_25  and  C_26
REMARK                            x       y       z     vdW  Elec       q    Type
REMARK                         _______ _______ _______ _____ _____    ______ ____
ROOT
ATOM      1  O   UNL     1       0.621   5.761  20.757  0.00  0.00    +0.000 OA
ATOM      2  C   UNL     1       1.701   6.190  20.354  0.00  0.00    +0.000 C 
ATOM      3  N   UNL     1       2.071   7.514  20.291  0.00  0.00    +0.000 N 
ATOM      4  H   UNL     1       2.971   7.715  19.847  0.00  0.00    +0.000 HD
ENDROOT
BRANCH   3   5
ATOM      5  C   UNL     1       1.305   8.638  20.653  0.00  0.00    +0.000 A 
ATOM      6  C   UNL     1       0.975   9.672  19.773  0.00  0.00    +0.000 A 
ATOM      7  C   UNL     1       0.281  10.801  20.232  0.00  0.00    +0.000 A 
ATOM      8  C   UNL     1      -0.094  10.902  21.571  0.00  0.00    +0.000 A 
ATOM      9  C   UNL     1       0.153   9.822  22.420  0.00  0.00    +0.000 A 
ATOM     10  F   UNL     1      -0.257   9.830  23.696  0.00  0.00    +0.000 F 
ATOM     11  C   UNL     1       0.864   8.709  21.975  0.00  0.00    +0.000 A 
BRANCH   8  12
ATOM     12  O   UNL     1      -0.736  12.067  21.924  0.00  0.00    +0.000 OA
BRANCH  12  13
ATOM     13  C   UNL     1      -2.040  12.283  21.537  0.00  0.00    +0.000 A 
ATOM     14  C   UNL     1      -2.471  12.349  20.207  0.00  0.00    +0.000 A 
ATOM     15  C   UNL     1      -3.799  12.643  19.937  0.00  0.00    +0.000 A 
ATOM     16  N   UNL     1      -4.774  12.811  20.857  0.00  0.00    +0.000 NA
ATOM     17  C   UNL     1      -4.331  12.645  22.116  0.00  0.00    +0.000 A 
ATOM     18  N   UNL     1      -5.127  12.716  23.226  0.00  0.00    +0.000 N 
ATOM     19  C   UNL     1      -4.382  12.474  24.351  0.00  0.00    +0.000 A 
ATOM     20  C   UNL     1      -3.076  12.272  23.953  0.00  0.00    +0.000 A 
ATOM     21  C   UNL     1      -3.031  12.380  22.532  0.00  0.00    +0.000 A 
ATOM     22  H   UNL     1      -6.118  12.906  23.187  0.00  0.00    +0.000 HD
ENDBRANCH  12  13
ENDBRANCH   8  12
ENDBRANCH   3   5
BRANCH   2  23
ATOM     23  C   UNL     1       2.733   5.241  19.846  0.00  0.00    +0.000 A 
ATOM     24  C   UNL     1       2.859   4.052  20.459  0.00  0.00    +0.000 A 
ATOM     25  O   UNL     1       3.744   3.067  20.099  0.00  0.00    +0.000 OA
ATOM     26  C   UNL     1       4.507   3.275  18.974  0.00  0.00    +0.000 A 
ATOM     27  C   UNL     1       4.505   4.398  18.245  0.00  0.00    +0.000 A 
ATOM     28  C   UNL     1       3.626   5.511  18.696  0.00  0.00    +0.000 A 
ATOM     29  O   UNL     1       3.632   6.609  18.142  0.00  0.00    +0.000 OA
BRANCH  27  30
ATOM     30  C   UNL     1       5.335   4.507  17.044  0.00  0.00    +0.000 A 
ATOM     31  C   UNL     1       6.677   4.911  17.153  0.00  0.00    +0.000 A 
ATOM     32  C   UNL     1       7.464   5.037  16.008  0.00  0.00    +0.000 A 
ATOM     33  C   UNL     1       6.912   4.761  14.762  0.00  0.00    +0.000 A 
ATOM     34  F   UNL     1       7.666   4.890  13.663  0.00  0.00    +0.000 F 
ATOM     35  C   UNL     1       5.587   4.355  14.639  0.00  0.00    +0.000 A 
ATOM     36  C   UNL     1       4.797   4.227  15.783  0.00  0.00    +0.000 A 
ENDBRANCH  27  30
ENDBRANCH   2  23
TORSDOF 5
ENDMDL
MODEL 3
REMARK VINA RESULT:      -9.3      7.594     11.079
REMARK  Name = 
REMARK  5 active torsions:
REMARK  status: ('A' for Active; 'I' for Inactive)
REMARK    1  A    between atoms: C_2  and  C_21
REMARK    2  A    between atoms: N_3  and  C_4
REMARK    3  A    between atoms: C_7  and  O_8
REMARK    4  A    between atoms: O_8  and  C_9
REMARK    5  A    between atoms: C_25  and  C_26
REMARK                            x       y       z     vdW  Elec       q    Type
REMARK                         _______ _______ _______ _____ _____    ______ ____
ROOT
ATOM      1  O   UNL     1       8.275   6.936  19.062  0.00  0.00    +0.000 OA
ATOM      2  C   UNL     1       7.668   7.280  18.049  0.00  0.00    +0.000 C 
ATOM      3  N   UNL     1       7.663   8.542  17.500  0.00  0.00    +0.000 N 
ATOM      4  H   UNL     1       7.035   8.690  16.705  0.00  0.00    +0.000 HD
ENDROOT
BRANCH   3   5
ATOM      5  C   UNL     1       8.325   9.688  17.977  0.00  0.00    +0.000 A 
ATOM      6  C   UNL     1       9.305   9.665  18.973  0.00  0.00    +0.000 A 
ATOM      7  C   UNL     1       9.857  10.860  19.455  0.00  0.00    +0.000 A 
ATOM      8  C   UNL     1       9.438  12.088  18.941  0.00  0.00    +0.000 A 
ATOM      9  C   UNL     1       8.532  12.096  17.880  0.00  0.00    +0.000 A 
ATOM     10  F   UNL     1       8.156  13.242  17.293  0.00  0.00    +0.000 F 
ATOM     11  C   UNL     1       7.963  10.913  17.414  0.00  0.00    +0.000 A 
BRANCH   8  12
ATOM     12  O   UNL     1      10.015  13.199  19.511  0.00  0.00    +0.000 OA
BRANCH  12  13
ATOM     13  C   UNL     1      10.619  14.150  18.717  0.00  0.00    +0.000 A 
ATOM     14  C   UNL     1      11.774  13.930  17.959  0.00  0.00    +0.000 A 
ATOM     15  C   UNL     1      12.333  14.985  17.251  0.00  0.00    +0.000 A 
ATOM     16  N   UNL     1      11.823  16.232  17.158  0.00  0.00    +0.000 NA
ATOM     17  C   UNL     1      10.664  16.368  17.825  0.00  0.00    +0.000 A 
ATOM     18  N   UNL     1       9.922  17.517  17.850  0.00  0.00    +0.000 N 
ATOM     19  C   UNL     1       8.786  17.322  18.592  0.00  0.00    +0.000 A 
ATOM     20  C   UNL     1       8.817  16.030  19.076  0.00  0.00    +0.000 A 
ATOM     21  C   UNL     1      10.009  15.413  18.595  0.00  0.00    +0.000 A 
ATOM     22  H   UNL     1      10.193  18.362  17.369  0.00  0.00    +0.000 HD
ENDBRANCH  12  13
ENDBRANCH   8  12
ENDBRANCH   3   5
BRANCH   2  23
ATOM     23  C   UNL     1       6.818   6.292  17.323  0.00  0.00    +0.000 A 
ATOM     24  C   UNL     1       7.232   5.862  16.120  0.00  0.00    +0.000 A 
ATOM     25  O   UNL     1       6.575   4.944  15.339  0.00  0.00    +0.000 OA
ATOM     26  C   UNL     1       5.448   4.354  15.861  0.00  0.00    +0.000 A 
ATOM     27  C   UNL     1       4.900   4.663  17.043  0.00  0.00    +0.000 A 
ATOM     28  C   UNL     1       5.548   5.737  17.844  0.00  0.00    +0.000 A 
ATOM     29  O   UNL     1       5.060   6.148  18.895  0.00  0.00    +0.000 OA
BRANCH  27  30
ATOM     30  C   UNL     1       3.712   3.953  17.521  0.00  0.00    +0.000 A 
ATOM     31  C   UNL     1       3.777   2.573  17.782  0.00  0.00    +0.000 A 
ATOM     32  C   UNL     1       2.641   1.890  18.217  0.00  0.00    +0.000 A 
ATOM     33  C   UNL     1       1.448   2.583  18.389  0.00  0.00    +0.000 A 
ATOM     34  F   UNL     1       0.356   1.924  18.799  0.00  0.00    +0.000 F 
ATOM     35  C   UNL     1       1.369   3.948  18.140  0.00  0.00    +0.000 A 
ATOM     36  C   UNL     1       2.504   4.636  17.706  0.00  0.00    +0.000 A 
ENDBRANCH  27  30
ENDBRANCH   2  23
TORSDOF 5
ENDMDL
MODEL 4
REMARK VINA RESULT:      -9.2      3.101     11.552
REMARK  Name = 
REMARK  5 active torsions:
REMARK  status: ('A' for Active; 'I' for Inactive)
REMARK    1  A    between atoms: C_2  and  C_21
REMARK    2  A    between atoms: N_3  and  C_4
REMARK    3  A    between atoms: C_7  and  O_8
REMARK    4  A    between atoms: O_8  and  C_9
REMARK    5  A    between atoms: C_25  and  C_26
REMARK                            x       y       z     vdW  Elec       q    Type
REMARK                         _______ _______ _______ _____ _____    ______ ____
ROOT
ATOM      1  O   UNL     1       0.875   5.607  20.805  0.00  0.00    +0.000 OA
ATOM      2  C   UNL     1       1.904   6.093  20.339  0.00  0.00    +0.000 C 
ATOM      3  N   UNL     1       2.194   7.435  20.246  0.00  0.00    +0.000 N 
ATOM      4  H   UNL     1       3.055   7.682  19.751  0.00  0.00    +0.000 HD
ENDROOT
BRANCH   3   5
ATOM      5  C   UNL     1       1.388   8.517  20.644  0.00  0.00    +0.000 A 
ATOM      6  C   UNL     1       1.078   8.810  21.975  0.00  0.00    +0.000 A 
ATOM      7  C   UNL     1       0.196   9.856  22.285  0.00  0.00    +0.000 A 
ATOM      8  C   UNL     1      -0.378  10.619  21.268  0.00  0.00    +0.000 A 
ATOM      9  C   UNL     1       0.013  10.382  19.950  0.00  0.00    +0.000 A 
ATOM     10  F   UNL     1      -0.444  11.138  18.941  0.00  0.00    +0.000 F 
ATOM     11  C   UNL     1       0.870   9.330  19.634  0.00  0.00    +0.000 A 
BRANCH   8  12
ATOM     12  O   UNL     1      -1.258  11.594  21.680  0.00  0.00    +0.000 OA
BRANCH  12  13
ATOM     13  C   UNL     1      -0.788  12.823  22.089  0.00  0.00    +0.000 A 
ATOM     14  C   UNL     1       0.337  13.459  21.553  0.00  0.00    +0.000 A 
ATOM     15  C   UNL     1       0.757  14.666  22.094  0.00  0.00    +0.000 A 
ATOM     16  N   UNL     1       0.132  15.351  23.076  0.00  0.00    +0.000 NA
ATOM     17  C   UNL     1      -0.994  14.747  23.493  0.00  0.00    +0.000 A 
ATOM     18  N   UNL     1      -1.833  15.258  24.444  0.00  0.00    +0.000 N 
ATOM     19  C   UNL     1      -2.903  14.419  24.622  0.00  0.00    +0.000 A 
ATOM     20  C   UNL     1      -2.727  13.334  23.788  0.00  0.00    +0.000 A 
ATOM     21  C   UNL     1      -1.515  13.531  23.065  0.00  0.00    +0.000 A 
ATOM     22  H   UNL     1      -1.668  16.136  24.916  0.00  0.00    +0.000 HD
ENDBRANCH  12  13
ENDBRANCH   8  12
ENDBRANCH   3   5
BRANCH   2  23
ATOM     23  C   UNL     1       2.958   5.198  19.779  0.00  0.00    +0.000 A 
ATOM     24  C   UNL     1       3.182   4.021  20.387  0.00  0.00    +0.000 A 
ATOM     25  O   UNL     1       4.099   3.084  19.983  0.00  0.00    +0.000 OA
ATOM     26  C   UNL     1       4.789   3.327  18.818  0.00  0.00    +0.000 A 
ATOM     27  C   UNL     1       4.687   4.445  18.088  0.00  0.00    +0.000 A 
ATOM     28  C   UNL     1       3.774   5.511  18.583  0.00  0.00    +0.000 A 
ATOM     29  O   UNL     1       3.690   6.605  18.026  0.00  0.00    +0.000 OA
BRANCH  27  30
ATOM     30  C   UNL     1       5.445   4.593  16.845  0.00  0.00    +0.000 A 
ATOM     31  C   UNL     1       4.856   4.244  15.617  0.00  0.00    +0.000 A 
ATOM     32  C   UNL     1       5.584   4.364  14.433  0.00  0.00    +0.000 A 
ATOM     33  C   UNL     1       6.893   4.830  14.477  0.00  0.00    +0.000 A 
ATOM     34  F   UNL     1       7.593   4.937  13.340  0.00  0.00    +0.000 F 
ATOM     35  C   UNL     1       7.488   5.185  15.683  0.00  0.00    +0.000 A 
ATOM     36  C   UNL     1       6.762   5.067  16.870  0.00  0.00    +0.000 A 
ENDBRANCH  27  30
ENDBRANCH   2  23
TORSDOF 5
ENDMDL
MODEL 5
REMARK VINA RESULT:      -9.2      7.559     10.949
REMARK  Name = 
REMARK  5 active torsions:
REMARK  status: ('A' for Active; 'I' for Inactive)
REMARK    1  A    between atoms: C_2  and  C_21
REMARK    2  A    between atoms: N_3  and  C_4
REMARK    3  A    between atoms: C_7  and  O_8
REMARK    4  A    between atoms: O_8  and  C_9
REMARK    5  A    between atoms: C_25  and  C_26
REMARK                            x       y       z     vdW  Elec       q    Type
REMARK                         _______ _______ _______ _____ _____    ______ ____
ROOT
ATOM      1  O   UNL     1       8.364   6.686  18.941  0.00  0.00    +0.000 OA
ATOM      2  C   UNL     1       7.672   7.070  18.000  0.00  0.00    +0.000 C 
ATOM      3  N   UNL     1       7.595   8.360  17.527  0.00  0.00    +0.000 N 
ATOM      4  H   UNL     1       6.904   8.536  16.793  0.00  0.00    +0.000 HD
ENDROOT
BRANCH   3   5
ATOM      5  C   UNL     1       8.265   9.496  18.019  0.00  0.00    +0.000 A 
ATOM      6  C   UNL     1       9.120   9.479  19.124  0.00  0.00    +0.000 A 
ATOM      7  C   UNL     1       9.684  10.669  19.605  0.00  0.00    +0.000 A 
ATOM      8  C   UNL     1       9.402  11.885  18.981  0.00  0.00    +0.000 A 
ATOM      9  C   UNL     1       8.628  11.879  17.820  0.00  0.00    +0.000 A 
ATOM     10  F   UNL     1       8.393  13.006  17.133  0.00  0.00    +0.000 F 
ATOM     11  C   UNL     1       8.046  10.702  17.353  0.00  0.00    +0.000 A 
BRANCH   8  12
ATOM     12  O   UNL     1       9.975  12.996  19.556  0.00  0.00    +0.000 OA
BRANCH  12  13
ATOM     13  C   UNL     1       9.265  14.174  19.645  0.00  0.00    +0.000 A 
ATOM     14  C   UNL     1       8.251  14.418  20.577  0.00  0.00    +0.000 A 
ATOM     15  C   UNL     1       7.557  15.618  20.526  0.00  0.00    +0.000 A 
ATOM     16  N   UNL     1       7.810  16.642  19.684  0.00  0.00    +0.000 NA
ATOM     17  C   UNL     1       8.853  16.398  18.871  0.00  0.00    +0.000 A 
ATOM     18  N   UNL     1       9.342  17.291  17.959  0.00  0.00    +0.000 N 
ATOM     19  C   UNL     1      10.423  16.752  17.310  0.00  0.00    +0.000 A 
ATOM     20  C   UNL     1      10.610  15.475  17.799  0.00  0.00    +0.000 A 
ATOM     21  C   UNL     1       9.616  15.238  18.792  0.00  0.00    +0.000 A 
ATOM     22  H   UNL     1       8.951  18.211  17.819  0.00  0.00    +0.000 HD
ENDBRANCH  12  13
ENDBRANCH   8  12
ENDBRANCH   3   5
BRANCH   2  23
ATOM     23  C   UNL     1       6.792   6.102  17.284  0.00  0.00    +0.000 A 
ATOM     24  C   UNL     1       7.183   5.659  16.077  0.00  0.00    +0.000 A 
ATOM     25  O   UNL     1       6.496   4.756  15.305  0.00  0.00    +0.000 OA
ATOM     26  C   UNL     1       5.360   4.195  15.839  0.00  0.00    +0.000 A 
ATOM     27  C   UNL     1       4.831   4.519  17.026  0.00  0.00    +0.000 A 
ATOM     28  C   UNL     1       5.513   5.579  17.818  0.00  0.00    +0.000 A 
ATOM     29  O   UNL     1       5.046   6.004  18.873  0.00  0.00    +0.000 OA
BRANCH  27  30
ATOM     30  C   UNL     1       3.631   3.840  17.517  0.00  0.00    +0.000 A 
ATOM     31  C   UNL     1       2.406   4.526  17.565  0.00  0.00    +0.000 A 
ATOM     32  C   UNL     1       1.265   3.888  18.053  0.00  0.00    +0.000 A 
ATOM     33  C   UNL     1       1.351   2.571  18.491  0.00  0.00    +0.000 A 
ATOM     34  F   UNL     1       0.257   1.962  18.967  0.00  0.00    +0.000 F 
ATOM     35  C   UNL     1       2.555   1.877  18.445  0.00  0.00    +0.000 A 
ATOM     36  C   UNL     1       3.698   2.512  17.956  0.00  0.00    +0.000 A 
ENDBRANCH  27  30
ENDBRANCH   2  23
TORSDOF 5
ENDMDL
MODEL 6
REMARK VINA RESULT:      -9.1      3.089     11.583
REMARK  Name = 
REMARK  5 active torsions:
REMARK  status: ('A' for Active; 'I' for Inactive)
REMARK    1  A    between atoms: C_2  and  C_21
REMARK    2  A    between atoms: N_3  and  C_4
REMARK    3  A    between atoms: C_7  and  O_8
REMARK    4  A    between atoms: O_8  and  C_9
REMARK    5  A    between atoms: C_25  and  C_26
REMARK                            x       y       z     vdW  Elec       q    Type
REMARK                         _______ _______ _______ _____ _____    ______ ____
ROOT
ATOM      1  O   UNL     1       0.093   6.256  20.926  0.00  0.00    +0.000 OA
ATOM      2  C   UNL     1       1.279   6.556  20.806  0.00  0.00    +0.000 C 
ATOM      3  N   UNL     1       1.819   7.809  20.990  0.00  0.00    +0.000 N 
ATOM      4  H   UNL     1       2.811   7.915  20.764  0.00  0.00    +0.000 HD
ENDROOT
BRANCH   3   5
ATOM      5  C   UNL     1       1.141   8.993  21.335  0.00  0.00    +0.000 A 
ATOM      6  C   UNL     1       0.463   9.180  22.542  0.00  0.00    +0.000 A 
ATOM      7  C   UNL     1      -0.261  10.358  22.776  0.00  0.00    +0.000 A 
ATOM      8  C   UNL     1      -0.308  11.360  21.807  0.00  0.00    +0.000 A 
ATOM      9  C   UNL     1       0.451  11.207  20.646  0.00  0.00    +0.000 A 
ATOM     10  F   UNL     1       0.508  12.172  19.718  0.00  0.00    +0.000 F 
ATOM     11  C   UNL     1       1.152  10.028  20.399  0.00  0.00    +0.000 A 
BRANCH   8  12
ATOM     12  O   UNL     1      -1.078  12.456  22.121  0.00  0.00    +0.000 OA
BRANCH  12  13
ATOM     13  C   UNL     1      -2.385  12.531  21.691  0.00  0.00    +0.000 A 
ATOM     14  C   UNL     1      -2.776  12.548  20.348  0.00  0.00    +0.000 A 
ATOM     15  C   UNL     1      -4.119  12.697  20.034  0.00  0.00    +0.000 A 
ATOM     16  N   UNL     1      -5.135  12.762  20.920  0.00  0.00    +0.000 NA
ATOM     17  C   UNL     1      -4.719  12.648  22.194  0.00  0.00    +0.000 A 
ATOM     18  N   UNL     1      -5.554  12.636  23.277  0.00  0.00    +0.000 N 
ATOM     19  C   UNL     1      -4.824  12.477  24.427  0.00  0.00    +0.000 A 
ATOM     20  C   UNL     1      -3.492  12.416  24.072  0.00  0.00    +0.000 A 
ATOM     21  C   UNL     1      -3.413  12.524  22.653  0.00  0.00    +0.000 A 
ATOM     22  H   UNL     1      -6.557  12.719  23.205  0.00  0.00    +0.000 HD
ENDBRANCH  12  13
ENDBRANCH   8  12
ENDBRANCH   3   5
BRANCH   2  23
ATOM     23  C   UNL     1       2.268   5.518  20.395  0.00  0.00    +0.000 A 
ATOM     24  C   UNL     1       2.242   4.331  21.024  0.00  0.00    +0.000 A 
ATOM     25  O   UNL     1       3.069   3.271  20.748  0.00  0.00    +0.000 OA
ATOM     26  C   UNL     1       3.940   3.400  19.691  0.00  0.00    +0.000 A 
ATOM     27  C   UNL     1       4.094   4.510  18.958  0.00  0.00    +0.000 A 
ATOM     28  C   UNL     1       3.276   5.698  19.325  0.00  0.00    +0.000 A 
ATOM     29  O   UNL     1       3.420   6.785  18.766  0.00  0.00    +0.000 OA
BRANCH  27  30
ATOM     30  C   UNL     1       5.030   4.534  17.833  0.00  0.00    +0.000 A 
ATOM     31  C   UNL     1       6.385   4.834  18.053  0.00  0.00    +0.000 A 
ATOM     32  C   UNL     1       7.275   4.879  16.980  0.00  0.00    +0.000 A 
ATOM     33  C   UNL     1       6.812   4.627  15.693  0.00  0.00    +0.000 A 
ATOM     34  F   UNL     1       7.665   4.679  14.663  0.00  0.00    +0.000 F 
ATOM     35  C   UNL     1       5.475   4.323  15.460  0.00  0.00    +0.000 A 
ATOM     36  C   UNL     1       4.581   4.276  16.532  0.00  0.00    +0.000 A 
ENDBRANCH  27  30
ENDBRANCH   2  23
TORSDOF 5
ENDMDL
MODEL 7
REMARK VINA RESULT:      -9.1      7.582     10.843
REMARK  Name = 
REMARK  5 active torsions:
REMARK  status: ('A' for Active; 'I' for Inactive)
REMARK    1  A    between atoms: C_2  and  C_21
REMARK    2  A    between atoms: N_3  and  C_4
REMARK    3  A    between atoms: C_7  and  O_8
REMARK    4  A    between atoms: O_8  and  C_9
REMARK    5  A    between atoms: C_25  and  C_26
REMARK                            x       y       z     vdW  Elec       q    Type
REMARK                         _______ _______ _______ _____ _____    ______ ____
ROOT
ATOM      1  O   UNL     1       8.341   6.669  18.924  0.00  0.00    +0.000 OA
ATOM      2  C   UNL     1       7.658   7.085  17.991  0.00  0.00    +0.000 C 
ATOM      3  N   UNL     1       7.607   8.386  17.544  0.00  0.00    +0.000 N 
ATOM      4  H   UNL     1       6.921   8.591  16.813  0.00  0.00    +0.000 HD
ENDROOT
BRANCH   3   5
ATOM      5  C   UNL     1       8.301   9.498  18.057  0.00  0.00    +0.000 A 
ATOM      6  C   UNL     1       9.135   9.447  19.178  0.00  0.00    +0.000 A 
ATOM      7  C   UNL     1       9.724  10.616  19.679  0.00  0.00    +0.000 A 
ATOM      8  C   UNL     1       9.487  11.845  19.062  0.00  0.00    +0.000 A 
ATOM      9  C   UNL     1       8.733  11.872  17.889  0.00  0.00    +0.000 A 
ATOM     10  F   UNL     1       8.542  13.012  17.209  0.00  0.00    +0.000 F 
ATOM     11  C   UNL     1       8.127  10.716  17.400  0.00  0.00    +0.000 A 
BRANCH   8  12
ATOM     12  O   UNL     1      10.081  12.934  19.658  0.00  0.00    +0.000 OA
BRANCH  12  13
ATOM     13  C   UNL     1       9.309  13.883  20.292  0.00  0.00    +0.000 A 
ATOM     14  C   UNL     1       8.849  15.060  19.691  0.00  0.00    +0.000 A 
ATOM     15  C   UNL     1       8.137  15.977  20.451  0.00  0.00    +0.000 A 
ATOM     16  N   UNL     1       7.768  15.817  21.740  0.00  0.00    +0.000 NA
ATOM     17  C   UNL     1       8.151  14.632  22.245  0.00  0.00    +0.000 A 
ATOM     18  N   UNL     1       7.861  14.206  23.512  0.00  0.00    +0.000 N 
ATOM     19  C   UNL     1       8.366  12.947  23.709  0.00  0.00    +0.000 A 
ATOM     20  C   UNL     1       9.019  12.572  22.552  0.00  0.00    +0.000 A 
ATOM     21  C   UNL     1       8.889  13.637  21.613  0.00  0.00    +0.000 A 
ATOM     22  H   UNL     1       7.336  14.757  24.175  0.00  0.00    +0.000 HD
ENDBRANCH  12  13
ENDBRANCH   8  12
ENDBRANCH   3   5
BRANCH   2  23
ATOM     23  C   UNL     1       6.758   6.150  17.256  0.00  0.00    +0.000 A 
ATOM     24  C   UNL     1       7.114   5.768  16.018  0.00  0.00    +0.000 A 
ATOM     25  O   UNL     1       6.406   4.900  15.224  0.00  0.00    +0.000 OA
ATOM     26  C   UNL     1       5.287   4.310  15.764  0.00  0.00    +0.000 A 
ATOM     27  C   UNL     1       4.794   4.575  16.980  0.00  0.00    +0.000 A 
ATOM     28  C   UNL     1       5.498   5.597  17.802  0.00  0.00    +0.000 A 
ATOM     29  O   UNL     1       5.061   5.969  18.890  0.00  0.00    +0.000 OA
BRANCH  27  30
ATOM     30  C   UNL     1       3.611   3.868  17.474  0.00  0.00    +0.000 A 
ATOM     31  C   UNL     1       2.392   4.553  17.616  0.00  0.00    +0.000 A 
ATOM     32  C   UNL     1       1.269   3.887  18.106  0.00  0.00    +0.000 A 
ATOM     33  C   UNL     1       1.364   2.544  18.453  0.00  0.00    +0.000 A 
ATOM     34  F   UNL     1       0.287   1.909  18.932  0.00  0.00    +0.000 F 
ATOM     35  C   UNL     1       2.562   1.852  18.314  0.00  0.00    +0.000 A 
ATOM     36  C   UNL     1       3.688   2.514  17.822  0.00  0.00    +0.000 A 
ENDBRANCH  27  30
ENDBRANCH   2  23
TORSDOF 5
ENDMDL
MODEL 8
REMARK VINA RESULT:      -9.1      2.116      3.115
REMARK  Name = 
REMARK  5 active torsions:
REMARK  status: ('A' for Active; 'I' for Inactive)
REMARK    1  A    between atoms: C_2  and  C_21
REMARK    2  A    between atoms: N_3  and  C_4
REMARK    3  A    between atoms: C_7  and  O_8
REMARK    4  A    between atoms: O_8  and  C_9
REMARK    5  A    between atoms: C_25  and  C_26
REMARK                            x       y       z     vdW  Elec       q    Type
REMARK                         _______ _______ _______ _____ _____    ______ ____
ROOT
ATOM      1  O   UNL     1       1.814   9.525  22.590  0.00  0.00    +0.000 OA
ATOM      2  C   UNL     1       0.902   9.778  21.806  0.00  0.00    +0.000 C 
ATOM      3  N   UNL     1       0.706   9.188  20.578  0.00  0.00    +0.000 N 
ATOM      4  H   UNL     1      -0.049   9.571  20.003  0.00  0.00    +0.000 HD
ENDROOT
BRANCH   3   5
ATOM      5  C   UNL     1       1.498   8.201  19.963  0.00  0.00    +0.000 A 
ATOM      6  C   UNL     1       2.115   8.359  18.719  0.00  0.00    +0.000 A 
ATOM      7  C   UNL     1       2.819   7.296  18.135  0.00  0.00    +0.000 A 
ATOM      8  C   UNL     1       2.916   6.069  18.791  0.00  0.00    +0.000 A 
ATOM      9  C   UNL     1       2.381   5.951  20.075  0.00  0.00    +0.000 A 
ATOM     10  F   UNL     1       2.515   4.822  20.785  0.00  0.00    +0.000 F 
ATOM     11  C   UNL     1       1.660   6.996  20.649  0.00  0.00    +0.000 A 
BRANCH   8  12
ATOM     12  O   UNL     1       3.594   5.083  18.113  0.00  0.00    +0.000 OA
BRANCH  12  13
ATOM     13  C   UNL     1       4.971   5.101  18.058  0.00  0.00    +0.000 A 
ATOM     14  C   UNL     1       5.804   5.290  19.167  0.00  0.00    +0.000 A 
ATOM     15  C   UNL     1       7.177   5.359  18.979  0.00  0.00    +0.000 A 
ATOM     16  N   UNL     1       7.824   5.189  17.806  0.00  0.00    +0.000 NA
ATOM     17  C   UNL     1       6.988   4.917  16.789  0.00  0.00    +0.000 A 
ATOM     18  N   UNL     1       7.394   4.658  15.509  0.00  0.00    +0.000 N 
ATOM     19  C   UNL     1       6.306   4.390  14.719  0.00  0.00    +0.000 A 
ATOM     20  C   UNL     1       5.178   4.511  15.506  0.00  0.00    +0.000 A 
ATOM     21  C   UNL     1       5.600   4.847  16.825  0.00  0.00    +0.000 A 
ATOM     22  H   UNL     1       8.363   4.656  15.224  0.00  0.00    +0.000 HD
ENDBRANCH  12  13
ENDBRANCH   8  12
ENDBRANCH   3   5
BRANCH   2  23
ATOM     23  C   UNL     1      -0.098  10.831  22.145  0.00  0.00    +0.000 A 
ATOM     24  C   UNL     1      -1.060  10.532  23.034  0.00  0.00    +0.000 A 
ATOM     25  O   UNL     1      -2.036  11.395  23.464  0.00  0.00    +0.000 OA
ATOM     26  C   UNL     1      -1.982  12.694  23.015  0.00  0.00    +0.000 A 
ATOM     27  C   UNL     1      -1.092  13.161  22.130  0.00  0.00    +0.000 A 
ATOM     28  C   UNL     1      -0.099  12.200  21.578  0.00  0.00    +0.000 A 
ATOM     29  O   UNL     1       0.694  12.520  20.693  0.00  0.00    +0.000 OA
BRANCH  27  30
ATOM     30  C   UNL     1      -1.102  14.571  21.738  0.00  0.00    +0.000 A 
ATOM     31  C   UNL     1      -0.264  15.488  22.396  0.00  0.00    +0.000 A 
ATOM     32  C   UNL     1      -0.287  16.837  22.039  0.00  0.00    +0.000 A 
ATOM     33  C   UNL     1      -1.143  17.265  21.031  0.00  0.00    +0.000 A 
ATOM     34  F   UNL     1      -1.170  18.562  20.696  0.00  0.00    +0.000 F 
ATOM     35  C   UNL     1      -1.974  16.369  20.368  0.00  0.00    +0.000 A 
ATOM     36  C   UNL     1      -1.953  15.019  20.721  0.00  0.00    +0.000 A 
ENDBRANCH  27  30
ENDBRANCH   2  23
TORSDOF 5
ENDMDL
MODEL 9
REMARK VINA RESULT:      -9.1      1.779      2.176
REMARK  Name = 
REMARK  5 active torsions:
REMARK  status: ('A' for Active; 'I' for Inactive)
REMARK    1  A    between atoms: C_2  and  C_21
REMARK    2  A    between atoms: N_3  and  C_4
REMARK    3  A    between atoms: C_7  and  O_8
REMARK    4  A    between atoms: O_8  and  C_9
REMARK    5  A    between atoms: C_25  and  C_26
REMARK                            x       y       z     vdW  Elec       q    Type
REMARK                         _______ _______ _______ _____ _____    ______ ____
ROOT
ATOM      1  O   UNL     1      -0.425   8.784  21.351  0.00  0.00    +0.000 OA
ATOM      2  C   UNL     1      -0.115   9.672  20.558  0.00  0.00    +0.000 C 
ATOM      3  N   UNL     1       0.827   9.571  19.560  0.00  0.00    +0.000 N 
ATOM      4  H   UNL     1       1.034  10.428  19.041  0.00  0.00    +0.000 HD
ENDROOT
BRANCH   3   5
ATOM      5  C   UNL     1       1.632   8.460  19.248  0.00  0.00    +0.000 A 
ATOM      6  C   UNL     1       2.333   8.318  18.048  0.00  0.00    +0.000 A 
ATOM      7  C   UNL     1       3.045   7.140  17.776  0.00  0.00    +0.000 A 
ATOM      8  C   UNL     1       3.065   6.099  18.703  0.00  0.00    +0.000 A 
ATOM      9  C   UNL     1       2.444   6.289  19.938  0.00  0.00    +0.000 A 
ATOM     10  F   UNL     1       2.502   5.354  20.898  0.00  0.00    +0.000 F 
ATOM     11  C   UNL     1       1.716   7.447  20.204  0.00  0.00    +0.000 A 
BRANCH   8  12
ATOM     12  O   UNL     1       3.760   4.975  18.321  0.00  0.00    +0.000 OA
BRANCH  12  13
ATOM     13  C   UNL     1       5.130   5.022  18.178  0.00  0.00    +0.000 A 
ATOM     14  C   UNL     1       6.026   5.273  19.223  0.00  0.00    +0.000 A 
ATOM     15  C   UNL     1       7.383   5.366  18.947  0.00  0.00    +0.000 A 
ATOM     16  N   UNL     1       7.959   5.166  17.742  0.00  0.00    +0.000 NA
ATOM     17  C   UNL     1       7.068   4.836  16.791  0.00  0.00    +0.000 A 
ATOM     18  N   UNL     1       7.399   4.537  15.498  0.00  0.00    +0.000 N 
ATOM     19  C   UNL     1       6.271   4.215  14.789  0.00  0.00    +0.000 A 
ATOM     20  C   UNL     1       5.192   4.340  15.641  0.00  0.00    +0.000 A 
ATOM     21  C   UNL     1       5.687   4.735  16.917  0.00  0.00    +0.000 A 
ATOM     22  H   UNL     1       8.348   4.547  15.152  0.00  0.00    +0.000 HD
ENDBRANCH  12  13
ENDBRANCH   8  12
ENDBRANCH   3   5
BRANCH   2  23
ATOM     23  C   UNL     1      -0.763  11.012  20.656  0.00  0.00    +0.000 A 
ATOM     24  C   UNL     1      -1.423  11.478  19.583  0.00  0.00    +0.000 A 
ATOM     25  O   UNL     1      -2.086  12.679  19.523  0.00  0.00    +0.000 OA
ATOM     26  C   UNL     1      -2.151  13.430  20.672  0.00  0.00    +0.000 A 
ATOM     27  C   UNL     1      -1.553  13.114  21.828  0.00  0.00    +0.000 A 
ATOM     28  C   UNL     1      -0.742  11.866  21.866  0.00  0.00    +0.000 A 
ATOM     29  O   UNL     1      -0.083  11.548  22.855  0.00  0.00    +0.000 OA
BRANCH  27  30
ATOM     30  C   UNL     1      -1.709  13.969  23.006  0.00  0.00    +0.000 A 
ATOM     31  C   UNL     1      -0.752  14.960  23.286  0.00  0.00    +0.000 A 
ATOM     32  C   UNL     1      -0.887  15.762  24.419  0.00  0.00    +0.000 A 
ATOM     33  C   UNL     1      -1.973  15.574  25.267  0.00  0.00    +0.000 A 
ATOM     34  F   UNL     1      -2.097  16.339  26.359  0.00  0.00    +0.000 F 
ATOM     35  C   UNL     1      -2.930  14.601  25.001  0.00  0.00    +0.000 A 
ATOM     36  C   UNL     1      -2.799  13.798  23.867  0.00  0.00    +0.000 A 
ENDBRANCH  27  30
ENDBRANCH   2  23
TORSDOF 5
ENDMDL
