MODEL 1
REMARK VINA RESULT:      -7.8      0.000      0.000
REMARK  Name = 
REMARK  2 active torsions:
REMARK  status: ('A' for Active; 'I' for Inactive)
REMARK    1  A    between atoms: C_1  and  N_2
REMARK    2  A    between atoms: C_5  and  C_6
REMARK                            x       y       z     vdW  Elec       q    Type
REMARK                         _______ _______ _______ _____ _____    ______ ____
ROOT
ATOM      1  C   UNL     1       4.777   6.215  17.786  0.00  0.00    +0.000 C 
ATOM      2  O   UNL     1       5.302   7.308  18.059  0.00  0.00    +0.000 OA
ATOM      3  N   UNL     1       3.667   5.761  18.530  0.00  0.00    +0.000 N 
ATOM      4  C   UNL     1       2.771   6.788  19.019  0.00  0.00    +0.000 A 
ATOM      5  C   UNL     1       2.526   7.922  18.209  0.00  0.00    +0.000 A 
ATOM      6  C   UNL     1       1.693   8.967  18.624  0.00  0.00    +0.000 A 
ATOM      7  C   UNL     1       1.110   8.927  19.879  0.00  0.00    +0.000 A 
ATOM      8  C   UNL     1       1.359   7.841  20.708  0.00  0.00    +0.000 A 
ATOM      9  C   UNL     1       2.151   6.764  20.269  0.00  0.00    +0.000 A 
ATOM     10  N   UNL     1       2.266   5.705  21.165  0.00  0.00    +0.000 N 
ATOM     11  C   UNL     1       1.978   4.421  20.810  0.00  0.00    +0.000 C 
ATOM     12  O   UNL     1       1.458   3.702  21.664  0.00  0.00    +0.000 OA
ATOM     13  C   UNL     1       2.261   3.886  19.467  0.00  0.00    +0.000 A 
ATOM     14  C   UNL     1       1.700   2.612  19.222  0.00  0.00    +0.000 A 
ATOM     15  C   UNL     1       2.104   1.846  18.145  0.00  0.00    +0.000 A 
ATOM     16  C   UNL     1       3.085   2.370  17.348  0.00  0.00    +0.000 A 
ATOM     17  N   UNL     1       3.596   3.609  17.534  0.00  0.00    +0.000 NA
ATOM     18  C   UNL     1       3.173   4.411  18.542  0.00  0.00    +0.000 A 
ATOM     19  H   UNL     1       1.940   5.873  22.112  0.00  0.00    +0.000 HD
ENDROOT
BRANCH   1  24
ATOM     20  C   UNL     1       7.624   4.522  13.065  0.00  0.00    +0.000 C 
ATOM     21  N   UNL     1       7.057   5.223  14.216  0.00  0.00    +0.000 NA
ATOM     22  C   UNL     1       5.596   5.292  14.107  0.00  0.00    +0.000 C 
ATOM     23  C   UNL     1       5.000   6.074  15.277  0.00  0.00    +0.000 C 
ATOM     24  C   UNL     1       5.378   5.418  16.618  0.00  0.00    +0.000 C 
ATOM     25  C   UNL     1       6.905   5.317  16.697  0.00  0.00    +0.000 C 
ATOM     26  C   UNL     1       7.473   4.586  15.474  0.00  0.00    +0.000 C 
ENDBRANCH   1  24
TORSDOF 1
ENDMDL
MODEL 2
REMARK VINA RESULT:      -7.6      2.128      5.790
REMARK  Name = 
REMARK  2 active torsions:
REMARK  status: ('A' for Active; 'I' for Inactive)
REMARK    1  A    between atoms: C_1  and  N_2
REMARK    2  A    between atoms: C_5  and  C_6
REMARK                            x       y       z     vdW  Elec       q    Type
REMARK                         _______ _______ _______ _____ _____    ______ ____
ROOT
ATOM      1  C   UNL     1       3.067   7.023  17.887  0.00  0.00    +0.000 C 
ATOM      2  O   UNL     1       3.668   7.692  17.029  0.00  0.00    +0.000 OA
ATOM      3  N   UNL     1       3.475   5.701  18.163  0.00  0.00    +0.000 N 
ATOM      4  C   UNL     1       4.893   5.438  18.034  0.00  0.00    +0.000 A 
ATOM      5  C   UNL     1       5.812   6.440  18.423  0.00  0.00    +0.000 A 
ATOM      6  C   UNL     1       7.196   6.270  18.305  0.00  0.00    +0.000 A 
ATOM      7  C   UNL     1       7.702   5.103  17.758  0.00  0.00    +0.000 A 
ATOM      8  C   UNL     1       6.822   4.113  17.338  0.00  0.00    +0.000 A 
ATOM      9  C   UNL     1       5.433   4.262  17.508  0.00  0.00    +0.000 A 
ATOM     10  N   UNL     1       4.663   3.172  17.113  0.00  0.00    +0.000 N 
ATOM     11  C   UNL     1       3.760   2.583  17.946  0.00  0.00    +0.000 C 
ATOM     12  O   UNL     1       3.627   1.361  17.864  0.00  0.00    +0.000 OA
ATOM     13  C   UNL     1       2.960   3.348  18.918  0.00  0.00    +0.000 A 
ATOM     14  C   UNL     1       2.242   2.547  19.835  0.00  0.00    +0.000 A 
ATOM     15  C   UNL     1       1.228   3.078  20.611  0.00  0.00    +0.000 A 
ATOM     16  C   UNL     1       0.944   4.404  20.431  0.00  0.00    +0.000 A 
ATOM     17  N   UNL     1       1.655   5.200  19.599  0.00  0.00    +0.000 NA
ATOM     18  C   UNL     1       2.697   4.723  18.874  0.00  0.00    +0.000 A 
ATOM     19  H   UNL     1       5.136   2.456  16.570  0.00  0.00    +0.000 HD
ENDROOT
BRANCH   1  24
ATOM     20  C   UNL     1      -0.288  10.572  20.956  0.00  0.00    +0.000 C 
ATOM     21  N   UNL     1       0.778   9.901  20.211  0.00  0.00    +0.000 NA
ATOM     22  C   UNL     1       1.110   8.616  20.836  0.00  0.00    +0.000 C 
ATOM     23  C   UNL     1       2.264   7.937  20.098  0.00  0.00    +0.000 C 
ATOM     24  C   UNL     1       1.900   7.703  18.619  0.00  0.00    +0.000 C 
ATOM     25  C   UNL     1       1.515   9.048  17.994  0.00  0.00    +0.000 C 
ATOM     26  C   UNL     1       0.403   9.732  18.800  0.00  0.00    +0.000 C 
ENDBRANCH   1  24
TORSDOF 1
ENDMDL
MODEL 3
REMARK VINA RESULT:      -6.7      6.648     10.711
REMARK  Name = 
REMARK  2 active torsions:
REMARK  status: ('A' for Active; 'I' for Inactive)
REMARK    1  A    between atoms: C_1  and  N_2
REMARK    2  A    between atoms: C_5  and  C_6
REMARK                            x       y       z     vdW  Elec       q    Type
REMARK                         _______ _______ _______ _____ _____    ______ ____
ROOT
ATOM      1  C   UNL     1      -1.955  12.938  21.140  0.00  0.00    +0.000 C 
ATOM      2  O   UNL     1      -1.336  13.444  22.092  0.00  0.00    +0.000 OA
ATOM      3  N   UNL     1      -1.421  11.818  20.468  0.00  0.00    +0.000 N 
ATOM      4  C   UNL     1      -0.652  10.900  21.282  0.00  0.00    +0.000 A 
ATOM      5  C   UNL     1      -1.063  10.658  22.614  0.00  0.00    +0.000 A 
ATOM      6  C   UNL     1      -0.358   9.804  23.469  0.00  0.00    +0.000 A 
ATOM      7  C   UNL     1       0.806   9.196  23.029  0.00  0.00    +0.000 A 
ATOM      8  C   UNL     1       1.252   9.441  21.736  0.00  0.00    +0.000 A 
ATOM      9  C   UNL     1       0.511  10.255  20.858  0.00  0.00    +0.000 A 
ATOM     10  N   UNL     1       1.026  10.364  19.569  0.00  0.00    +0.000 N 
ATOM     11  C   UNL     1       0.274  10.098  18.465  0.00  0.00    +0.000 C 
ATOM     12  O   UNL     1       0.842   9.568  17.508  0.00  0.00    +0.000 OA
ATOM     13  C   UNL     1      -1.163  10.415  18.386  0.00  0.00    +0.000 A 
ATOM     14  C   UNL     1      -1.814   9.873  17.254  0.00  0.00    +0.000 A 
ATOM     15  C   UNL     1      -3.069  10.309  16.872  0.00  0.00    +0.000 A 
ATOM     16  C   UNL     1      -3.634  11.300  17.628  0.00  0.00    +0.000 A 
ATOM     17  N   UNL     1      -3.051  11.793  18.746  0.00  0.00    +0.000 NA
ATOM     18  C   UNL     1      -1.851  11.339  19.182  0.00  0.00    +0.000 A 
ATOM     19  H   UNL     1       1.969  10.016  19.426  0.00  0.00    +0.000 HD
ENDROOT
BRANCH   1  24
ATOM     20  C   UNL     1      -7.064  15.615  21.146  0.00  0.00    +0.000 C 
ATOM     21  N   UNL     1      -5.757  15.030  21.446  0.00  0.00    +0.000 NA
ATOM     22  C   UNL     1      -5.782  13.580  21.230  0.00  0.00    +0.000 C 
ATOM     23  C   UNL     1      -4.437  12.954  21.598  0.00  0.00    +0.000 C 
ATOM     24  C   UNL     1      -3.302  13.572  20.760  0.00  0.00    +0.000 C 
ATOM     25  C   UNL     1      -3.318  15.091  20.965  0.00  0.00    +0.000 C 
ATOM     26  C   UNL     1      -4.701  15.674  20.652  0.00  0.00    +0.000 C 
ENDBRANCH   1  24
TORSDOF 1
ENDMDL
MODEL 4
REMARK VINA RESULT:      -6.6      7.318     11.705
REMARK  Name = 
REMARK  2 active torsions:
REMARK  status: ('A' for Active; 'I' for Inactive)
REMARK    1  A    between atoms: C_1  and  N_2
REMARK    2  A    between atoms: C_5  and  C_6
REMARK                            x       y       z     vdW  Elec       q    Type
REMARK                         _______ _______ _______ _____ _____    ______ ____
ROOT
ATOM      1  C   UNL     1      -2.172  13.431  20.719  0.00  0.00    +0.000 C 
ATOM      2  O   UNL     1      -1.026  13.812  21.018  0.00  0.00    +0.000 OA
ATOM      3  N   UNL     1      -2.350  12.448  19.724  0.00  0.00    +0.000 N 
ATOM      4  C   UNL     1      -1.307  11.448  19.628  0.00  0.00    +0.000 A 
ATOM      5  C   UNL     1      -0.687  10.992  20.815  0.00  0.00    +0.000 A 
ATOM      6  C   UNL     1       0.345  10.047  20.801  0.00  0.00    +0.000 A 
ATOM      7  C   UNL     1       0.816   9.559  19.594  0.00  0.00    +0.000 A 
ATOM      8  C   UNL     1       0.248  10.013  18.411  0.00  0.00    +0.000 A 
ATOM      9  C   UNL     1      -0.828  10.920  18.427  0.00  0.00    +0.000 A 
ATOM     10  N   UNL     1      -1.355  11.243  17.180  0.00  0.00    +0.000 N 
ATOM     11  C   UNL     1      -2.683  11.118  16.901  0.00  0.00    +0.000 C 
ATOM     12  O   UNL     1      -2.990  10.761  15.762  0.00  0.00    +0.000 OA
ATOM     13  C   UNL     1      -3.733  11.386  17.899  0.00  0.00    +0.000 A 
ATOM     14  C   UNL     1      -5.030  10.997  17.492  0.00  0.00    +0.000 A 
ATOM     15  C   UNL     1      -6.155  11.436  18.166  0.00  0.00    +0.000 A 
ATOM     16  C   UNL     1      -5.950  12.278  19.225  0.00  0.00    +0.000 A 
ATOM     17  N   UNL     1      -4.715  12.619  19.662  0.00  0.00    +0.000 NA
ATOM     18  C   UNL     1      -3.593  12.152  19.063  0.00  0.00    +0.000 A 
ATOM     19  H   UNL     1      -0.813  10.958  16.371  0.00  0.00    +0.000 HD
ENDROOT
BRANCH   1  24
ATOM     20  C   UNL     1      -5.494  16.402  24.380  0.00  0.00    +0.000 C 
ATOM     21  N   UNL     1      -4.415  15.805  23.593  0.00  0.00    +0.000 NA
ATOM     22  C   UNL     1      -4.406  14.347  23.757  0.00  0.00    +0.000 C 
ATOM     23  C   UNL     1      -3.246  13.722  22.984  0.00  0.00    +0.000 C 
ATOM     24  C   UNL     1      -3.344  14.062  21.485  0.00  0.00    +0.000 C 
ATOM     25  C   UNL     1      -3.395  15.587  21.335  0.00  0.00    +0.000 C 
ATOM     26  C   UNL     1      -4.528  16.186  22.178  0.00  0.00    +0.000 C 
ENDBRANCH   1  24
TORSDOF 1
ENDMDL
MODEL 5
REMARK VINA RESULT:      -6.6      8.533     12.200
REMARK  Name = 
REMARK  2 active torsions:
REMARK  status: ('A' for Active; 'I' for Inactive)
REMARK    1  A    between atoms: C_1  and  N_2
REMARK    2  A    between atoms: C_5  and  C_6
REMARK                            x       y       z     vdW  Elec       q    Type
REMARK                         _______ _______ _______ _____ _____    ______ ____
ROOT
ATOM      1  C   UNL     1      -2.372  13.793  20.623  0.00  0.00    +0.000 C 
ATOM      2  O   UNL     1      -1.345  14.118  20.000  0.00  0.00    +0.000 OA
ATOM      3  N   UNL     1      -3.314  12.928  20.027  0.00  0.00    +0.000 N 
ATOM      4  C   UNL     1      -2.774  11.926  19.132  0.00  0.00    +0.000 A 
ATOM      5  C   UNL     1      -1.530  11.331  19.444  0.00  0.00    +0.000 A 
ATOM      6  C   UNL     1      -0.933  10.374  18.615  0.00  0.00    +0.000 A 
ATOM      7  C   UNL     1      -1.546  10.012  17.428  0.00  0.00    +0.000 A 
ATOM      8  C   UNL     1      -2.754  10.604  17.080  0.00  0.00    +0.000 A 
ATOM      9  C   UNL     1      -3.381  11.524  17.941  0.00  0.00    +0.000 A 
ATOM     10  N   UNL     1      -4.621  11.991  17.513  0.00  0.00    +0.000 N 
ATOM     11  C   UNL     1      -5.732  11.922  18.299  0.00  0.00    +0.000 C 
ATOM     12  O   UNL     1      -6.807  11.699  17.740  0.00  0.00    +0.000 OA
ATOM     13  C   UNL     1      -5.683  12.100  19.760  0.00  0.00    +0.000 A 
ATOM     14  C   UNL     1      -6.891  11.782  20.422  0.00  0.00    +0.000 A 
ATOM     15  C   UNL     1      -7.113  12.165  21.732  0.00  0.00    +0.000 A 
ATOM     16  C   UNL     1      -6.120  12.882  22.341  0.00  0.00    +0.000 A 
ATOM     17  N   UNL     1      -4.936  13.150  21.744  0.00  0.00    +0.000 NA
ATOM     18  C   UNL     1      -4.663  12.731  20.484  0.00  0.00    +0.000 A 
ATOM     19  H   UNL     1      -4.875  11.787  16.552  0.00  0.00    +0.000 HD
ENDROOT
BRANCH   1  24
ATOM     20  C   UNL     1      -1.732  16.567  25.639  0.00  0.00    +0.000 C 
ATOM     21  N   UNL     1      -1.640  16.031  24.281  0.00  0.00    +0.000 NA
ATOM     22  C   UNL     1      -1.466  14.575  24.315  0.00  0.00    +0.000 C 
ATOM     23  C   UNL     1      -1.310  14.015  22.901  0.00  0.00    +0.000 C 
ATOM     24  C   UNL     1      -2.541  14.359  22.041  0.00  0.00    +0.000 C 
ATOM     25  C   UNL     1      -2.732  15.879  22.052  0.00  0.00    +0.000 C 
ATOM     26  C   UNL     1      -2.815  16.414  23.487  0.00  0.00    +0.000 C 
ENDBRANCH   1  24
TORSDOF 1
ENDMDL
MODEL 6
REMARK VINA RESULT:      -6.5      8.438     10.370
REMARK  Name = 
REMARK  2 active torsions:
REMARK  status: ('A' for Active; 'I' for Inactive)
REMARK    1  A    between atoms: C_1  and  N_2
REMARK    2  A    between atoms: C_5  and  C_6
REMARK                            x       y       z     vdW  Elec       q    Type
REMARK                         _______ _______ _______ _____ _____    ______ ____
ROOT
ATOM      1  C   UNL     1      -0.470  13.519  19.157  0.00  0.00    +0.000 C 
ATOM      2  O   UNL     1      -0.243  13.600  17.937  0.00  0.00    +0.000 OA
ATOM      3  N   UNL     1      -1.674  12.944  19.613  0.00  0.00    +0.000 N 
ATOM      4  C   UNL     1      -2.212  11.874  18.798  0.00  0.00    +0.000 A 
ATOM      5  C   UNL     1      -1.317  10.973  18.175  0.00  0.00    +0.000 A 
ATOM      6  C   UNL     1      -1.759   9.931  17.353  0.00  0.00    +0.000 A 
ATOM      7  C   UNL     1      -3.112   9.782  17.097  0.00  0.00    +0.000 A 
ATOM      8  C   UNL     1      -4.012  10.672  17.669  0.00  0.00    +0.000 A 
ATOM      9  C   UNL     1      -3.571  11.685  18.541  0.00  0.00    +0.000 A 
ATOM     10  N   UNL     1      -4.577  12.466  19.105  0.00  0.00    +0.000 N 
ATOM     11  C   UNL     1      -4.684  12.647  20.452  0.00  0.00    +0.000 C 
ATOM     12  O   UNL     1      -5.819  12.723  20.923  0.00  0.00    +0.000 OA
ATOM     13  C   UNL     1      -3.509  12.747  21.335  0.00  0.00    +0.000 A 
ATOM     14  C   UNL     1      -3.819  12.717  22.714  0.00  0.00    +0.000 A 
ATOM     15  C   UNL     1      -2.888  13.091  23.666  0.00  0.00    +0.000 A 
ATOM     16  C   UNL     1      -1.670  13.511  23.206  0.00  0.00    +0.000 A 
ATOM     17  N   UNL     1      -1.337  13.497  21.894  0.00  0.00    +0.000 NA
ATOM     18  C   UNL     1      -2.205  13.073  20.943  0.00  0.00    +0.000 A 
ATOM     19  H   UNL     1      -5.504  12.370  18.704  0.00  0.00    +0.000 HD
ENDROOT
BRANCH   1  24
ATOM     20  C   UNL     1       4.351  15.656  21.493  0.00  0.00    +0.000 C 
ATOM     21  N   UNL     1       3.274  15.177  20.626  0.00  0.00    +0.000 NA
ATOM     22  C   UNL     1       2.993  13.762  20.892  0.00  0.00    +0.000 C 
ATOM     23  C   UNL     1       1.909  13.239  19.950  0.00  0.00    +0.000 C 
ATOM     24  C   UNL     1       0.611  14.052  20.110  0.00  0.00    +0.000 C 
ATOM     25  C   UNL     1       0.931  15.532  19.871  0.00  0.00    +0.000 C 
ATOM     26  C   UNL     1       2.069  16.003  20.785  0.00  0.00    +0.000 C 
ENDBRANCH   1  24
TORSDOF 1
ENDMDL
MODEL 7
REMARK VINA RESULT:      -6.5      5.526      8.208
REMARK  Name = 
REMARK  2 active torsions:
REMARK  status: ('A' for Active; 'I' for Inactive)
REMARK    1  A    between atoms: C_1  and  N_2
REMARK    2  A    between atoms: C_5  and  C_6
REMARK                            x       y       z     vdW  Elec       q    Type
REMARK                         _______ _______ _______ _____ _____    ______ ____
ROOT
ATOM      1  C   UNL     1       0.394  11.032  20.339  0.00  0.00    +0.000 C 
ATOM      2  O   UNL     1       1.171  11.430  21.225  0.00  0.00    +0.000 OA
ATOM      3  N   UNL     1      -0.730  11.809  19.988  0.00  0.00    +0.000 N 
ATOM      4  C   UNL     1      -0.562  13.244  20.083  0.00  0.00    +0.000 A 
ATOM      5  C   UNL     1       0.687  13.810  19.737  0.00  0.00    +0.000 A 
ATOM      6  C   UNL     1       0.934  15.184  19.827  0.00  0.00    +0.000 A 
ATOM      7  C   UNL     1      -0.052  16.031  20.303  0.00  0.00    +0.000 A 
ATOM      8  C   UNL     1      -1.279  15.499  20.681  0.00  0.00    +0.000 A 
ATOM      9  C   UNL     1      -1.545  14.125  20.538  0.00  0.00    +0.000 A 
ATOM     10  N   UNL     1      -2.834  13.728  20.883  0.00  0.00    +0.000 N 
ATOM     11  C   UNL     1      -3.626  13.017  20.032  0.00  0.00    +0.000 C 
ATOM     12  O   UNL     1      -4.834  13.259  20.050  0.00  0.00    +0.000 OA
ATOM     13  C   UNL     1      -3.090  11.998  19.113  0.00  0.00    +0.000 A 
ATOM     14  C   UNL     1      -4.026  11.526  18.164  0.00  0.00    +0.000 A 
ATOM     15  C   UNL     1      -3.787  10.378  17.431  0.00  0.00    +0.000 A 
ATOM     16  C   UNL     1      -2.617   9.716  17.686  0.00  0.00    +0.000 A 
ATOM     17  N   UNL     1      -1.685  10.181  18.551  0.00  0.00    +0.000 NA
ATOM     18  C   UNL     1      -1.862  11.338  19.235  0.00  0.00    +0.000 A 
ATOM     19  H   UNL     1      -3.400  14.408  21.381  0.00  0.00    +0.000 HD
ENDROOT
BRANCH   1  24
ATOM     20  C   UNL     1       3.023   6.449  18.026  0.00  0.00    +0.000 C 
ATOM     21  N   UNL     1       2.649   7.693  18.700  0.00  0.00    +0.000 NA
ATOM     22  C   UNL     1       1.984   8.605  17.763  0.00  0.00    +0.000 C 
ATOM     23  C   UNL     1       1.643   9.929  18.445  0.00  0.00    +0.000 C 
ATOM     24  C   UNL     1       0.727   9.695  19.661  0.00  0.00    +0.000 C 
ATOM     25  C   UNL     1       1.419   8.709  20.608  0.00  0.00    +0.000 C 
ATOM     26  C   UNL     1       1.807   7.420  19.873  0.00  0.00    +0.000 C 
ENDBRANCH   1  24
TORSDOF 1
ENDMDL
MODEL 8
REMARK VINA RESULT:      -6.4      6.756     11.288
REMARK  Name = 
REMARK  2 active torsions:
REMARK  status: ('A' for Active; 'I' for Inactive)
REMARK    1  A    between atoms: C_1  and  N_2
REMARK    2  A    between atoms: C_5  and  C_6
REMARK                            x       y       z     vdW  Elec       q    Type
REMARK                         _______ _______ _______ _____ _____    ______ ____
ROOT
ATOM      1  C   UNL     1      -1.257  13.136  21.609  0.00  0.00    +0.000 C 
ATOM      2  O   UNL     1      -0.116  13.311  22.071  0.00  0.00    +0.000 OA
ATOM      3  N   UNL     1      -1.473  12.162  20.612  0.00  0.00    +0.000 N 
ATOM      4  C   UNL     1      -0.634  10.983  20.689  0.00  0.00    +0.000 A 
ATOM      5  C   UNL     1      -0.290  10.471  21.961  0.00  0.00    +0.000 A 
ATOM      6  C   UNL     1       0.535   9.352  22.116  0.00  0.00    +0.000 A 
ATOM      7  C   UNL     1       1.074   8.734  21.001  0.00  0.00    +0.000 A 
ATOM      8  C   UNL     1       0.780   9.235  19.739  0.00  0.00    +0.000 A 
ATOM      9  C   UNL     1      -0.095  10.325  19.581  0.00  0.00    +0.000 A 
ATOM     10  N   UNL     1      -0.366  10.687  18.264  0.00  0.00    +0.000 N 
ATOM     11  C   UNL     1      -1.640  10.798  17.791  0.00  0.00    +0.000 C 
ATOM     12  O   UNL     1      -1.841  10.456  16.624  0.00  0.00    +0.000 OA
ATOM     13  C   UNL     1      -2.753  11.298  18.616  0.00  0.00    +0.000 A 
ATOM     14  C   UNL     1      -4.027  11.138  18.025  0.00  0.00    +0.000 A 
ATOM     15  C   UNL     1      -5.134  11.806  18.517  0.00  0.00    +0.000 A 
ATOM     16  C   UNL     1      -4.928  12.639  19.582  0.00  0.00    +0.000 A 
ATOM     17  N   UNL     1      -3.728  12.765  20.195  0.00  0.00    +0.000 NA
ATOM     18  C   UNL     1      -2.640  12.073  19.777  0.00  0.00    +0.000 A 
ATOM     19  H   UNL     1       0.223  10.273  17.550  0.00  0.00    +0.000 HD
ENDROOT
BRANCH   1  24
ATOM     20  C   UNL     1      -4.551  16.579  24.859  0.00  0.00    +0.000 C 
ATOM     21  N   UNL     1      -3.494  15.772  24.251  0.00  0.00    +0.000 NA
ATOM     22  C   UNL     1      -3.906  14.366  24.165  0.00  0.00    +0.000 C 
ATOM     23  C   UNL     1      -2.783  13.507  23.584  0.00  0.00    +0.000 C 
ATOM     24  C   UNL     1      -2.387  14.005  22.181  0.00  0.00    +0.000 C 
ATOM     25  C   UNL     1      -2.001  15.485  22.283  0.00  0.00    +0.000 C 
ATOM     26  C   UNL     1      -3.123  16.304  22.932  0.00  0.00    +0.000 C 
ENDBRANCH   1  24
TORSDOF 1
ENDMDL
MODEL 9
REMARK VINA RESULT:      -6.3      9.634     12.224
REMARK  Name = 
REMARK  2 active torsions:
REMARK  status: ('A' for Active; 'I' for Inactive)
REMARK    1  A    between atoms: C_1  and  N_2
REMARK    2  A    between atoms: C_5  and  C_6
REMARK                            x       y       z     vdW  Elec       q    Type
REMARK                         _______ _______ _______ _____ _____    ______ ____
ROOT
ATOM      1  C   UNL     1       7.767  15.863  18.364  0.00  0.00    +0.000 C 
ATOM      2  O   UNL     1       7.561  17.072  18.153  0.00  0.00    +0.000 OA
ATOM      3  N   UNL     1       9.050  15.319  18.148  0.00  0.00    +0.000 N 
ATOM      4  C   UNL     1      10.165  16.205  18.411  0.00  0.00    +0.000 A 
ATOM      5  C   UNL     1      10.074  17.115  19.491  0.00  0.00    +0.000 A 
ATOM      6  C   UNL     1      11.099  18.019  19.792  0.00  0.00    +0.000 A 
ATOM      7  C   UNL     1      12.231  18.067  18.996  0.00  0.00    +0.000 A 
ATOM      8  C   UNL     1      12.333  17.208  17.909  0.00  0.00    +0.000 A 
ATOM      9  C   UNL     1      11.328  16.260  17.641  0.00  0.00    +0.000 A 
ATOM     10  N   UNL     1      11.581  15.410  16.568  0.00  0.00    +0.000 N 
ATOM     11  C   UNL     1      11.524  14.054  16.689  0.00  0.00    +0.000 C 
ATOM     12  O   UNL     1      12.333  13.394  16.036  0.00  0.00    +0.000 OA
ATOM     13  C   UNL     1      10.549  13.375  17.560  0.00  0.00    +0.000 A 
ATOM     14  C   UNL     1      10.782  11.990  17.719  0.00  0.00    +0.000 A 
ATOM     15  C   UNL     1       9.815  11.157  18.250  0.00  0.00    +0.000 A 
ATOM     16  C   UNL     1       8.622  11.734  18.589  0.00  0.00    +0.000 A 
ATOM     17  N   UNL     1       8.398  13.065  18.495  0.00  0.00    +0.000 NA
ATOM     18  C   UNL     1       9.349  13.917  18.040  0.00  0.00    +0.000 A 
ATOM     19  H   UNL     1      12.357  15.661  15.963  0.00  0.00    +0.000 HD
ENDROOT
BRANCH   1  24
ATOM     20  C   UNL     1       2.649  14.024  20.284  0.00  0.00    +0.000 C 
ATOM     21  N   UNL     1       3.796  14.766  19.762  0.00  0.00    +0.000 NA
ATOM     22  C   UNL     1       4.897  14.757  20.731  0.00  0.00    +0.000 C 
ATOM     23  C   UNL     1       6.078  15.580  20.217  0.00  0.00    +0.000 C 
ATOM     24  C   UNL     1       6.582  15.027  18.871  0.00  0.00    +0.000 C 
ATOM     25  C   UNL     1       5.410  15.004  17.885  0.00  0.00    +0.000 C 
ATOM     26  C   UNL     1       4.219  14.228  18.462  0.00  0.00    +0.000 C 
ENDBRANCH   1  24
TORSDOF 1
ENDMDL
