MODEL 1
REMARK VINA RESULT:      -4.3      0.000      0.000
REMARK  Name = 
REMARK  5 active torsions:
REMARK  status: ('A' for Active; 'I' for Inactive)
REMARK    1  A    between atoms: C_1  and  C_2
REMARK    2  A    between atoms: C_2  and  O_3
REMARK    3  A    between atoms: O_3  and  C_4
REMARK    4  A    between atoms: C_4  and  C_6
REMARK    5  A    between atoms: C_6  and  N_7
REMARK                            x       y       z     vdW  Elec       q    Type
REMARK                         _______ _______ _______ _____ _____    ______ ____
ROOT
ATOM      1  C   UNL     1       4.146   3.610  18.053  0.00  0.00    +0.000 C 
ATOM      2  C   UNL     1       4.555   3.984  16.632  0.00  0.00    +0.000 C 
ATOM      3  C   UNL     1       3.795   4.980  17.499  0.00  0.00    +0.000 C 
ENDROOT
BRANCH   1   4
ATOM      4  N   UNL     1       5.338   3.483  18.884  0.00  0.00    +0.000 NA
ATOM      5  H   UNL     1       5.169   3.956  19.800  0.00  0.00    +0.000 HD
ATOM      6  H   UNL     1       6.123   3.977  18.401  0.00  0.00    +0.000 HD
ENDBRANCH   1   4
BRANCH   1   7
ATOM      7  C   UNL     1       3.183   2.453  18.033  0.00  0.00    +0.000 C 
ATOM      8  O   UNL     1       3.609   1.318  18.200  0.00  0.00    +0.000 OA
BRANCH   7   9
ATOM      9  O   UNL     1       1.858   2.676  17.823  0.00  0.00    +0.000 OA
BRANCH   9  11
ATOM     10  C   UNL     1       0.944   3.456  19.908  0.00  0.00    +0.000 C 
ATOM     11  C   UNL     1       0.860   2.456  18.755  0.00  0.00    +0.000 C 
ENDBRANCH   9  11
ENDBRANCH   7   9
ENDBRANCH   1   7
TORSDOF 4
ENDMDL
MODEL 2
REMARK VINA RESULT:      -4.3      3.471      4.308
REMARK  Name = 
REMARK  5 active torsions:
REMARK  status: ('A' for Active; 'I' for Inactive)
REMARK    1  A    between atoms: C_1  and  C_2
REMARK    2  A    between atoms: C_2  and  O_3
REMARK    3  A    between atoms: O_3  and  C_4
REMARK    4  A    between atoms: C_4  and  C_6
REMARK    5  A    between atoms: C_6  and  N_7
REMARK                            x       y       z     vdW  Elec       q    Type
REMARK                         _______ _______ _______ _____ _____    ______ ____
ROOT
ATOM      1  C   UNL     1       6.877   5.543  16.577  0.00  0.00    +0.000 C 
ATOM      2  C   UNL     1       6.974   4.834  15.231  0.00  0.00    +0.000 C 
ATOM      3  C   UNL     1       5.637   5.378  15.716  0.00  0.00    +0.000 C 
ENDROOT
BRANCH   1   4
ATOM      4  N   UNL     1       7.602   6.808  16.514  0.00  0.00    +0.000 NA
ATOM      5  H   UNL     1       7.172   7.412  15.777  0.00  0.00    +0.000 HD
ATOM      6  H   UNL     1       8.587   6.602  16.233  0.00  0.00    +0.000 HD
ENDBRANCH   1   4
BRANCH   1   7
ATOM      7  C   UNL     1       7.224   4.596  17.694  0.00  0.00    +0.000 C 
ATOM      8  O   UNL     1       8.346   4.110  17.739  0.00  0.00    +0.000 OA
BRANCH   7   9
ATOM      9  O   UNL     1       6.292   4.282  18.633  0.00  0.00    +0.000 OA
BRANCH   9  11
ATOM     10  C   UNL     1       4.064   4.900  19.301  0.00  0.00    +0.000 C 
ATOM     11  C   UNL     1       5.561   5.203  19.362  0.00  0.00    +0.000 C 
ENDBRANCH   9  11
ENDBRANCH   7   9
ENDBRANCH   1   7
TORSDOF 4
ENDMDL
MODEL 3
REMARK VINA RESULT:      -4.2      3.219      3.598
REMARK  Name = 
REMARK  5 active torsions:
REMARK  status: ('A' for Active; 'I' for Inactive)
REMARK    1  A    between atoms: C_1  and  C_2
REMARK    2  A    between atoms: C_2  and  O_3
REMARK    3  A    between atoms: O_3  and  C_4
REMARK    4  A    between atoms: C_4  and  C_6
REMARK    5  A    between atoms: C_6  and  N_7
REMARK                            x       y       z     vdW  Elec       q    Type
REMARK                         _______ _______ _______ _____ _____    ______ ____
ROOT
ATOM      1  C   UNL     1       6.971   5.502  19.074  0.00  0.00    +0.000 C 
ATOM      2  C   UNL     1       7.714   4.924  17.875  0.00  0.00    +0.000 C 
ATOM      3  C   UNL     1       7.409   6.415  17.942  0.00  0.00    +0.000 C 
ENDROOT
BRANCH   1   4
ATOM      4  N   UNL     1       7.816   5.412  20.260  0.00  0.00    +0.000 NA
ATOM      5  H   UNL     1       7.991   6.374  20.630  0.00  0.00    +0.000 HD
ATOM      6  H   UNL     1       8.734   5.002  19.972  0.00  0.00    +0.000 HD
ENDBRANCH   1   4
BRANCH   1   7
ATOM      7  C   UNL     1       5.584   4.921  19.161  0.00  0.00    +0.000 C 
ATOM      8  O   UNL     1       5.442   3.772  19.555  0.00  0.00    +0.000 OA
BRANCH   7   9
ATOM      9  O   UNL     1       4.510   5.670  18.794  0.00  0.00    +0.000 OA
BRANCH   9  11
ATOM     10  C   UNL     1       2.173   5.204  18.458  0.00  0.00    +0.000 C 
ATOM     11  C   UNL     1       3.276   5.645  19.420  0.00  0.00    +0.000 C 
ENDBRANCH   9  11
ENDBRANCH   7   9
ENDBRANCH   1   7
TORSDOF 4
ENDMDL
MODEL 4
REMARK VINA RESULT:      -4.2      3.340      4.923
REMARK  Name = 
REMARK  5 active torsions:
REMARK  status: ('A' for Active; 'I' for Inactive)
REMARK    1  A    between atoms: C_1  and  C_2
REMARK    2  A    between atoms: C_2  and  O_3
REMARK    3  A    between atoms: O_3  and  C_4
REMARK    4  A    between atoms: C_4  and  C_6
REMARK    5  A    between atoms: C_6  and  N_7
REMARK                            x       y       z     vdW  Elec       q    Type
REMARK                         _______ _______ _______ _____ _____    ______ ____
ROOT
ATOM      1  C   UNL     1       5.574   4.456  17.526  0.00  0.00    +0.000 C 
ATOM      2  C   UNL     1       5.161   5.924  17.540  0.00  0.00    +0.000 C 
ATOM      3  C   UNL     1       4.154   4.849  17.156  0.00  0.00    +0.000 C 
ENDROOT
BRANCH   1   4
ATOM      4  N   UNL     1       5.838   4.012  18.890  0.00  0.00    +0.000 NA
ATOM      5  H   UNL     1       6.097   3.000  18.877  0.00  0.00    +0.000 HD
ATOM      6  H   UNL     1       4.956   4.117  19.441  0.00  0.00    +0.000 HD
ENDBRANCH   1   4
BRANCH   1   7
ATOM      7  C   UNL     1       6.648   4.224  16.497  0.00  0.00    +0.000 C 
ATOM      8  O   UNL     1       7.814   4.453  16.788  0.00  0.00    +0.000 OA
BRANCH   7   9
ATOM      9  O   UNL     1       6.315   3.773  15.258  0.00  0.00    +0.000 OA
BRANCH   9  11
ATOM     10  C   UNL     1       6.121   3.632  12.863  0.00  0.00    +0.000 C 
ATOM     11  C   UNL     1       6.548   4.456  14.078  0.00  0.00    +0.000 C 
ENDBRANCH   9  11
ENDBRANCH   7   9
ENDBRANCH   1   7
TORSDOF 4
ENDMDL
MODEL 5
REMARK VINA RESULT:      -4.1      1.622      1.679
REMARK  Name = 
REMARK  5 active torsions:
REMARK  status: ('A' for Active; 'I' for Inactive)
REMARK    1  A    between atoms: C_1  and  C_2
REMARK    2  A    between atoms: C_2  and  O_3
REMARK    3  A    between atoms: O_3  and  C_4
REMARK    4  A    between atoms: C_4  and  C_6
REMARK    5  A    between atoms: C_6  and  N_7
REMARK                            x       y       z     vdW  Elec       q    Type
REMARK                         _______ _______ _______ _____ _____    ______ ____
ROOT
ATOM      1  C   UNL     1       4.975   4.097  18.379  0.00  0.00    +0.000 C 
ATOM      2  C   UNL     1       4.523   3.689  16.982  0.00  0.00    +0.000 C 
ATOM      3  C   UNL     1       4.258   5.099  17.491  0.00  0.00    +0.000 C 
ENDROOT
BRANCH   1   4
ATOM      4  N   UNL     1       6.432   4.132  18.428  0.00  0.00    +0.000 NA
ATOM      5  H   UNL     1       6.741   5.061  18.795  0.00  0.00    +0.000 HD
ATOM      6  H   UNL     1       6.791   4.032  17.452  0.00  0.00    +0.000 HD
ENDBRANCH   1   4
BRANCH   1   7
ATOM      7  C   UNL     1       4.262   3.277  19.421  0.00  0.00    +0.000 C 
ATOM      8  O   UNL     1       4.873   2.395  20.009  0.00  0.00    +0.000 OA
BRANCH   7   9
ATOM      9  O   UNL     1       2.951   3.515  19.692  0.00  0.00    +0.000 OA
BRANCH   9  11
ATOM     10  C   UNL     1       1.645   2.721  21.552  0.00  0.00    +0.000 C 
ATOM     11  C   UNL     1       2.035   2.554  20.083  0.00  0.00    +0.000 C 
ENDBRANCH   9  11
ENDBRANCH   7   9
ENDBRANCH   1   7
TORSDOF 4
ENDMDL
MODEL 6
REMARK VINA RESULT:      -4.1      3.393      4.641
REMARK  Name = 
REMARK  5 active torsions:
REMARK  status: ('A' for Active; 'I' for Inactive)
REMARK    1  A    between atoms: C_1  and  C_2
REMARK    2  A    between atoms: C_2  and  O_3
REMARK    3  A    between atoms: O_3  and  C_4
REMARK    4  A    between atoms: C_4  and  C_6
REMARK    5  A    between atoms: C_6  and  N_7
REMARK                            x       y       z     vdW  Elec       q    Type
REMARK                         _______ _______ _______ _____ _____    ______ ____
ROOT
ATOM      1  C   UNL     1       5.379   4.324  18.311  0.00  0.00    +0.000 C 
ATOM      2  C   UNL     1       4.788   5.534  19.026  0.00  0.00    +0.000 C 
ATOM      3  C   UNL     1       4.055   4.907  17.848  0.00  0.00    +0.000 C 
ENDROOT
BRANCH   1   4
ATOM      4  N   UNL     1       5.354   3.171  19.205  0.00  0.00    +0.000 NA
ATOM      5  H   UNL     1       4.899   2.368  18.716  0.00  0.00    +0.000 HD
ATOM      6  H   UNL     1       4.771   3.419  20.037  0.00  0.00    +0.000 HD
ENDBRANCH   1   4
BRANCH   1   7
ATOM      7  C   UNL     1       6.694   4.682  17.673  0.00  0.00    +0.000 C 
ATOM      8  O   UNL     1       7.734   4.440  18.270  0.00  0.00    +0.000 OA
BRANCH   7   9
ATOM      9  O   UNL     1       6.716   5.276  16.450  0.00  0.00    +0.000 OA
BRANCH   9  11
ATOM     10  C   UNL     1       5.670   4.355  14.488  0.00  0.00    +0.000 C 
ATOM     11  C   UNL     1       6.964   4.623  15.256  0.00  0.00    +0.000 C 
ENDBRANCH   9  11
ENDBRANCH   7   9
ENDBRANCH   1   7
TORSDOF 4
ENDMDL
MODEL 7
REMARK VINA RESULT:      -4.1      3.595      4.561
REMARK  Name = 
REMARK  5 active torsions:
REMARK  status: ('A' for Active; 'I' for Inactive)
REMARK    1  A    between atoms: C_1  and  C_2
REMARK    2  A    between atoms: C_2  and  O_3
REMARK    3  A    between atoms: O_3  and  C_4
REMARK    4  A    between atoms: C_4  and  C_6
REMARK    5  A    between atoms: C_6  and  N_7
REMARK                            x       y       z     vdW  Elec       q    Type
REMARK                         _______ _______ _______ _____ _____    ______ ____
ROOT
ATOM      1  C   UNL     1       7.231   4.991  18.202  0.00  0.00    +0.000 C 
ATOM      2  C   UNL     1       7.533   6.425  17.780  0.00  0.00    +0.000 C 
ATOM      3  C   UNL     1       7.741   5.991  19.225  0.00  0.00    +0.000 C 
ENDROOT
BRANCH   1   4
ATOM      4  N   UNL     1       8.191   4.088  17.577  0.00  0.00    +0.000 NA
ATOM      5  H   UNL     1       9.143   4.517  17.619  0.00  0.00    +0.000 HD
ATOM      6  H   UNL     1       7.926   3.980  16.571  0.00  0.00    +0.000 HD
ENDBRANCH   1   4
BRANCH   1   7
ATOM      7  C   UNL     1       5.767   4.689  18.020  0.00  0.00    +0.000 C 
ATOM      8  O   UNL     1       4.973   5.042  18.879  0.00  0.00    +0.000 OA
BRANCH   7   9
ATOM      9  O   UNL     1       5.345   4.020  16.913  0.00  0.00    +0.000 OA
BRANCH   9  11
ATOM     10  C   UNL     1       6.090   3.997  14.624  0.00  0.00    +0.000 C 
ATOM     11  C   UNL     1       5.147   4.593  15.669  0.00  0.00    +0.000 C 
ENDBRANCH   9  11
ENDBRANCH   7   9
ENDBRANCH   1   7
TORSDOF 4
ENDMDL
MODEL 8
REMARK VINA RESULT:      -4.1      2.579      3.112
REMARK  Name = 
REMARK  5 active torsions:
REMARK  status: ('A' for Active; 'I' for Inactive)
REMARK    1  A    between atoms: C_1  and  C_2
REMARK    2  A    between atoms: C_2  and  O_3
REMARK    3  A    between atoms: O_3  and  C_4
REMARK    4  A    between atoms: C_4  and  C_6
REMARK    5  A    between atoms: C_6  and  N_7
REMARK                            x       y       z     vdW  Elec       q    Type
REMARK                         _______ _______ _______ _____ _____    ______ ____
ROOT
ATOM      1  C   UNL     1       6.518   4.608  16.816  0.00  0.00    +0.000 C 
ATOM      2  C   UNL     1       5.986   3.766  15.661  0.00  0.00    +0.000 C 
ATOM      3  C   UNL     1       6.214   5.261  15.479  0.00  0.00    +0.000 C 
ENDROOT
BRANCH   1   4
ATOM      4  N   UNL     1       7.895   4.224  17.104  0.00  0.00    +0.000 NA
ATOM      5  H   UNL     1       7.937   3.780  18.049  0.00  0.00    +0.000 HD
ATOM      6  H   UNL     1       8.476   5.093  17.125  0.00  0.00    +0.000 HD
ENDBRANCH   1   4
BRANCH   1   7
ATOM      7  C   UNL     1       5.539   4.604  17.961  0.00  0.00    +0.000 C 
ATOM      8  O   UNL     1       5.834   4.023  18.996  0.00  0.00    +0.000 OA
BRANCH   7   9
ATOM      9  O   UNL     1       4.340   5.232  17.831  0.00  0.00    +0.000 OA
BRANCH   9  11
ATOM     10  C   UNL     1       2.640   3.595  17.360  0.00  0.00    +0.000 C 
ATOM     11  C   UNL     1       3.129   4.725  18.266  0.00  0.00    +0.000 C 
ENDBRANCH   9  11
ENDBRANCH   7   9
ENDBRANCH   1   7
TORSDOF 4
ENDMDL
MODEL 9
REMARK VINA RESULT:      -4.1      3.310      3.702
REMARK  Name = 
REMARK  5 active torsions:
REMARK  status: ('A' for Active; 'I' for Inactive)
REMARK    1  A    between atoms: C_1  and  C_2
REMARK    2  A    between atoms: C_2  and  O_3
REMARK    3  A    between atoms: O_3  and  C_4
REMARK    4  A    between atoms: C_4  and  C_6
REMARK    5  A    between atoms: C_6  and  N_7
REMARK                            x       y       z     vdW  Elec       q    Type
REMARK                         _______ _______ _______ _____ _____    ______ ____
ROOT
ATOM      1  C   UNL     1       7.176   5.080  18.131  0.00  0.00    +0.000 C 
ATOM      2  C   UNL     1       7.375   6.528  17.697  0.00  0.00    +0.000 C 
ATOM      3  C   UNL     1       7.892   6.055  19.049  0.00  0.00    +0.000 C 
ENDROOT
BRANCH   1   4
ATOM      4  N   UNL     1       7.981   4.205  17.286  0.00  0.00    +0.000 NA
ATOM      5  H   UNL     1       8.449   3.487  17.884  0.00  0.00    +0.000 HD
ATOM      6  H   UNL     1       8.722   4.785  16.832  0.00  0.00    +0.000 HD
ENDBRANCH   1   4
BRANCH   1   7
ATOM      7  C   UNL     1       5.708   4.768  18.259  0.00  0.00    +0.000 C 
ATOM      8  O   UNL     1       5.136   4.197  17.342  0.00  0.00    +0.000 OA
BRANCH   7   9
ATOM      9  O   UNL     1       5.033   5.131  19.383  0.00  0.00    +0.000 OA
BRANCH   9  11
ATOM     10  C   UNL     1       2.825   4.786  20.275  0.00  0.00    +0.000 C 
ATOM     11  C   UNL     1       3.747   5.640  19.404  0.00  0.00    +0.000 C 
ENDBRANCH   9  11
ENDBRANCH   7   9
ENDBRANCH   1   7
TORSDOF 4
ENDMDL
