MODEL 1
REMARK VINA RESULT:      -8.1      0.000      0.000
REMARK  Name = 
REMARK  9 active torsions:
REMARK  status: ('A' for Active; 'I' for Inactive)
REMARK    1  A    between atoms: C_1  and  C_2
REMARK    2  A    between atoms: C_2  and  C_3
REMARK    3  A    between atoms: C_3  and  C_4
REMARK    4  A    between atoms: C_4  and  C_5
REMARK    5  A    between atoms: N_7  and  N_8
REMARK    6  A    between atoms: N_8  and  C_9
REMARK    7  A    between atoms: N_16  and  C_17
REMARK    8  A    between atoms: C_17  and  C_18
REMARK    9  A    between atoms: C_18  and  C_19
REMARK                            x       y       z     vdW  Elec       q    Type
REMARK                         _______ _______ _______ _____ _____    ______ ____
ROOT
ATOM      1  C   UNL     1       7.617   6.951  17.253  0.00  0.00    +0.000 C 
ATOM      2  C   UNL     1       6.639   6.031  17.202  0.00  0.00    +0.000 C 
ATOM      3  C   UNL     1       7.017   4.614  17.036  0.00  0.00    +0.000 C 
ATOM      4  O   UNL     1       8.161   4.235  16.871  0.00  0.00    +0.000 OA
ATOM      5  N   UNL     1       5.978   3.740  17.127  0.00  0.00    +0.000 N 
ATOM      6  C   UNL     1       4.653   4.005  17.336  0.00  0.00    +0.000 C 
ATOM      7  O   UNL     1       3.880   3.063  17.388  0.00  0.00    +0.000 OA
ATOM      8  N   UNL     1       4.309   5.348  17.481  0.00  0.00    +0.000 N 
ATOM      9  C   UNL     1       5.221   6.400  17.361  0.00  0.00    +0.000 C 
ATOM     10  O   UNL     1       4.886   7.584  17.383  0.00  0.00    +0.000 OA
ATOM     11  H   UNL     1       6.215   2.757  17.042  0.00  0.00    +0.000 HD
ENDROOT
BRANCH   1  12
ATOM     12  N   UNL     1       7.612   8.325  17.468  0.00  0.00    +0.000 N 
ATOM     13  H   UNL     1       6.671   8.696  17.690  0.00  0.00    +0.000 HD
BRANCH  12  16
ATOM     14  C   UNL     1       8.733  10.224  18.413  0.00  0.00    +0.000 C 
ATOM     15  O   UNL     1       8.206  10.987  17.607  0.00  0.00    +0.000 OA
ATOM     16  N   UNL     1       8.529   8.849  18.425  0.00  0.00    +0.000 N 
ATOM     17  H   UNL     1       8.563   8.372  19.321  0.00  0.00    +0.000 HD
BRANCH  14  18
ATOM     18  C   UNL     1       9.738  10.681  19.464  0.00  0.00    +0.000 C 
BRANCH  18  19
ATOM     19  C   UNL     1      10.466  11.971  19.085  0.00  0.00    +0.000 C 
BRANCH  19  21
ATOM     20  C   UNL     1      11.748  13.015  17.188  0.00  0.00    +0.000 C 
ATOM     21  C   UNL     1      11.510  11.746  17.990  0.00  0.00    +0.000 C 
ENDBRANCH  19  21
ENDBRANCH  18  19
ENDBRANCH  14  18
ENDBRANCH  12  16
ENDBRANCH   1  12
BRANCH   8  22
ATOM     22  C   UNL     1       2.904   5.773  17.580  0.00  0.00    +0.000 C 
BRANCH  22  23
ATOM     23  C   UNL     1       2.339   6.073  18.968  0.00  0.00    +0.000 C 
BRANCH  23  24
ATOM     24  C   UNL     1       2.010   4.815  19.746  0.00  0.00    +0.000 C 
ATOM     25  C   UNL     1       1.270   3.855  19.169  0.00  0.00    +0.000 C 
ATOM     26  C   UNL     1       0.844   2.594  19.851  0.00  0.00    +0.000 C 
ATOM     27  C   UNL     1       1.030   2.656  21.366  0.00  0.00    +0.000 C 
ATOM     28  C   UNL     1       2.390   3.247  21.720  0.00  0.00    +0.000 C 
ATOM     29  C   UNL     1       2.540   4.668  21.160  0.00  0.00    +0.000 C 
ENDBRANCH  23  24
ENDBRANCH  22  23
ENDBRANCH   8  22
TORSDOF 8
ENDMDL
MODEL 2
REMARK VINA RESULT:      -7.9      4.001      6.164
REMARK  Name = 
REMARK  9 active torsions:
REMARK  status: ('A' for Active; 'I' for Inactive)
REMARK    1  A    between atoms: C_1  and  C_2
REMARK    2  A    between atoms: C_2  and  C_3
REMARK    3  A    between atoms: C_3  and  C_4
REMARK    4  A    between atoms: C_4  and  C_5
REMARK    5  A    between atoms: N_7  and  N_8
REMARK    6  A    between atoms: N_8  and  C_9
REMARK    7  A    between atoms: N_16  and  C_17
REMARK    8  A    between atoms: C_17  and  C_18
REMARK    9  A    between atoms: C_18  and  C_19
REMARK                            x       y       z     vdW  Elec       q    Type
REMARK                         _______ _______ _______ _____ _____    ______ ____
ROOT
ATOM      1  C   UNL     1       7.512   5.032  15.302  0.00  0.00    +0.000 C 
ATOM      2  C   UNL     1       6.846   5.077  16.468  0.00  0.00    +0.000 C 
ATOM      3  C   UNL     1       7.495   4.517  17.669  0.00  0.00    +0.000 C 
ATOM      4  O   UNL     1       8.571   3.951  17.653  0.00  0.00    +0.000 OA
ATOM      5  N   UNL     1       6.810   4.722  18.827  0.00  0.00    +0.000 N 
ATOM      6  C   UNL     1       5.614   5.358  19.012  0.00  0.00    +0.000 C 
ATOM      7  O   UNL     1       5.173   5.434  20.147  0.00  0.00    +0.000 OA
ATOM      8  N   UNL     1       5.006   5.873  17.868  0.00  0.00    +0.000 N 
ATOM      9  C   UNL     1       5.521   5.715  16.578  0.00  0.00    +0.000 C 
ATOM     10  O   UNL     1       4.921   6.079  15.567  0.00  0.00    +0.000 OA
ATOM     11  H   UNL     1       7.247   4.369  19.671  0.00  0.00    +0.000 HD
ENDROOT
BRANCH   1  12
ATOM     12  N   UNL     1       7.227   5.520  14.032  0.00  0.00    +0.000 N 
ATOM     13  H   UNL     1       7.884   6.260  13.726  0.00  0.00    +0.000 HD
BRANCH  12  16
ATOM     14  C   UNL     1       5.951   3.798  12.953  0.00  0.00    +0.000 C 
ATOM     15  O   UNL     1       5.073   3.854  13.810  0.00  0.00    +0.000 OA
ATOM     16  N   UNL     1       7.103   4.575  12.972  0.00  0.00    +0.000 N 
ATOM     17  H   UNL     1       7.507   4.847  12.080  0.00  0.00    +0.000 HD
BRANCH  14  18
ATOM     18  C   UNL     1       5.922   2.813  11.789  0.00  0.00    +0.000 C 
BRANCH  18  19
ATOM     19  C   UNL     1       4.529   2.635  11.182  0.00  0.00    +0.000 C 
BRANCH  19  21
ATOM     20  C   UNL     1       2.932   3.788   9.617  0.00  0.00    +0.000 C 
ATOM     21  C   UNL     1       3.901   3.968  10.774  0.00  0.00    +0.000 C 
ENDBRANCH  19  21
ENDBRANCH  18  19
ENDBRANCH  14  18
ENDBRANCH  12  16
ENDBRANCH   1  12
BRANCH   8  22
ATOM     22  C   UNL     1       3.660   6.463  17.914  0.00  0.00    +0.000 C 
BRANCH  22  23
ATOM     23  C   UNL     1       2.465   5.552  17.631  0.00  0.00    +0.000 C 
BRANCH  23  24
ATOM     24  C   UNL     1       2.173   4.603  18.776  0.00  0.00    +0.000 C 
ATOM     25  C   UNL     1       2.122   3.282  18.542  0.00  0.00    +0.000 C 
ATOM     26  C   UNL     1       1.798   2.255  19.581  0.00  0.00    +0.000 C 
ATOM     27  C   UNL     1       1.190   2.867  20.840  0.00  0.00    +0.000 C 
ATOM     28  C   UNL     1       1.966   4.108  21.268  0.00  0.00    +0.000 C 
ATOM     29  C   UNL     1       1.957   5.174  20.165  0.00  0.00    +0.000 C 
ENDBRANCH  23  24
ENDBRANCH  22  23
ENDBRANCH   8  22
TORSDOF 8
ENDMDL
MODEL 3
REMARK VINA RESULT:      -7.8      4.131      6.040
REMARK  Name = 
REMARK  9 active torsions:
REMARK  status: ('A' for Active; 'I' for Inactive)
REMARK    1  A    between atoms: C_1  and  C_2
REMARK    2  A    between atoms: C_2  and  C_3
REMARK    3  A    between atoms: C_3  and  C_4
REMARK    4  A    between atoms: C_4  and  C_5
REMARK    5  A    between atoms: N_7  and  N_8
REMARK    6  A    between atoms: N_8  and  C_9
REMARK    7  A    between atoms: N_16  and  C_17
REMARK    8  A    between atoms: C_17  and  C_18
REMARK    9  A    between atoms: C_18  and  C_19
REMARK                            x       y       z     vdW  Elec       q    Type
REMARK                         _______ _______ _______ _____ _____    ______ ____
ROOT
ATOM      1  C   UNL     1       6.779   5.365  16.189  0.00  0.00    +0.000 C 
ATOM      2  C   UNL     1       6.126   4.637  17.110  0.00  0.00    +0.000 C 
ATOM      3  C   UNL     1       6.739   4.479  18.443  0.00  0.00    +0.000 C 
ATOM      4  O   UNL     1       7.836   4.913  18.737  0.00  0.00    +0.000 OA
ATOM      5  N   UNL     1       5.952   3.840  19.351  0.00  0.00    +0.000 N 
ATOM      6  C   UNL     1       4.697   3.325  19.184  0.00  0.00    +0.000 C 
ATOM      7  O   UNL     1       4.164   2.789  20.142  0.00  0.00    +0.000 OA
ATOM      8  N   UNL     1       4.135   3.471  17.918  0.00  0.00    +0.000 N 
ATOM      9  C   UNL     1       4.804   4.046  16.833  0.00  0.00    +0.000 C 
ATOM     10  O   UNL     1       4.339   4.070  15.694  0.00  0.00    +0.000 OA
ATOM     11  H   UNL     1       6.340   3.742  20.284  0.00  0.00    +0.000 HD
ENDROOT
BRANCH   1  12
ATOM     12  N   UNL     1       6.458   5.760  14.895  0.00  0.00    +0.000 N 
ATOM     13  H   UNL     1       7.082   6.503  14.532  0.00  0.00    +0.000 HD
BRANCH  12  16
ATOM     14  C   UNL     1       7.266   4.799  12.850  0.00  0.00    +0.000 C 
ATOM     15  O   UNL     1       8.108   5.684  12.719  0.00  0.00    +0.000 OA
ATOM     16  N   UNL     1       6.355   4.745  13.899  0.00  0.00    +0.000 N 
ATOM     17  H   UNL     1       6.058   3.829  14.222  0.00  0.00    +0.000 HD
BRANCH  14  18
ATOM     18  C   UNL     1       7.065   3.679  11.835  0.00  0.00    +0.000 C 
BRANCH  18  19
ATOM     19  C   UNL     1       5.769   2.896  12.048  0.00  0.00    +0.000 C 
BRANCH  19  21
ATOM     20  C   UNL     1       3.648   3.039  10.700  0.00  0.00    +0.000 C 
ATOM     21  C   UNL     1       4.528   3.732  11.728  0.00  0.00    +0.000 C 
ENDBRANCH  19  21
ENDBRANCH  18  19
ENDBRANCH  14  18
ENDBRANCH  12  16
ENDBRANCH   1  12
BRANCH   8  22
ATOM     22  C   UNL     1       2.848   2.848  17.573  0.00  0.00    +0.000 C 
BRANCH  22  23
ATOM     23  C   UNL     1       1.573   3.664  17.785  0.00  0.00    +0.000 C 
BRANCH  23  24
ATOM     24  C   UNL     1       1.814   4.914  18.609  0.00  0.00    +0.000 C 
ATOM     25  C   UNL     1       1.584   4.888  19.931  0.00  0.00    +0.000 C 
ATOM     26  C   UNL     1       1.740   6.069  20.837  0.00  0.00    +0.000 C 
ATOM     27  C   UNL     1       1.845   7.385  20.070  0.00  0.00    +0.000 C 
ATOM     28  C   UNL     1       2.799   7.248  18.888  0.00  0.00    +0.000 C 
ATOM     29  C   UNL     1       2.322   6.163  17.914  0.00  0.00    +0.000 C 
ENDBRANCH  23  24
ENDBRANCH  22  23
ENDBRANCH   8  22
TORSDOF 8
ENDMDL
MODEL 4
REMARK VINA RESULT:      -7.8      4.699      6.661
REMARK  Name = 
REMARK  9 active torsions:
REMARK  status: ('A' for Active; 'I' for Inactive)
REMARK    1  A    between atoms: C_1  and  C_2
REMARK    2  A    between atoms: C_2  and  C_3
REMARK    3  A    between atoms: C_3  and  C_4
REMARK    4  A    between atoms: C_4  and  C_5
REMARK    5  A    between atoms: N_7  and  N_8
REMARK    6  A    between atoms: N_8  and  C_9
REMARK    7  A    between atoms: N_16  and  C_17
REMARK    8  A    between atoms: C_17  and  C_18
REMARK    9  A    between atoms: C_18  and  C_19
REMARK                            x       y       z     vdW  Elec       q    Type
REMARK                         _______ _______ _______ _____ _____    ______ ____
ROOT
ATOM      1  C   UNL     1       5.515   3.441  18.335  0.00  0.00    +0.000 C 
ATOM      2  C   UNL     1       4.479   3.427  19.191  0.00  0.00    +0.000 C 
ATOM      3  C   UNL     1       4.394   2.328  20.171  0.00  0.00    +0.000 C 
ATOM      4  O   UNL     1       5.168   1.391  20.205  0.00  0.00    +0.000 OA
ATOM      5  N   UNL     1       3.391   2.463  21.082  0.00  0.00    +0.000 N 
ATOM      6  C   UNL     1       2.465   3.463  21.192  0.00  0.00    +0.000 C 
ATOM      7  O   UNL     1       1.646   3.390  22.094  0.00  0.00    +0.000 OA
ATOM      8  N   UNL     1       2.551   4.489  20.254  0.00  0.00    +0.000 N 
ATOM      9  C   UNL     1       3.473   4.504  19.203  0.00  0.00    +0.000 C 
ATOM     10  O   UNL     1       3.468   5.360  18.318  0.00  0.00    +0.000 OA
ATOM     11  H   UNL     1       3.326   1.733  21.783  0.00  0.00    +0.000 HD
ENDROOT
BRANCH   1  12
ATOM     12  N   UNL     1       5.924   4.343  17.360  0.00  0.00    +0.000 N 
ATOM     13  H   UNL     1       6.954   4.395  17.262  0.00  0.00    +0.000 HD
BRANCH  12  16
ATOM     14  C   UNL     1       6.226   4.388  14.980  0.00  0.00    +0.000 C 
ATOM     15  O   UNL     1       7.410   4.694  15.095  0.00  0.00    +0.000 OA
ATOM     16  N   UNL     1       5.365   4.208  16.056  0.00  0.00    +0.000 N 
ATOM     17  H   UNL     1       4.619   3.526  15.957  0.00  0.00    +0.000 HD
BRANCH  14  18
ATOM     18  C   UNL     1       5.529   4.234  13.633  0.00  0.00    +0.000 C 
BRANCH  18  19
ATOM     19  C   UNL     1       6.387   3.524  12.585  0.00  0.00    +0.000 C 
BRANCH  19  21
ATOM     20  C   UNL     1       4.223   3.215  11.339  0.00  0.00    +0.000 C 
ATOM     21  C   UNL     1       5.562   2.591  11.697  0.00  0.00    +0.000 C 
ENDBRANCH  19  21
ENDBRANCH  18  19
ENDBRANCH  14  18
ENDBRANCH  12  16
ENDBRANCH   1  12
BRANCH   8  22
ATOM     22  C   UNL     1       1.537   5.552  20.184  0.00  0.00    +0.000 C 
BRANCH  22  23
ATOM     23  C   UNL     1       1.822   6.867  20.909  0.00  0.00    +0.000 C 
BRANCH  23  24
ATOM     24  C   UNL     1       1.517   8.080  20.053  0.00  0.00    +0.000 C 
ATOM     25  C   UNL     1       2.030   8.161  18.815  0.00  0.00    +0.000 C 
ATOM     26  C   UNL     1       1.837   9.327  17.898  0.00  0.00    +0.000 C 
ATOM     27  C   UNL     1       1.301  10.560  18.622  0.00  0.00    +0.000 C 
ATOM     28  C   UNL     1       0.161  10.182  19.562  0.00  0.00    +0.000 C 
ATOM     29  C   UNL     1       0.625   9.170  20.618  0.00  0.00    +0.000 C 
ENDBRANCH  23  24
ENDBRANCH  22  23
ENDBRANCH   8  22
TORSDOF 8
ENDMDL
MODEL 5
REMARK VINA RESULT:      -7.7      3.602      6.473
REMARK  Name = 
REMARK  9 active torsions:
REMARK  status: ('A' for Active; 'I' for Inactive)
REMARK    1  A    between atoms: C_1  and  C_2
REMARK    2  A    between atoms: C_2  and  C_3
REMARK    3  A    between atoms: C_3  and  C_4
REMARK    4  A    between atoms: C_4  and  C_5
REMARK    5  A    between atoms: N_7  and  N_8
REMARK    6  A    between atoms: N_8  and  C_9
REMARK    7  A    between atoms: N_16  and  C_17
REMARK    8  A    between atoms: C_17  and  C_18
REMARK    9  A    between atoms: C_18  and  C_19
REMARK                            x       y       z     vdW  Elec       q    Type
REMARK                         _______ _______ _______ _____ _____    ______ ____
ROOT
ATOM      1  C   UNL     1       3.227   3.726  19.052  0.00  0.00    +0.000 C 
ATOM      2  C   UNL     1       2.670   4.880  19.457  0.00  0.00    +0.000 C 
ATOM      3  C   UNL     1       1.932   4.892  20.735  0.00  0.00    +0.000 C 
ATOM      4  O   UNL     1       1.737   3.901  21.411  0.00  0.00    +0.000 OA
ATOM      5  N   UNL     1       1.515   6.125  21.132  0.00  0.00    +0.000 N 
ATOM      6  C   UNL     1       1.680   7.328  20.503  0.00  0.00    +0.000 C 
ATOM      7  O   UNL     1       1.225   8.324  21.040  0.00  0.00    +0.000 OA
ATOM      8  N   UNL     1       2.369   7.300  19.292  0.00  0.00    +0.000 N 
ATOM      9  C   UNL     1       2.826   6.126  18.686  0.00  0.00    +0.000 C 
ATOM     10  O   UNL     1       3.337   6.104  17.566  0.00  0.00    +0.000 OA
ATOM     11  H   UNL     1       1.027   6.165  22.020  0.00  0.00    +0.000 HD
ENDROOT
BRANCH   1  12
ATOM     12  N   UNL     1       4.028   3.394  17.966  0.00  0.00    +0.000 N 
ATOM     13  H   UNL     1       3.622   3.686  17.059  0.00  0.00    +0.000 HD
BRANCH  12  16
ATOM     14  C   UNL     1       5.948   4.222  16.788  0.00  0.00    +0.000 C 
ATOM     15  O   UNL     1       5.350   4.198  15.715  0.00  0.00    +0.000 OA
ATOM     16  N   UNL     1       5.390   3.814  17.994  0.00  0.00    +0.000 N 
ATOM     17  H   UNL     1       5.697   4.284  18.841  0.00  0.00    +0.000 HD
BRANCH  14  18
ATOM     18  C   UNL     1       7.408   4.641  16.923  0.00  0.00    +0.000 C 
BRANCH  18  19
ATOM     19  C   UNL     1       7.620   5.782  17.919  0.00  0.00    +0.000 C 
BRANCH  19  21
ATOM     20  C   UNL     1       8.065   8.259  17.919  0.00  0.00    +0.000 C 
ATOM     21  C   UNL     1       7.218   7.139  17.338  0.00  0.00    +0.000 C 
ENDBRANCH  19  21
ENDBRANCH  18  19
ENDBRANCH  14  18
ENDBRANCH  12  16
ENDBRANCH   1  12
BRANCH   8  22
ATOM     22  C   UNL     1       2.499   8.503  18.456  0.00  0.00    +0.000 C 
BRANCH  22  23
ATOM     23  C   UNL     1       1.308   8.909  17.589  0.00  0.00    +0.000 C 
BRANCH  23  24
ATOM     24  C   UNL     1       0.545  10.086  18.164  0.00  0.00    +0.000 C 
ATOM     25  C   UNL     1       1.212  11.047  18.823  0.00  0.00    +0.000 C 
ATOM     26  C   UNL     1       0.563  12.228  19.473  0.00  0.00    +0.000 C 
ATOM     27  C   UNL     1      -0.947  12.061  19.619  0.00  0.00    +0.000 C 
ATOM     28  C   UNL     1      -1.559  11.516  18.332  0.00  0.00    +0.000 C 
ATOM     29  C   UNL     1      -0.958  10.152  17.968  0.00  0.00    +0.000 C 
ENDBRANCH  23  24
ENDBRANCH  22  23
ENDBRANCH   8  22
TORSDOF 8
ENDMDL
MODEL 6
REMARK VINA RESULT:      -7.7      4.672      6.888
REMARK  Name = 
REMARK  9 active torsions:
REMARK  status: ('A' for Active; 'I' for Inactive)
REMARK    1  A    between atoms: C_1  and  C_2
REMARK    2  A    between atoms: C_2  and  C_3
REMARK    3  A    between atoms: C_3  and  C_4
REMARK    4  A    between atoms: C_4  and  C_5
REMARK    5  A    between atoms: N_7  and  N_8
REMARK    6  A    between atoms: N_8  and  C_9
REMARK    7  A    between atoms: N_16  and  C_17
REMARK    8  A    between atoms: C_17  and  C_18
REMARK    9  A    between atoms: C_18  and  C_19
REMARK                            x       y       z     vdW  Elec       q    Type
REMARK                         _______ _______ _______ _____ _____    ______ ____
ROOT
ATOM      1  C   UNL     1       4.890   3.244  16.867  0.00  0.00    +0.000 C 
ATOM      2  C   UNL     1       3.975   3.787  17.689  0.00  0.00    +0.000 C 
ATOM      3  C   UNL     1       3.029   2.888  18.377  0.00  0.00    +0.000 C 
ATOM      4  O   UNL     1       2.981   1.688  18.190  0.00  0.00    +0.000 OA
ATOM      5  N   UNL     1       2.228   3.505  19.287  0.00  0.00    +0.000 N 
ATOM      6  C   UNL     1       2.181   4.828  19.629  0.00  0.00    +0.000 C 
ATOM      7  O   UNL     1       1.381   5.174  20.482  0.00  0.00    +0.000 OA
ATOM      8  N   UNL     1       3.073   5.668  18.964  0.00  0.00    +0.000 N 
ATOM      9  C   UNL     1       3.937   5.237  17.952  0.00  0.00    +0.000 C 
ATOM     10  O   UNL     1       4.641   6.006  17.298  0.00  0.00    +0.000 OA
ATOM     11  H   UNL     1       1.584   2.905  19.793  0.00  0.00    +0.000 HD
ENDROOT
BRANCH   1  12
ATOM     12  N   UNL     1       5.944   3.783  16.140  0.00  0.00    +0.000 N 
ATOM     13  H   UNL     1       6.872   3.551  16.539  0.00  0.00    +0.000 HD
BRANCH  12  16
ATOM     14  C   UNL     1       6.816   4.324  13.970  0.00  0.00    +0.000 C 
ATOM     15  O   UNL     1       7.465   5.265  14.421  0.00  0.00    +0.000 OA
ATOM     16  N   UNL     1       5.988   3.515  14.740  0.00  0.00    +0.000 N 
ATOM     17  H   UNL     1       5.889   2.542  14.467  0.00  0.00    +0.000 HD
BRANCH  14  18
ATOM     18  C   UNL     1       6.783   3.964  12.489  0.00  0.00    +0.000 C 
BRANCH  18  19
ATOM     19  C   UNL     1       5.497   3.252  12.069  0.00  0.00    +0.000 C 
BRANCH  19  21
ATOM     20  C   UNL     1       7.243   1.753  11.053  0.00  0.00    +0.000 C 
ATOM     21  C   UNL     1       5.773   1.901  11.408  0.00  0.00    +0.000 C 
ENDBRANCH  19  21
ENDBRANCH  18  19
ENDBRANCH  14  18
ENDBRANCH  12  16
ENDBRANCH   1  12
BRANCH   8  22
ATOM     22  C   UNL     1       3.034   7.127  19.145  0.00  0.00    +0.000 C 
BRANCH  22  23
ATOM     23  C   UNL     1       2.068   7.934  18.278  0.00  0.00    +0.000 C 
BRANCH  23  24
ATOM     24  C   UNL     1       1.366   9.030  19.056  0.00  0.00    +0.000 C 
ATOM     25  C   UNL     1       1.119   8.857  20.364  0.00  0.00    +0.000 C 
ATOM     26  C   UNL     1       0.394   9.844  21.222  0.00  0.00    +0.000 C 
ATOM     27  C   UNL     1      -0.343  10.902  20.404  0.00  0.00    +0.000 C 
ATOM     28  C   UNL     1       0.543  11.431  19.281  0.00  0.00    +0.000 C 
ATOM     29  C   UNL     1       0.970  10.303  18.333  0.00  0.00    +0.000 C 
ENDBRANCH  23  24
ENDBRANCH  22  23
ENDBRANCH   8  22
TORSDOF 8
ENDMDL
MODEL 7
REMARK VINA RESULT:      -7.6      3.842      7.481
REMARK  Name = 
REMARK  9 active torsions:
REMARK  status: ('A' for Active; 'I' for Inactive)
REMARK    1  A    between atoms: C_1  and  C_2
REMARK    2  A    between atoms: C_2  and  C_3
REMARK    3  A    between atoms: C_3  and  C_4
REMARK    4  A    between atoms: C_4  and  C_5
REMARK    5  A    between atoms: N_7  and  N_8
REMARK    6  A    between atoms: N_8  and  C_9
REMARK    7  A    between atoms: N_16  and  C_17
REMARK    8  A    between atoms: C_17  and  C_18
REMARK    9  A    between atoms: C_18  and  C_19
REMARK                            x       y       z     vdW  Elec       q    Type
REMARK                         _______ _______ _______ _____ _____    ______ ____
ROOT
ATOM      1  C   UNL     1       1.978   5.656  20.845  0.00  0.00    +0.000 C 
ATOM      2  C   UNL     1       2.503   4.646  20.130  0.00  0.00    +0.000 C 
ATOM      3  C   UNL     1       2.512   3.296  20.726  0.00  0.00    +0.000 C 
ATOM      4  O   UNL     1       2.136   3.054  21.856  0.00  0.00    +0.000 OA
ATOM      5  N   UNL     1       2.939   2.314  19.885  0.00  0.00    +0.000 N 
ATOM      6  C   UNL     1       3.364   2.420  18.590  0.00  0.00    +0.000 C 
ATOM      7  O   UNL     1       3.704   1.402  18.011  0.00  0.00    +0.000 OA
ATOM      8  N   UNL     1       3.360   3.703  18.044  0.00  0.00    +0.000 N 
ATOM      9  C   UNL     1       3.013   4.851  18.762  0.00  0.00    +0.000 C 
ATOM     10  O   UNL     1       3.118   5.988  18.302  0.00  0.00    +0.000 OA
ATOM     11  H   UNL     1       2.931   1.372  20.262  0.00  0.00    +0.000 HD
ENDROOT
BRANCH   1  12
ATOM     12  N   UNL     1       1.754   6.998  20.561  0.00  0.00    +0.000 N 
ATOM     13  H   UNL     1       0.982   7.146  19.887  0.00  0.00    +0.000 HD
BRANCH  12  16
ATOM     14  C   UNL     1       0.780   9.014  21.425  0.00  0.00    +0.000 C 
ATOM     15  O   UNL     1       0.308   9.303  20.329  0.00  0.00    +0.000 OA
ATOM     16  N   UNL     1       1.554   7.883  21.660  0.00  0.00    +0.000 N 
ATOM     17  H   UNL     1       1.495   7.451  22.578  0.00  0.00    +0.000 HD
BRANCH  14  18
ATOM     18  C   UNL     1       0.636   9.898  22.659  0.00  0.00    +0.000 C 
BRANCH  18  19
ATOM     19  C   UNL     1      -0.817  10.233  22.997  0.00  0.00    +0.000 C 
BRANCH  19  21
ATOM     20  C   UNL     1      -2.565  12.037  23.150  0.00  0.00    +0.000 C 
ATOM     21  C   UNL     1      -1.169  11.684  22.664  0.00  0.00    +0.000 C 
ENDBRANCH  19  21
ENDBRANCH  18  19
ENDBRANCH  14  18
ENDBRANCH  12  16
ENDBRANCH   1  12
BRANCH   8  22
ATOM     22  C   UNL     1       3.915   3.969  16.708  0.00  0.00    +0.000 C 
BRANCH  22  23
ATOM     23  C   UNL     1       5.404   3.711  16.482  0.00  0.00    +0.000 C 
BRANCH  23  24
ATOM     24  C   UNL     1       6.277   4.815  17.046  0.00  0.00    +0.000 C 
ATOM     25  C   UNL     1       7.105   4.545  18.068  0.00  0.00    +0.000 C 
ATOM     26  C   UNL     1       7.977   5.560  18.736  0.00  0.00    +0.000 C 
ATOM     27  C   UNL     1       7.584   6.993  18.383  0.00  0.00    +0.000 C 
ATOM     28  C   UNL     1       7.328   7.131  16.886  0.00  0.00    +0.000 C 
ATOM     29  C   UNL     1       6.199   6.198  16.429  0.00  0.00    +0.000 C 
ENDBRANCH  23  24
ENDBRANCH  22  23
ENDBRANCH   8  22
TORSDOF 8
ENDMDL
MODEL 8
REMARK VINA RESULT:      -7.6      3.601      6.511
REMARK  Name = 
REMARK  9 active torsions:
REMARK  status: ('A' for Active; 'I' for Inactive)
REMARK    1  A    between atoms: C_1  and  C_2
REMARK    2  A    between atoms: C_2  and  C_3
REMARK    3  A    between atoms: C_3  and  C_4
REMARK    4  A    between atoms: C_4  and  C_5
REMARK    5  A    between atoms: N_7  and  N_8
REMARK    6  A    between atoms: N_8  and  C_9
REMARK    7  A    between atoms: N_16  and  C_17
REMARK    8  A    between atoms: C_17  and  C_18
REMARK    9  A    between atoms: C_18  and  C_19
REMARK                            x       y       z     vdW  Elec       q    Type
REMARK                         _______ _______ _______ _____ _____    ______ ____
ROOT
ATOM      1  C   UNL     1       3.232   3.748  19.093  0.00  0.00    +0.000 C 
ATOM      2  C   UNL     1       2.686   4.912  19.483  0.00  0.00    +0.000 C 
ATOM      3  C   UNL     1       1.994   4.961  20.786  0.00  0.00    +0.000 C 
ATOM      4  O   UNL     1       1.826   3.990  21.497  0.00  0.00    +0.000 OA
ATOM      5  N   UNL     1       1.588   6.205  21.160  0.00  0.00    +0.000 N 
ATOM      6  C   UNL     1       1.727   7.388  20.490  0.00  0.00    +0.000 C 
ATOM      7  O   UNL     1       1.289   8.399  21.013  0.00  0.00    +0.000 OA
ATOM      8  N   UNL     1       2.373   7.326  19.257  0.00  0.00    +0.000 N 
ATOM      9  C   UNL     1       2.812   6.135  18.670  0.00  0.00    +0.000 C 
ATOM     10  O   UNL     1       3.282   6.080  17.534  0.00  0.00    +0.000 OA
ATOM     11  H   UNL     1       1.132   6.270  22.064  0.00  0.00    +0.000 HD
ENDROOT
BRANCH   1  12
ATOM     12  N   UNL     1       3.994   3.384  17.989  0.00  0.00    +0.000 N 
ATOM     13  H   UNL     1       3.531   3.599  17.088  0.00  0.00    +0.000 HD
BRANCH  12  16
ATOM     14  C   UNL     1       5.822   4.193  16.661  0.00  0.00    +0.000 C 
ATOM     15  O   UNL     1       5.185   4.046  15.621  0.00  0.00    +0.000 OA
ATOM     16  N   UNL     1       5.334   3.868  17.921  0.00  0.00    +0.000 N 
ATOM     17  H   UNL     1       5.649   4.425  18.710  0.00  0.00    +0.000 HD
BRANCH  14  18
ATOM     18  C   UNL     1       7.264   4.688  16.696  0.00  0.00    +0.000 C 
BRANCH  18  19
ATOM     19  C   UNL     1       7.810   4.861  18.114  0.00  0.00    +0.000 C 
BRANCH  19  21
ATOM     20  C   UNL     1       7.278   7.237  17.480  0.00  0.00    +0.000 C 
ATOM     21  C   UNL     1       7.927   6.332  18.514  0.00  0.00    +0.000 C 
ENDBRANCH  19  21
ENDBRANCH  18  19
ENDBRANCH  14  18
ENDBRANCH  12  16
ENDBRANCH   1  12
BRANCH   8  22
ATOM     22  C   UNL     1       2.470   8.504  18.381  0.00  0.00    +0.000 C 
BRANCH  22  23
ATOM     23  C   UNL     1       1.242   8.891  17.558  0.00  0.00    +0.000 C 
BRANCH  23  24
ATOM     24  C   UNL     1       0.466  10.037  18.176  0.00  0.00    +0.000 C 
ATOM     25  C   UNL     1      -0.871  10.070  18.058  0.00  0.00    +0.000 C 
ATOM     26  C   UNL     1      -1.737  11.170  18.584  0.00  0.00    +0.000 C 
ATOM     27  C   UNL     1      -0.938  12.417  18.957  0.00  0.00    +0.000 C 
ATOM     28  C   UNL     1       0.315  12.042  19.743  0.00  0.00    +0.000 C 
ATOM     29  C   UNL     1       1.225  11.116  18.926  0.00  0.00    +0.000 C 
ENDBRANCH  23  24
ENDBRANCH  22  23
ENDBRANCH   8  22
TORSDOF 8
ENDMDL
MODEL 9
REMARK VINA RESULT:      -7.6      3.800      7.252
REMARK  Name = 
REMARK  9 active torsions:
REMARK  status: ('A' for Active; 'I' for Inactive)
REMARK    1  A    between atoms: C_1  and  C_2
REMARK    2  A    between atoms: C_2  and  C_3
REMARK    3  A    between atoms: C_3  and  C_4
REMARK    4  A    between atoms: C_4  and  C_5
REMARK    5  A    between atoms: N_7  and  N_8
REMARK    6  A    between atoms: N_8  and  C_9
REMARK    7  A    between atoms: N_16  and  C_17
REMARK    8  A    between atoms: C_17  and  C_18
REMARK    9  A    between atoms: C_18  and  C_19
REMARK                            x       y       z     vdW  Elec       q    Type
REMARK                         _______ _______ _______ _____ _____    ______ ____
ROOT
ATOM      1  C   UNL     1       1.824   5.770  20.781  0.00  0.00    +0.000 C 
ATOM      2  C   UNL     1       2.417   4.736  20.162  0.00  0.00    +0.000 C 
ATOM      3  C   UNL     1       2.567   3.468  20.901  0.00  0.00    +0.000 C 
ATOM      4  O   UNL     1       2.249   3.323  22.065  0.00  0.00    +0.000 OA
ATOM      5  N   UNL     1       3.057   2.438  20.157  0.00  0.00    +0.000 N 
ATOM      6  C   UNL     1       3.431   2.434  18.843  0.00  0.00    +0.000 C 
ATOM      7  O   UNL     1       3.845   1.391  18.366  0.00  0.00    +0.000 OA
ATOM      8  N   UNL     1       3.294   3.641  18.159  0.00  0.00    +0.000 N 
ATOM      9  C   UNL     1       2.865   4.829  18.760  0.00  0.00    +0.000 C 
ATOM     10  O   UNL     1       2.852   5.911  18.174  0.00  0.00    +0.000 OA
ATOM     11  H   UNL     1       3.146   1.548  20.635  0.00  0.00    +0.000 HD
ENDROOT
BRANCH   1  12
ATOM     12  N   UNL     1       1.469   7.047  20.360  0.00  0.00    +0.000 N 
ATOM     13  H   UNL     1       0.627   7.056  19.758  0.00  0.00    +0.000 HD
BRANCH  12  16
ATOM     14  C   UNL     1       0.927   9.316  20.923  0.00  0.00    +0.000 C 
ATOM     15  O   UNL     1       0.770   9.614  19.742  0.00  0.00    +0.000 OA
ATOM     16  N   UNL     1       1.307   8.052  21.359  0.00  0.00    +0.000 N 
ATOM     17  H   UNL     1       0.959   7.736  22.259  0.00  0.00    +0.000 HD
BRANCH  14  18
ATOM     18  C   UNL     1       0.792  10.318  22.064  0.00  0.00    +0.000 C 
BRANCH  18  19
ATOM     19  C   UNL     1      -0.260   9.918  23.099  0.00  0.00    +0.000 C 
BRANCH  19  21
ATOM     20  C   UNL     1      -0.984  12.284  22.645  0.00  0.00    +0.000 C 
ATOM     21  C   UNL     1      -1.408  10.925  23.177  0.00  0.00    +0.000 C 
ENDBRANCH  19  21
ENDBRANCH  18  19
ENDBRANCH  14  18
ENDBRANCH  12  16
ENDBRANCH   1  12
BRANCH   8  22
ATOM     22  C   UNL     1       3.782   3.802  16.781  0.00  0.00    +0.000 C 
BRANCH  22  23
ATOM     23  C   UNL     1       5.287   3.710  16.535  0.00  0.00    +0.000 C 
BRANCH  23  24
ATOM     24  C   UNL     1       6.040   4.906  17.084  0.00  0.00    +0.000 C 
ATOM     25  C   UNL     1       5.672   6.144  16.717  0.00  0.00    +0.000 C 
ATOM     26  C   UNL     1       6.367   7.394  17.156  0.00  0.00    +0.000 C 
ATOM     27  C   UNL     1       7.736   7.118  17.772  0.00  0.00    +0.000 C 
ATOM     28  C   UNL     1       7.665   5.949  18.748  0.00  0.00    +0.000 C 
ATOM     29  C   UNL     1       7.188   4.670  18.048  0.00  0.00    +0.000 C 
ENDBRANCH  23  24
ENDBRANCH  22  23
ENDBRANCH   8  22
TORSDOF 8
ENDMDL
