MODEL 1
REMARK VINA RESULT:      -8.3      0.000      0.000
REMARK  Name = 
REMARK  8 active torsions:
REMARK  status: ('A' for Active; 'I' for Inactive)
REMARK    1  A    between atoms: C_1  and  O_2
REMARK    2  A    between atoms: O_2  and  C_3
REMARK    3  A    between atoms: C_7  and  C_8
REMARK    4  A    between atoms: C_14  and  C_15
REMARK    5  A    between atoms: C_17  and  O_18
REMARK    6  A    between atoms: O_18  and  C_19
REMARK    7  A    between atoms: C_21  and  O_22
REMARK    8  A    between atoms: O_22  and  C_23
REMARK                            x       y       z     vdW  Elec       q    Type
REMARK                         _______ _______ _______ _____ _____    ______ ____
ROOT
ATOM      1  C   UNL     1       2.203   6.083  20.076  0.00  0.00    +0.000 C 
ATOM      2  N   UNL     1       3.398   5.805  19.633  0.00  0.00    +0.000 NA
ATOM      3  N   UNL     1       3.786   4.483  19.663  0.00  0.00    +0.000 N 
ATOM      4  C   UNL     1       3.245   3.448  20.383  0.00  0.00    +0.000 A 
ATOM      5  N   UNL     1       3.877   2.326  20.154  0.00  0.00    +0.000 NA
ATOM      6  N   UNL     1       4.883   2.612  19.263  0.00  0.00    +0.000 NA
ATOM      7  C   UNL     1       4.864   3.912  18.999  0.00  0.00    +0.000 A 
ATOM      8  S   UNL     1       1.914   3.706  21.440  0.00  0.00    +0.000 S 
ATOM      9  C   UNL     1       1.162   5.054  20.509  0.00  0.00    +0.000 C 
ENDROOT
BRANCH   1  14
ATOM     10  C   UNL     1       0.983   9.503  21.228  0.00  0.00    +0.000 A 
ATOM     11  C   UNL     1       0.936  10.183  20.010  0.00  0.00    +0.000 A 
ATOM     12  C   UNL     1       1.295   9.543  18.824  0.00  0.00    +0.000 A 
ATOM     13  C   UNL     1       1.711   8.212  18.853  0.00  0.00    +0.000 A 
ATOM     14  C   UNL     1       1.774   7.523  20.070  0.00  0.00    +0.000 A 
ATOM     15  C   UNL     1       1.404   8.172  21.256  0.00  0.00    +0.000 A 
BRANCH  10  17
ATOM     16  C   UNL     1      -0.369   9.640  23.184  0.00  0.00    +0.000 C 
ATOM     17  O   UNL     1       0.584  10.236  22.312  0.00  0.00    +0.000 OA
ENDBRANCH  10  17
ENDBRANCH   1  14
BRANCH   7  18
ATOM     18  C   UNL     1       5.820   4.611  18.134  0.00  0.00    +0.000 A 
ATOM     19  C   UNL     1       6.589   5.661  18.654  0.00  0.00    +0.000 A 
ATOM     20  C   UNL     1       7.454   6.391  17.836  0.00  0.00    +0.000 A 
ATOM     21  C   UNL     1       7.583   6.050  16.490  0.00  0.00    +0.000 A 
ATOM     22  C   UNL     1       6.827   5.007  15.951  0.00  0.00    +0.000 A 
ATOM     23  C   UNL     1       5.948   4.300  16.773  0.00  0.00    +0.000 A 
BRANCH  20  24
ATOM     24  O   UNL     1       8.140   7.398  18.458  0.00  0.00    +0.000 OA
ATOM     25  C   UNL     1       8.070   8.668  17.815  0.00  0.00    +0.000 C 
ENDBRANCH  20  24
BRANCH  22  26
ATOM     26  O   UNL     1       7.017   4.782  14.614  0.00  0.00    +0.000 OA
ATOM     27  C   UNL     1       6.059   3.955  13.962  0.00  0.00    +0.000 C 
ENDBRANCH  22  26
ENDBRANCH   7  18
TORSDOF 5
ENDMDL
MODEL 2
REMARK VINA RESULT:      -8.3      0.869      2.531
REMARK  Name = 
REMARK  8 active torsions:
REMARK  status: ('A' for Active; 'I' for Inactive)
REMARK    1  A    between atoms: C_1  and  O_2
REMARK    2  A    between atoms: O_2  and  C_3
REMARK    3  A    between atoms: C_7  and  C_8
REMARK    4  A    between atoms: C_14  and  C_15
REMARK    5  A    between atoms: C_17  and  O_18
REMARK    6  A    between atoms: O_18  and  C_19
REMARK    7  A    between atoms: C_21  and  O_22
REMARK    8  A    between atoms: O_22  and  C_23
REMARK                            x       y       z     vdW  Elec       q    Type
REMARK                         _______ _______ _______ _____ _____    ______ ____
ROOT
ATOM      1  C   UNL     1       2.160   6.020  20.004  0.00  0.00    +0.000 C 
ATOM      2  N   UNL     1       3.197   5.686  19.286  0.00  0.00    +0.000 NA
ATOM      3  N   UNL     1       3.547   4.353  19.272  0.00  0.00    +0.000 N 
ATOM      4  C   UNL     1       3.179   3.361  20.146  0.00  0.00    +0.000 A 
ATOM      5  N   UNL     1       3.704   2.212  19.813  0.00  0.00    +0.000 NA
ATOM      6  N   UNL     1       4.460   2.433  18.687  0.00  0.00    +0.000 NA
ATOM      7  C   UNL     1       4.408   3.723  18.383  0.00  0.00    +0.000 A 
ATOM      8  S   UNL     1       2.164   3.701  21.492  0.00  0.00    +0.000 S 
ATOM      9  C   UNL     1       1.236   5.043  20.725  0.00  0.00    +0.000 C 
ENDROOT
BRANCH   1  14
ATOM     10  C   UNL     1       1.072   9.442  21.274  0.00  0.00    +0.000 A 
ATOM     11  C   UNL     1       1.032  10.160  20.077  0.00  0.00    +0.000 A 
ATOM     12  C   UNL     1       1.354   9.545  18.868  0.00  0.00    +0.000 A 
ATOM     13  C   UNL     1       1.725   8.201  18.851  0.00  0.00    +0.000 A 
ATOM     14  C   UNL     1       1.780   7.473  20.046  0.00  0.00    +0.000 A 
ATOM     15  C   UNL     1       1.447   8.097  21.256  0.00  0.00    +0.000 A 
BRANCH  10  17
ATOM     16  C   UNL     1      -0.639  10.040  22.820  0.00  0.00    +0.000 C 
ATOM     17  O   UNL     1       0.710  10.155  22.384  0.00  0.00    +0.000 OA
ENDBRANCH  10  17
ENDBRANCH   1  14
BRANCH   7  18
ATOM     18  C   UNL     1       5.133   4.359  17.278  0.00  0.00    +0.000 A 
ATOM     19  C   UNL     1       4.882   3.956  15.959  0.00  0.00    +0.000 A 
ATOM     20  C   UNL     1       5.607   4.494  14.894  0.00  0.00    +0.000 A 
ATOM     21  C   UNL     1       6.572   5.470  15.139  0.00  0.00    +0.000 A 
ATOM     22  C   UNL     1       6.838   5.887  16.446  0.00  0.00    +0.000 A 
ATOM     23  C   UNL     1       6.123   5.325  17.504  0.00  0.00    +0.000 A 
BRANCH  20  24
ATOM     24  O   UNL     1       5.278   4.012  13.656  0.00  0.00    +0.000 OA
ATOM     25  C   UNL     1       6.383   3.663  12.826  0.00  0.00    +0.000 C 
ENDBRANCH  20  24
BRANCH  22  26
ATOM     26  O   UNL     1       7.824   6.830  16.566  0.00  0.00    +0.000 OA
ATOM     27  C   UNL     1       7.669   7.788  17.607  0.00  0.00    +0.000 C 
ENDBRANCH  22  26
ENDBRANCH   7  18
TORSDOF 5
ENDMDL
MODEL 3
REMARK VINA RESULT:      -8.3      0.885      1.046
REMARK  Name = 
REMARK  8 active torsions:
REMARK  status: ('A' for Active; 'I' for Inactive)
REMARK    1  A    between atoms: C_1  and  O_2
REMARK    2  A    between atoms: O_2  and  C_3
REMARK    3  A    between atoms: C_7  and  C_8
REMARK    4  A    between atoms: C_14  and  C_15
REMARK    5  A    between atoms: C_17  and  O_18
REMARK    6  A    between atoms: O_18  and  C_19
REMARK    7  A    between atoms: C_21  and  O_22
REMARK    8  A    between atoms: O_22  and  C_23
REMARK                            x       y       z     vdW  Elec       q    Type
REMARK                         _______ _______ _______ _____ _____    ______ ____
ROOT
ATOM      1  C   UNL     1       2.243   6.082  19.859  0.00  0.00    +0.000 C 
ATOM      2  N   UNL     1       3.275   5.682  19.169  0.00  0.00    +0.000 NA
ATOM      3  N   UNL     1       3.611   4.349  19.257  0.00  0.00    +0.000 N 
ATOM      4  C   UNL     1       3.235   3.432  20.206  0.00  0.00    +0.000 A 
ATOM      5  N   UNL     1       3.747   2.254  19.962  0.00  0.00    +0.000 NA
ATOM      6  N   UNL     1       4.503   2.379  18.821  0.00  0.00    +0.000 NA
ATOM      7  C   UNL     1       4.464   3.642  18.418  0.00  0.00    +0.000 A 
ATOM      8  S   UNL     1       2.227   3.885  21.524  0.00  0.00    +0.000 S 
ATOM      9  C   UNL     1       1.311   5.173  20.656  0.00  0.00    +0.000 C 
ENDROOT
BRANCH   1  14
ATOM     10  C   UNL     1       1.073   9.572  20.838  0.00  0.00    +0.000 A 
ATOM     11  C   UNL     1       1.163  10.228  19.608  0.00  0.00    +0.000 A 
ATOM     12  C   UNL     1       1.598   9.549  18.470  0.00  0.00    +0.000 A 
ATOM     13  C   UNL     1       1.953   8.203  18.560  0.00  0.00    +0.000 A 
ATOM     14  C   UNL     1       1.878   7.538  19.790  0.00  0.00    +0.000 A 
ATOM     15  C   UNL     1       1.433   8.226  20.926  0.00  0.00    +0.000 A 
BRANCH  10  17
ATOM     16  C   UNL     1      -0.122   9.686  22.895  0.00  0.00    +0.000 C 
ATOM     17  O   UNL     1       0.611  10.344  21.868  0.00  0.00    +0.000 OA
ENDBRANCH  10  17
ENDBRANCH   1  14
BRANCH   7  18
ATOM     18  C   UNL     1       5.192   4.183  17.266  0.00  0.00    +0.000 A 
ATOM     19  C   UNL     1       6.220   5.114  17.468  0.00  0.00    +0.000 A 
ATOM     20  C   UNL     1       6.882   5.699  16.387  0.00  0.00    +0.000 A 
ATOM     21  C   UNL     1       6.541   5.329  15.086  0.00  0.00    +0.000 A 
ATOM     22  C   UNL     1       5.520   4.402  14.862  0.00  0.00    +0.000 A 
ATOM     23  C   UNL     1       4.849   3.842  15.950  0.00  0.00    +0.000 A 
BRANCH  20  24
ATOM     24  O   UNL     1       7.858   6.601  16.713  0.00  0.00    +0.000 OA
ATOM     25  C   UNL     1       7.428   7.697  17.516  0.00  0.00    +0.000 C 
ENDBRANCH  20  24
BRANCH  22  26
ATOM     26  O   UNL     1       5.255   4.137  13.545  0.00  0.00    +0.000 OA
ATOM     27  C   UNL     1       6.326   3.605  12.772  0.00  0.00    +0.000 C 
ENDBRANCH  22  26
ENDBRANCH   7  18
TORSDOF 5
ENDMDL
MODEL 4
REMARK VINA RESULT:      -8.1      0.952      1.611
REMARK  Name = 
REMARK  8 active torsions:
REMARK  status: ('A' for Active; 'I' for Inactive)
REMARK    1  A    between atoms: C_1  and  O_2
REMARK    2  A    between atoms: O_2  and  C_3
REMARK    3  A    between atoms: C_7  and  C_8
REMARK    4  A    between atoms: C_14  and  C_15
REMARK    5  A    between atoms: C_17  and  O_18
REMARK    6  A    between atoms: O_18  and  C_19
REMARK    7  A    between atoms: C_21  and  O_22
REMARK    8  A    between atoms: O_22  and  C_23
REMARK                            x       y       z     vdW  Elec       q    Type
REMARK                         _______ _______ _______ _____ _____    ______ ____
ROOT
ATOM      1  C   UNL     1       2.167   5.850  20.191  0.00  0.00    +0.000 C 
ATOM      2  N   UNL     1       3.368   5.655  19.721  0.00  0.00    +0.000 NA
ATOM      3  N   UNL     1       3.833   4.358  19.710  0.00  0.00    +0.000 N 
ATOM      4  C   UNL     1       3.367   3.274  20.410  0.00  0.00    +0.000 A 
ATOM      5  N   UNL     1       4.058   2.198  20.141  0.00  0.00    +0.000 NA
ATOM      6  N   UNL     1       5.030   2.565  19.243  0.00  0.00    +0.000 NA
ATOM      7  C   UNL     1       4.932   3.868  19.014  0.00  0.00    +0.000 A 
ATOM      8  S   UNL     1       2.041   3.425  21.495  0.00  0.00    +0.000 S 
ATOM      9  C   UNL     1       1.196   4.751  20.612  0.00  0.00    +0.000 C 
ENDROOT
BRANCH   1  14
ATOM     10  C   UNL     1       1.452   9.470  19.244  0.00  0.00    +0.000 A 
ATOM     11  C   UNL     1       0.729   9.891  20.362  0.00  0.00    +0.000 A 
ATOM     12  C   UNL     1       0.472   9.012  21.415  0.00  0.00    +0.000 A 
ATOM     13  C   UNL     1       0.938   7.699  21.351  0.00  0.00    +0.000 A 
ATOM     14  C   UNL     1       1.655   7.262  20.230  0.00  0.00    +0.000 A 
ATOM     15  C   UNL     1       1.914   8.154  19.180  0.00  0.00    +0.000 A 
BRANCH  10  17
ATOM     16  C   UNL     1       1.272  11.763  18.628  0.00  0.00    +0.000 C 
ATOM     17  O   UNL     1       1.653  10.434  18.295  0.00  0.00    +0.000 OA
ENDBRANCH  10  17
ENDBRANCH   1  14
BRANCH   7  18
ATOM     18  C   UNL     1       5.830   4.644  18.153  0.00  0.00    +0.000 A 
ATOM     19  C   UNL     1       6.647   5.635  18.715  0.00  0.00    +0.000 A 
ATOM     20  C   UNL     1       7.459   6.437  17.910  0.00  0.00    +0.000 A 
ATOM     21  C   UNL     1       7.485   6.230  16.532  0.00  0.00    +0.000 A 
ATOM     22  C   UNL     1       6.679   5.248  15.951  0.00  0.00    +0.000 A 
ATOM     23  C   UNL     1       5.854   4.467  16.762  0.00  0.00    +0.000 A 
BRANCH  20  24
ATOM     24  O   UNL     1       8.200   7.375  18.575  0.00  0.00    +0.000 OA
ATOM     25  C   UNL     1       8.207   8.673  17.987  0.00  0.00    +0.000 C 
ENDBRANCH  20  24
BRANCH  22  26
ATOM     26  O   UNL     1       6.769   5.154  14.588  0.00  0.00    +0.000 OA
ATOM     27  C   UNL     1       6.028   4.108  13.968  0.00  0.00    +0.000 C 
ENDBRANCH  22  26
ENDBRANCH   7  18
TORSDOF 5
ENDMDL
MODEL 5
REMARK VINA RESULT:      -8.0      0.961      2.850
REMARK  Name = 
REMARK  8 active torsions:
REMARK  status: ('A' for Active; 'I' for Inactive)
REMARK    1  A    between atoms: C_1  and  O_2
REMARK    2  A    between atoms: O_2  and  C_3
REMARK    3  A    between atoms: C_7  and  C_8
REMARK    4  A    between atoms: C_14  and  C_15
REMARK    5  A    between atoms: C_17  and  O_18
REMARK    6  A    between atoms: O_18  and  C_19
REMARK    7  A    between atoms: C_21  and  O_22
REMARK    8  A    between atoms: O_22  and  C_23
REMARK                            x       y       z     vdW  Elec       q    Type
REMARK                         _______ _______ _______ _____ _____    ______ ____
ROOT
ATOM      1  C   UNL     1       2.093   5.874  20.232  0.00  0.00    +0.000 C 
ATOM      2  N   UNL     1       3.304   5.665  19.793  0.00  0.00    +0.000 NA
ATOM      3  N   UNL     1       3.755   4.363  19.794  0.00  0.00    +0.000 N 
ATOM      4  C   UNL     1       3.259   3.285  20.482  0.00  0.00    +0.000 A 
ATOM      5  N   UNL     1       3.946   2.201  20.231  0.00  0.00    +0.000 NA
ATOM      6  N   UNL     1       4.945   2.558  19.358  0.00  0.00    +0.000 NA
ATOM      7  C   UNL     1       4.866   3.862  19.126  0.00  0.00    +0.000 A 
ATOM      8  S   UNL     1       1.908   3.451  21.532  0.00  0.00    +0.000 S 
ATOM      9  C   UNL     1       1.099   4.785  20.627  0.00  0.00    +0.000 C 
ENDROOT
BRANCH   1  14
ATOM     10  C   UNL     1       1.371   9.476  19.227  0.00  0.00    +0.000 A 
ATOM     11  C   UNL     1       0.697   9.930  20.363  0.00  0.00    +0.000 A 
ATOM     12  C   UNL     1       0.476   9.080  21.446  0.00  0.00    +0.000 A 
ATOM     13  C   UNL     1       0.927   7.761  21.395  0.00  0.00    +0.000 A 
ATOM     14  C   UNL     1       1.595   7.291  20.257  0.00  0.00    +0.000 A 
ATOM     15  C   UNL     1       1.819   8.155  19.176  0.00  0.00    +0.000 A 
BRANCH  10  17
ATOM     16  C   UNL     1       1.634  11.774  18.660  0.00  0.00    +0.000 C 
ATOM     17  O   UNL     1       1.543  10.416  18.248  0.00  0.00    +0.000 OA
ENDBRANCH  10  17
ENDBRANCH   1  14
BRANCH   7  18
ATOM     18  C   UNL     1       5.795   4.628  18.289  0.00  0.00    +0.000 A 
ATOM     19  C   UNL     1       5.981   4.266  16.948  0.00  0.00    +0.000 A 
ATOM     20  C   UNL     1       6.911   4.933  16.147  0.00  0.00    +0.000 A 
ATOM     21  C   UNL     1       7.642   5.996  16.677  0.00  0.00    +0.000 A 
ATOM     22  C   UNL     1       7.471   6.374  18.011  0.00  0.00    +0.000 A 
ATOM     23  C   UNL     1       6.555   5.685  18.808  0.00  0.00    +0.000 A 
BRANCH  20  24
ATOM     24  O   UNL     1       7.010   4.479  14.860  0.00  0.00    +0.000 OA
ATOM     25  C   UNL     1       5.770   4.288  14.186  0.00  0.00    +0.000 C 
ENDBRANCH  20  24
BRANCH  22  26
ATOM     26  O   UNL     1       8.261   7.413  18.426  0.00  0.00    +0.000 OA
ATOM     27  C   UNL     1       7.986   8.690  17.862  0.00  0.00    +0.000 C 
ENDBRANCH  22  26
ENDBRANCH   7  18
TORSDOF 5
ENDMDL
MODEL 6
REMARK VINA RESULT:      -7.9      0.411      2.392
REMARK  Name = 
REMARK  8 active torsions:
REMARK  status: ('A' for Active; 'I' for Inactive)
REMARK    1  A    between atoms: C_1  and  O_2
REMARK    2  A    between atoms: O_2  and  C_3
REMARK    3  A    between atoms: C_7  and  C_8
REMARK    4  A    between atoms: C_14  and  C_15
REMARK    5  A    between atoms: C_17  and  O_18
REMARK    6  A    between atoms: O_18  and  C_19
REMARK    7  A    between atoms: C_21  and  O_22
REMARK    8  A    between atoms: O_22  and  C_23
REMARK                            x       y       z     vdW  Elec       q    Type
REMARK                         _______ _______ _______ _____ _____    ______ ____
ROOT
ATOM      1  C   UNL     1       2.120   6.018  20.186  0.00  0.00    +0.000 C 
ATOM      2  N   UNL     1       3.326   5.795  19.744  0.00  0.00    +0.000 NA
ATOM      3  N   UNL     1       3.753   4.485  19.719  0.00  0.00    +0.000 N 
ATOM      4  C   UNL     1       3.235   3.403  20.386  0.00  0.00    +0.000 A 
ATOM      5  N   UNL     1       3.902   2.311  20.115  0.00  0.00    +0.000 NA
ATOM      6  N   UNL     1       4.907   2.666  19.248  0.00  0.00    +0.000 NA
ATOM      7  C   UNL     1       4.854   3.975  19.042  0.00  0.00    +0.000 A 
ATOM      8  S   UNL     1       1.887   3.575  21.439  0.00  0.00    +0.000 S 
ATOM      9  C   UNL     1       1.105   4.942  20.561  0.00  0.00    +0.000 C 
ENDROOT
BRANCH   1  14
ATOM     10  C   UNL     1       0.647   9.301  21.438  0.00  0.00    +0.000 A 
ATOM     11  C   UNL     1       0.741  10.082  20.284  0.00  0.00    +0.000 A 
ATOM     12  C   UNL     1       1.277   9.553  19.109  0.00  0.00    +0.000 A 
ATOM     13  C   UNL     1       1.727   8.234  19.086  0.00  0.00    +0.000 A 
ATOM     14  C   UNL     1       1.649   7.444  20.240  0.00  0.00    +0.000 A 
ATOM     15  C   UNL     1       1.103   7.981  21.413  0.00  0.00    +0.000 A 
BRANCH  10  17
ATOM     16  C   UNL     1      -0.774  11.033  22.243  0.00  0.00    +0.000 C 
ATOM     17  O   UNL     1       0.082   9.930  22.513  0.00  0.00    +0.000 OA
ENDBRANCH  10  17
ENDBRANCH   1  14
BRANCH   7  18
ATOM     18  C   UNL     1       5.797   4.739  18.219  0.00  0.00    +0.000 A 
ATOM     19  C   UNL     1       5.981   4.396  16.873  0.00  0.00    +0.000 A 
ATOM     20  C   UNL     1       6.925   5.059  16.086  0.00  0.00    +0.000 A 
ATOM     21  C   UNL     1       7.671   6.102  16.635  0.00  0.00    +0.000 A 
ATOM     22  C   UNL     1       7.503   6.461  17.974  0.00  0.00    +0.000 A 
ATOM     23  C   UNL     1       6.573   5.775  18.758  0.00  0.00    +0.000 A 
BRANCH  20  24
ATOM     24  O   UNL     1       7.020   4.625  14.792  0.00  0.00    +0.000 OA
ATOM     25  C   UNL     1       5.805   4.149  14.220  0.00  0.00    +0.000 C 
ENDBRANCH  20  24
BRANCH  22  26
ATOM     26  O   UNL     1       8.308   7.479  18.408  0.00  0.00    +0.000 OA
ATOM     27  C   UNL     1       8.032   8.777  17.893  0.00  0.00    +0.000 C 
ENDBRANCH  22  26
ENDBRANCH   7  18
TORSDOF 5
ENDMDL
MODEL 7
REMARK VINA RESULT:      -7.9      1.300      3.019
REMARK  Name = 
REMARK  8 active torsions:
REMARK  status: ('A' for Active; 'I' for Inactive)
REMARK    1  A    between atoms: C_1  and  O_2
REMARK    2  A    between atoms: O_2  and  C_3
REMARK    3  A    between atoms: C_7  and  C_8
REMARK    4  A    between atoms: C_14  and  C_15
REMARK    5  A    between atoms: C_17  and  O_18
REMARK    6  A    between atoms: O_18  and  C_19
REMARK    7  A    between atoms: C_21  and  O_22
REMARK    8  A    between atoms: O_22  and  C_23
REMARK                            x       y       z     vdW  Elec       q    Type
REMARK                         _______ _______ _______ _____ _____    ______ ____
ROOT
ATOM      1  C   UNL     1       2.171   5.913  19.953  0.00  0.00    +0.000 C 
ATOM      2  N   UNL     1       3.231   5.583  19.268  0.00  0.00    +0.000 NA
ATOM      3  N   UNL     1       3.595   4.254  19.275  0.00  0.00    +0.000 N 
ATOM      4  C   UNL     1       3.212   3.266  20.147  0.00  0.00    +0.000 A 
ATOM      5  N   UNL     1       3.758   2.119  19.839  0.00  0.00    +0.000 NA
ATOM      6  N   UNL     1       4.543   2.339  18.733  0.00  0.00    +0.000 NA
ATOM      7  C   UNL     1       4.487   3.626  18.416  0.00  0.00    +0.000 A 
ATOM      8  S   UNL     1       2.156   3.606  21.461  0.00  0.00    +0.000 S 
ATOM      9  C   UNL     1       1.237   4.932  20.657  0.00  0.00    +0.000 C 
ENDROOT
BRANCH   1  14
ATOM     10  C   UNL     1       1.702   9.551  18.930  0.00  0.00    +0.000 A 
ATOM     11  C   UNL     1       1.068  10.059  20.066  0.00  0.00    +0.000 A 
ATOM     12  C   UNL     1       0.793   9.232  21.155  0.00  0.00    +0.000 A 
ATOM     13  C   UNL     1       1.149   7.885  21.110  0.00  0.00    +0.000 A 
ATOM     14  C   UNL     1       1.775   7.362  19.972  0.00  0.00    +0.000 A 
ATOM     15  C   UNL     1       2.054   8.201  18.885  0.00  0.00    +0.000 A 
BRANCH  10  17
ATOM     16  C   UNL     1       1.978  11.839  18.328  0.00  0.00    +0.000 C 
ATOM     17  O   UNL     1       1.934  10.470  17.943  0.00  0.00    +0.000 OA
ENDBRANCH  10  17
ENDBRANCH   1  14
BRANCH   7  18
ATOM     18  C   UNL     1       5.236   4.260  17.326  0.00  0.00    +0.000 A 
ATOM     19  C   UNL     1       5.140   3.746  16.026  0.00  0.00    +0.000 A 
ATOM     20  C   UNL     1       5.897   4.285  14.984  0.00  0.00    +0.000 A 
ATOM     21  C   UNL     1       6.735   5.372  15.230  0.00  0.00    +0.000 A 
ATOM     22  C   UNL     1       6.845   5.901  16.518  0.00  0.00    +0.000 A 
ATOM     23  C   UNL     1       6.102   5.338  17.557  0.00  0.00    +0.000 A 
BRANCH  20  24
ATOM     24  O   UNL     1       5.725   3.690  13.764  0.00  0.00    +0.000 OA
ATOM     25  C   UNL     1       6.743   3.964  12.805  0.00  0.00    +0.000 C 
ENDBRANCH  20  24
BRANCH  22  26
ATOM     26  O   UNL     1       7.718   6.949  16.644  0.00  0.00    +0.000 OA
ATOM     27  C   UNL     1       7.843   7.524  17.940  0.00  0.00    +0.000 C 
ENDBRANCH  22  26
ENDBRANCH   7  18
TORSDOF 5
ENDMDL
MODEL 8
REMARK VINA RESULT:      -7.9      1.341      1.997
REMARK  Name = 
REMARK  8 active torsions:
REMARK  status: ('A' for Active; 'I' for Inactive)
REMARK    1  A    between atoms: C_1  and  O_2
REMARK    2  A    between atoms: O_2  and  C_3
REMARK    3  A    between atoms: C_7  and  C_8
REMARK    4  A    between atoms: C_14  and  C_15
REMARK    5  A    between atoms: C_17  and  O_18
REMARK    6  A    between atoms: O_18  and  C_19
REMARK    7  A    between atoms: C_21  and  O_22
REMARK    8  A    between atoms: O_22  and  C_23
REMARK                            x       y       z     vdW  Elec       q    Type
REMARK                         _______ _______ _______ _____ _____    ______ ____
ROOT
ATOM      1  C   UNL     1       2.209   5.854  19.974  0.00  0.00    +0.000 C 
ATOM      2  N   UNL     1       3.250   5.498  19.273  0.00  0.00    +0.000 NA
ATOM      3  N   UNL     1       3.615   4.170  19.322  0.00  0.00    +0.000 N 
ATOM      4  C   UNL     1       3.257   3.217  20.241  0.00  0.00    +0.000 A 
ATOM      5  N   UNL     1       3.795   2.058  19.962  0.00  0.00    +0.000 NA
ATOM      6  N   UNL     1       4.550   2.235  18.828  0.00  0.00    +0.000 NA
ATOM      7  C   UNL     1       4.484   3.509  18.463  0.00  0.00    +0.000 A 
ATOM      8  S   UNL     1       2.237   3.607  21.569  0.00  0.00    +0.000 S 
ATOM      9  C   UNL     1       1.295   4.901  20.740  0.00  0.00    +0.000 C 
ENDROOT
BRANCH   1  14
ATOM     10  C   UNL     1       1.760   9.465  18.848  0.00  0.00    +0.000 A 
ATOM     11  C   UNL     1       1.103  10.001  19.958  0.00  0.00    +0.000 A 
ATOM     12  C   UNL     1       0.807   9.203  21.063  0.00  0.00    +0.000 A 
ATOM     13  C   UNL     1       1.164   7.855  21.059  0.00  0.00    +0.000 A 
ATOM     14  C   UNL     1       1.812   7.303  19.948  0.00  0.00    +0.000 A 
ATOM     15  C   UNL     1       2.113   8.114  18.845  0.00  0.00    +0.000 A 
BRANCH  10  17
ATOM     16  C   UNL     1       2.165  11.724  18.211  0.00  0.00    +0.000 C 
ATOM     17  O   UNL     1       2.011  10.358  17.843  0.00  0.00    +0.000 OA
ENDBRANCH  10  17
ENDBRANCH   1  14
BRANCH   7  18
ATOM     18  C   UNL     1       5.203   4.100  17.330  0.00  0.00    +0.000 A 
ATOM     19  C   UNL     1       6.220   5.036  17.565  0.00  0.00    +0.000 A 
ATOM     20  C   UNL     1       6.871   5.668  16.504  0.00  0.00    +0.000 A 
ATOM     21  C   UNL     1       6.531   5.342  15.191  0.00  0.00    +0.000 A 
ATOM     22  C   UNL     1       5.521   4.411  14.935  0.00  0.00    +0.000 A 
ATOM     23  C   UNL     1       4.860   3.803  16.004  0.00  0.00    +0.000 A 
BRANCH  20  24
ATOM     24  O   UNL     1       7.837   6.570  16.861  0.00  0.00    +0.000 OA
ATOM     25  C   UNL     1       7.353   7.808  17.373  0.00  0.00    +0.000 C 
ENDBRANCH  20  24
BRANCH  22  26
ATOM     26  O   UNL     1       5.256   4.191  13.610  0.00  0.00    +0.000 OA
ATOM     27  C   UNL     1       6.315   3.648  12.828  0.00  0.00    +0.000 C 
ENDBRANCH  22  26
ENDBRANCH   7  18
TORSDOF 5
ENDMDL
MODEL 9
REMARK VINA RESULT:      -7.7      3.926      6.622
REMARK  Name = 
REMARK  8 active torsions:
REMARK  status: ('A' for Active; 'I' for Inactive)
REMARK    1  A    between atoms: C_1  and  O_2
REMARK    2  A    between atoms: O_2  and  C_3
REMARK    3  A    between atoms: C_7  and  C_8
REMARK    4  A    between atoms: C_14  and  C_15
REMARK    5  A    between atoms: C_17  and  O_18
REMARK    6  A    between atoms: O_18  and  C_19
REMARK    7  A    between atoms: C_21  and  O_22
REMARK    8  A    between atoms: O_22  and  C_23
REMARK                            x       y       z     vdW  Elec       q    Type
REMARK                         _______ _______ _______ _____ _____    ______ ____
ROOT
ATOM      1  C   UNL     1       4.901   4.125  17.077  0.00  0.00    +0.000 C 
ATOM      2  N   UNL     1       4.976   4.066  15.776  0.00  0.00    +0.000 NA
ATOM      3  N   UNL     1       6.110   4.585  15.189  0.00  0.00    +0.000 N 
ATOM      4  C   UNL     1       7.033   5.447  15.725  0.00  0.00    +0.000 A 
ATOM      5  N   UNL     1       7.984   5.720  14.870  0.00  0.00    +0.000 NA
ATOM      6  N   UNL     1       7.690   5.032  13.718  0.00  0.00    +0.000 NA
ATOM      7  C   UNL     1       6.544   4.386  13.885  0.00  0.00    +0.000 A 
ATOM      8  S   UNL     1       6.857   6.050  17.325  0.00  0.00    +0.000 S 
ATOM      9  C   UNL     1       6.013   4.608  18.003  0.00  0.00    +0.000 C 
ENDROOT
BRANCH   1  14
ATOM     10  C   UNL     1       1.806   3.815  19.276  0.00  0.00    +0.000 A 
ATOM     11  C   UNL     1       1.390   2.522  18.955  0.00  0.00    +0.000 A 
ATOM     12  C   UNL     1       2.103   1.754  18.034  0.00  0.00    +0.000 A 
ATOM     13  C   UNL     1       3.240   2.283  17.423  0.00  0.00    +0.000 A 
ATOM     14  C   UNL     1       3.660   3.583  17.729  0.00  0.00    +0.000 A 
ATOM     15  C   UNL     1       2.942   4.345  18.661  0.00  0.00    +0.000 A 
BRANCH  10  17
ATOM     16  C   UNL     1       1.556   5.647  20.779  0.00  0.00    +0.000 C 
ATOM     17  O   UNL     1       1.034   4.452  20.210  0.00  0.00    +0.000 OA
ENDBRANCH  10  17
ENDBRANCH   1  14
BRANCH   7  18
ATOM     18  C   UNL     1       5.869   3.584  12.858  0.00  0.00    +0.000 A 
ATOM     19  C   UNL     1       6.477   2.417  12.378  0.00  0.00    +0.000 A 
ATOM     20  C   UNL     1       5.892   1.673  11.351  0.00  0.00    +0.000 A 
ATOM     21  C   UNL     1       4.668   2.077  10.817  0.00  0.00    +0.000 A 
ATOM     22  C   UNL     1       4.045   3.237  11.282  0.00  0.00    +0.000 A 
ATOM     23  C   UNL     1       4.651   3.985  12.293  0.00  0.00    +0.000 A 
BRANCH  20  24
ATOM     24  O   UNL     1       6.587   0.561  10.960  0.00  0.00    +0.000 OA
ATOM     25  C   UNL     1       5.988  -0.684  11.309  0.00  0.00    +0.000 C 
ENDBRANCH  20  24
BRANCH  22  26
ATOM     26  O   UNL     1       2.862   3.549  10.665  0.00  0.00    +0.000 OA
ATOM     27  C   UNL     1       2.952   4.206   9.406  0.00  0.00    +0.000 C 
ENDBRANCH  22  26
ENDBRANCH   7  18
TORSDOF 5
ENDMDL
