MODEL 1
REMARK VINA RESULT:      -6.6      0.000      0.000
REMARK  Name = 
REMARK  8 active torsions:
REMARK  status: ('A' for Active; 'I' for Inactive)
REMARK    1  A    between atoms: C_1  and  C_2
REMARK    2  A    between atoms: C_4  and  C_5
REMARK    3  A    between atoms: C_6  and  N_7
REMARK    4  A    between atoms: N_7  and  C_8
REMARK    5  A    between atoms: C_9  and  C_10
REMARK    6  A    between atoms: C_12  and  C_13
REMARK    7  A    between atoms: C_15  and  C_16
REMARK    8  A    between atoms: C_17  and  C_18
REMARK                            x       y       z     vdW  Elec       q    Type
REMARK                         _______ _______ _______ _____ _____    ______ ____
ROOT
ATOM      1  N   UNL     1       3.927   4.746  19.128  0.00  0.00    +0.000 N 
ATOM      2  H   UNL     1       4.011   4.027  19.836  0.00  0.00    +0.000 HD
ENDROOT
BRANCH   1   8
ATOM      3  C   UNL     1       0.251   8.829  20.893  0.00  0.00    +0.000 C 
ATOM      4  C   UNL     1       1.219   7.773  20.443  0.00  0.00    +0.000 A 
ATOM      5  C   UNL     1       1.352   6.566  21.122  0.00  0.00    +0.000 A 
ATOM      6  C   UNL     1       2.264   5.587  20.681  0.00  0.00    +0.000 A 
ATOM      7  C   UNL     1       2.320   4.291  21.452  0.00  0.00    +0.000 C 
ATOM      8  C   UNL     1       3.087   5.814  19.538  0.00  0.00    +0.000 A 
ATOM      9  C   UNL     1       2.954   7.051  18.861  0.00  0.00    +0.000 A 
ATOM     10  C   UNL     1       3.753   7.527  17.674  0.00  0.00    +0.000 C 
ATOM     11  C   UNL     1       2.018   8.002  19.327  0.00  0.00    +0.000 A 
ENDBRANCH   1   8
BRANCH   1  12
ATOM     12  C   UNL     1       4.742   4.503  18.009  0.00  0.00    +0.000 A 
ATOM     13  C   UNL     1       6.100   4.929  18.026  0.00  0.00    +0.000 A 
ATOM     14  C   UNL     1       6.800   5.458  19.253  0.00  0.00    +0.000 C 
ATOM     15  C   UNL     1       6.844   4.912  16.838  0.00  0.00    +0.000 A 
ATOM     16  C   UNL     1       6.284   4.464  15.642  0.00  0.00    +0.000 A 
ATOM     17  C   UNL     1       7.036   4.560  14.350  0.00  0.00    +0.000 C 
ATOM     18  C   UNL     1       4.992   3.937  15.655  0.00  0.00    +0.000 A 
ATOM     19  C   UNL     1       4.222   3.923  16.831  0.00  0.00    +0.000 A 
ATOM     20  C   UNL     1       2.865   3.268  16.777  0.00  0.00    +0.000 C 
ENDBRANCH   1  12
TORSDOF 2
ENDMDL
MODEL 2
REMARK VINA RESULT:      -6.6      0.421      6.083
REMARK  Name = 
REMARK  8 active torsions:
REMARK  status: ('A' for Active; 'I' for Inactive)
REMARK    1  A    between atoms: C_1  and  C_2
REMARK    2  A    between atoms: C_4  and  C_5
REMARK    3  A    between atoms: C_6  and  N_7
REMARK    4  A    between atoms: N_7  and  C_8
REMARK    5  A    between atoms: C_9  and  C_10
REMARK    6  A    between atoms: C_12  and  C_13
REMARK    7  A    between atoms: C_15  and  C_16
REMARK    8  A    between atoms: C_17  and  C_18
REMARK                            x       y       z     vdW  Elec       q    Type
REMARK                         _______ _______ _______ _____ _____    ______ ____
ROOT
ATOM      1  N   UNL     1       4.331   5.010  19.081  0.00  0.00    +0.000 N 
ATOM      2  H   UNL     1       4.805   4.543  19.844  0.00  0.00    +0.000 HD
ENDROOT
BRANCH   1   8
ATOM      3  C   UNL     1       6.784   4.027  13.950  0.00  0.00    +0.000 C 
ATOM      4  C   UNL     1       6.151   4.269  15.290  0.00  0.00    +0.000 A 
ATOM      5  C   UNL     1       6.835   4.912  16.316  0.00  0.00    +0.000 A 
ATOM      6  C   UNL     1       6.222   5.132  17.565  0.00  0.00    +0.000 A 
ATOM      7  C   UNL     1       7.020   5.871  18.612  0.00  0.00    +0.000 C 
ATOM      8  C   UNL     1       4.891   4.685  17.817  0.00  0.00    +0.000 A 
ATOM      9  C   UNL     1       4.207   4.019  16.770  0.00  0.00    +0.000 A 
ATOM     10  C   UNL     1       2.826   3.416  16.828  0.00  0.00    +0.000 C 
ATOM     11  C   UNL     1       4.852   3.829  15.528  0.00  0.00    +0.000 A 
ENDBRANCH   1   8
BRANCH   1  12
ATOM     12  C   UNL     1       3.216   5.751  19.506  0.00  0.00    +0.000 A 
ATOM     13  C   UNL     1       2.950   7.018  18.915  0.00  0.00    +0.000 A 
ATOM     14  C   UNL     1       3.675   7.548  17.703  0.00  0.00    +0.000 C 
ATOM     15  C   UNL     1       1.994   7.864  19.495  0.00  0.00    +0.000 A 
ATOM     16  C   UNL     1       1.284   7.478  20.631  0.00  0.00    +0.000 A 
ATOM     17  C   UNL     1       0.354   8.428  21.323  0.00  0.00    +0.000 C 
ATOM     18  C   UNL     1       1.463   6.191  21.137  0.00  0.00    +0.000 A 
ATOM     19  C   UNL     1       2.401   5.309  20.572  0.00  0.00    +0.000 A 
ATOM     20  C   UNL     1       2.479   3.910  21.131  0.00  0.00    +0.000 C 
ENDBRANCH   1  12
TORSDOF 2
ENDMDL
MODEL 3
REMARK VINA RESULT:      -6.5      0.688      5.983
REMARK  Name = 
REMARK  8 active torsions:
REMARK  status: ('A' for Active; 'I' for Inactive)
REMARK    1  A    between atoms: C_1  and  C_2
REMARK    2  A    between atoms: C_4  and  C_5
REMARK    3  A    between atoms: C_6  and  N_7
REMARK    4  A    between atoms: N_7  and  C_8
REMARK    5  A    between atoms: C_9  and  C_10
REMARK    6  A    between atoms: C_12  and  C_13
REMARK    7  A    between atoms: C_15  and  C_16
REMARK    8  A    between atoms: C_17  and  C_18
REMARK                            x       y       z     vdW  Elec       q    Type
REMARK                         _______ _______ _______ _____ _____    ______ ____
ROOT
ATOM      1  N   UNL     1       4.424   5.183  18.893  0.00  0.00    +0.000 N 
ATOM      2  H   UNL     1       4.904   4.666  19.619  0.00  0.00    +0.000 HD
ENDROOT
BRANCH   1   8
ATOM      3  C   UNL     1       6.658   4.019  13.701  0.00  0.00    +0.000 C 
ATOM      4  C   UNL     1       6.069   4.334  15.045  0.00  0.00    +0.000 A 
ATOM      5  C   UNL     1       4.837   3.825  15.442  0.00  0.00    +0.000 A 
ATOM      6  C   UNL     1       4.304   4.131  16.710  0.00  0.00    +0.000 A 
ATOM      7  C   UNL     1       2.979   3.509  17.077  0.00  0.00    +0.000 C 
ATOM      8  C   UNL     1       5.005   4.985  17.613  0.00  0.00    +0.000 A 
ATOM      9  C   UNL     1       6.253   5.509  17.195  0.00  0.00    +0.000 A 
ATOM     10  C   UNL     1       7.135   6.468  17.955  0.00  0.00    +0.000 C 
ATOM     11  C   UNL     1       6.759   5.168  15.920  0.00  0.00    +0.000 A 
ENDBRANCH   1   8
BRANCH   1  12
ATOM     12  C   UNL     1       3.283   5.853  19.367  0.00  0.00    +0.000 A 
ATOM     13  C   UNL     1       2.949   7.130  18.835  0.00  0.00    +0.000 A 
ATOM     14  C   UNL     1       3.629   7.746  17.638  0.00  0.00    +0.000 C 
ATOM     15  C   UNL     1       1.965   7.905  19.466  0.00  0.00    +0.000 A 
ATOM     16  C   UNL     1       1.292   7.437  20.594  0.00  0.00    +0.000 A 
ATOM     17  C   UNL     1       0.331   8.311  21.341  0.00  0.00    +0.000 C 
ATOM     18  C   UNL     1       1.539   6.139  21.041  0.00  0.00    +0.000 A 
ATOM     19  C   UNL     1       2.506   5.327  20.423  0.00  0.00    +0.000 A 
ATOM     20  C   UNL     1       2.658   3.911  20.919  0.00  0.00    +0.000 C 
ENDBRANCH   1  12
TORSDOF 2
ENDMDL
MODEL 4
REMARK VINA RESULT:      -6.3      2.211      5.913
REMARK  Name = 
REMARK  8 active torsions:
REMARK  status: ('A' for Active; 'I' for Inactive)
REMARK    1  A    between atoms: C_1  and  C_2
REMARK    2  A    between atoms: C_4  and  C_5
REMARK    3  A    between atoms: C_6  and  N_7
REMARK    4  A    between atoms: N_7  and  C_8
REMARK    5  A    between atoms: C_9  and  C_10
REMARK    6  A    between atoms: C_12  and  C_13
REMARK    7  A    between atoms: C_15  and  C_16
REMARK    8  A    between atoms: C_17  and  C_18
REMARK                            x       y       z     vdW  Elec       q    Type
REMARK                         _______ _______ _______ _____ _____    ______ ____
ROOT
ATOM      1  N   UNL     1       3.008   6.714  20.083  0.00  0.00    +0.000 N 
ATOM      2  H   UNL     1       3.554   6.959  20.900  0.00  0.00    +0.000 HD
ENDROOT
BRANCH   1   8
ATOM      3  C   UNL     1       3.651   1.208  18.478  0.00  0.00    +0.000 C 
ATOM      4  C   UNL     1       3.488   2.636  18.910  0.00  0.00    +0.000 A 
ATOM      5  C   UNL     1       4.545   3.540  18.864  0.00  0.00    +0.000 A 
ATOM      6  C   UNL     1       4.369   4.877  19.272  0.00  0.00    +0.000 A 
ATOM      7  C   UNL     1       5.557   5.802  19.156  0.00  0.00    +0.000 C 
ATOM      8  C   UNL     1       3.109   5.335  19.759  0.00  0.00    +0.000 A 
ATOM      9  C   UNL     1       2.042   4.405  19.814  0.00  0.00    +0.000 A 
ATOM     10  C   UNL     1       0.651   4.650  20.341  0.00  0.00    +0.000 C 
ATOM     11  C   UNL     1       2.255   3.076  19.384  0.00  0.00    +0.000 A 
ENDBRANCH   1   8
BRANCH   1  12
ATOM     12  C   UNL     1       2.252   7.791  19.591  0.00  0.00    +0.000 A 
ATOM     13  C   UNL     1       1.374   8.488  20.467  0.00  0.00    +0.000 A 
ATOM     14  C   UNL     1       1.337   8.280  21.961  0.00  0.00    +0.000 C 
ATOM     15  C   UNL     1       0.445   9.395  19.937  0.00  0.00    +0.000 A 
ATOM     16  C   UNL     1       0.380   9.643  18.566  0.00  0.00    +0.000 A 
ATOM     17  C   UNL     1      -0.690  10.516  17.986  0.00  0.00    +0.000 C 
ATOM     18  C   UNL     1       1.320   9.047  17.725  0.00  0.00    +0.000 A 
ATOM     19  C   UNL     1       2.276   8.145  18.224  0.00  0.00    +0.000 A 
ATOM     20  C   UNL     1       3.304   7.604  17.261  0.00  0.00    +0.000 C 
ENDBRANCH   1  12
TORSDOF 2
ENDMDL
MODEL 5
REMARK VINA RESULT:      -6.3      1.395      3.054
REMARK  Name = 
REMARK  8 active torsions:
REMARK  status: ('A' for Active; 'I' for Inactive)
REMARK    1  A    between atoms: C_1  and  C_2
REMARK    2  A    between atoms: C_4  and  C_5
REMARK    3  A    between atoms: C_6  and  N_7
REMARK    4  A    between atoms: N_7  and  C_8
REMARK    5  A    between atoms: C_9  and  C_10
REMARK    6  A    between atoms: C_12  and  C_13
REMARK    7  A    between atoms: C_15  and  C_16
REMARK    8  A    between atoms: C_17  and  C_18
REMARK                            x       y       z     vdW  Elec       q    Type
REMARK                         _______ _______ _______ _____ _____    ______ ____
ROOT
ATOM      1  N   UNL     1       4.664   5.059  18.946  0.00  0.00    +0.000 N 
ATOM      2  H   UNL     1       4.821   6.000  19.286  0.00  0.00    +0.000 HD
ENDROOT
BRANCH   1   8
ATOM      3  C   UNL     1       0.882   2.441  22.429  0.00  0.00    +0.000 C 
ATOM      4  C   UNL     1       1.857   3.117  21.510  0.00  0.00    +0.000 A 
ATOM      5  C   UNL     1       1.676   4.430  21.088  0.00  0.00    +0.000 A 
ATOM      6  C   UNL     1       2.605   5.047  20.229  0.00  0.00    +0.000 A 
ATOM      7  C   UNL     1       2.354   6.486  19.848  0.00  0.00    +0.000 C 
ATOM      8  C   UNL     1       3.747   4.337  19.753  0.00  0.00    +0.000 A 
ATOM      9  C   UNL     1       3.917   2.996  20.178  0.00  0.00    +0.000 A 
ATOM     10  C   UNL     1       5.010   2.044  19.762  0.00  0.00    +0.000 C 
ATOM     11  C   UNL     1       2.969   2.417  21.051  0.00  0.00    +0.000 A 
ENDBRANCH   1   8
BRANCH   1  12
ATOM     12  C   UNL     1       5.327   4.804  17.733  0.00  0.00    +0.000 A 
ATOM     13  C   UNL     1       6.700   5.152  17.599  0.00  0.00    +0.000 A 
ATOM     14  C   UNL     1       7.568   5.605  18.746  0.00  0.00    +0.000 C 
ATOM     15  C   UNL     1       7.298   5.127  16.331  0.00  0.00    +0.000 A 
ATOM     16  C   UNL     1       6.576   4.746  15.200  0.00  0.00    +0.000 A 
ATOM     17  C   UNL     1       7.177   4.837  13.830  0.00  0.00    +0.000 C 
ATOM     18  C   UNL     1       5.266   4.293  15.354  0.00  0.00    +0.000 A 
ATOM     19  C   UNL     1       4.639   4.289  16.612  0.00  0.00    +0.000 A 
ATOM     20  C   UNL     1       3.248   3.712  16.704  0.00  0.00    +0.000 C 
ENDBRANCH   1  12
TORSDOF 2
ENDMDL
MODEL 6
REMARK VINA RESULT:      -6.3      2.142      3.278
REMARK  Name = 
REMARK  8 active torsions:
REMARK  status: ('A' for Active; 'I' for Inactive)
REMARK    1  A    between atoms: C_1  and  C_2
REMARK    2  A    between atoms: C_4  and  C_5
REMARK    3  A    between atoms: C_6  and  N_7
REMARK    4  A    between atoms: N_7  and  C_8
REMARK    5  A    between atoms: C_9  and  C_10
REMARK    6  A    between atoms: C_12  and  C_13
REMARK    7  A    between atoms: C_15  and  C_16
REMARK    8  A    between atoms: C_17  and  C_18
REMARK                            x       y       z     vdW  Elec       q    Type
REMARK                         _______ _______ _______ _____ _____    ______ ____
ROOT
ATOM      1  N   UNL     1       2.973   6.628  20.140  0.00  0.00    +0.000 N 
ATOM      2  H   UNL     1       3.529   6.914  20.937  0.00  0.00    +0.000 HD
ENDROOT
BRANCH   1   8
ATOM      3  C   UNL     1      -0.270  10.916  18.044  0.00  0.00    +0.000 C 
ATOM      4  C   UNL     1       0.585   9.811  18.593  0.00  0.00    +0.000 A 
ATOM      5  C   UNL     1       0.535   9.444  19.933  0.00  0.00    +0.000 A 
ATOM      6  C   UNL     1       1.343   8.402  20.427  0.00  0.00    +0.000 A 
ATOM      7  C   UNL     1       1.201   8.041  21.886  0.00  0.00    +0.000 C 
ATOM      8  C   UNL     1       2.248   7.707  19.570  0.00  0.00    +0.000 A 
ATOM      9  C   UNL     1       2.302   8.096  18.209  0.00  0.00    +0.000 A 
ATOM     10  C   UNL     1       3.216   7.545  17.143  0.00  0.00    +0.000 C 
ATOM     11  C   UNL     1       1.465   9.138  17.750  0.00  0.00    +0.000 A 
ENDBRANCH   1   8
BRANCH   1  12
ATOM     12  C   UNL     1       3.171   5.280  19.796  0.00  0.00    +0.000 A 
ATOM     13  C   UNL     1       4.435   4.865  19.291  0.00  0.00    +0.000 A 
ATOM     14  C   UNL     1       5.665   5.739  19.280  0.00  0.00    +0.000 C 
ATOM     15  C   UNL     1       4.567   3.590  18.722  0.00  0.00    +0.000 A 
ATOM     16  C   UNL     1       3.485   2.712  18.660  0.00  0.00    +0.000 A 
ATOM     17  C   UNL     1       3.591   1.401  17.944  0.00  0.00    +0.000 C 
ATOM     18  C   UNL     1       2.281   3.078  19.262  0.00  0.00    +0.000 A 
ATOM     19  C   UNL     1       2.117   4.342  19.856  0.00  0.00    +0.000 A 
ATOM     20  C   UNL     1       0.810   4.630  20.551  0.00  0.00    +0.000 C 
ENDBRANCH   1  12
TORSDOF 2
ENDMDL
MODEL 7
REMARK VINA RESULT:      -6.2      2.194      5.921
REMARK  Name = 
REMARK  8 active torsions:
REMARK  status: ('A' for Active; 'I' for Inactive)
REMARK    1  A    between atoms: C_1  and  C_2
REMARK    2  A    between atoms: C_4  and  C_5
REMARK    3  A    between atoms: C_6  and  N_7
REMARK    4  A    between atoms: N_7  and  C_8
REMARK    5  A    between atoms: C_9  and  C_10
REMARK    6  A    between atoms: C_12  and  C_13
REMARK    7  A    between atoms: C_15  and  C_16
REMARK    8  A    between atoms: C_17  and  C_18
REMARK                            x       y       z     vdW  Elec       q    Type
REMARK                         _______ _______ _______ _____ _____    ______ ____
ROOT
ATOM      1  N   UNL     1       3.051   6.537  20.081  0.00  0.00    +0.000 N 
ATOM      2  H   UNL     1       3.598   6.791  20.895  0.00  0.00    +0.000 HD
ENDROOT
BRANCH   1   8
ATOM      3  C   UNL     1       3.795   1.046  18.471  0.00  0.00    +0.000 C 
ATOM      4  C   UNL     1       3.605   2.470  18.905  0.00  0.00    +0.000 A 
ATOM      5  C   UNL     1       4.654   3.384  18.893  0.00  0.00    +0.000 A 
ATOM      6  C   UNL     1       4.454   4.717  19.301  0.00  0.00    +0.000 A 
ATOM      7  C   UNL     1       5.635   5.654  19.224  0.00  0.00    +0.000 C 
ATOM      8  C   UNL     1       3.176   5.161  19.754  0.00  0.00    +0.000 A 
ATOM      9  C   UNL     1       2.117   4.220  19.774  0.00  0.00    +0.000 A 
ATOM     10  C   UNL     1       0.708   4.449  20.262  0.00  0.00    +0.000 C 
ATOM     11  C   UNL     1       2.355   2.895  19.345  0.00  0.00    +0.000 A 
ENDBRANCH   1   8
BRANCH   1  12
ATOM     12  C   UNL     1       2.273   7.601  19.596  0.00  0.00    +0.000 A 
ATOM     13  C   UNL     1       2.489   8.082  18.274  0.00  0.00    +0.000 A 
ATOM     14  C   UNL     1       3.375   7.395  17.265  0.00  0.00    +0.000 C 
ATOM     15  C   UNL     1       1.895   9.287  17.871  0.00  0.00    +0.000 A 
ATOM     16  C   UNL     1       1.077  10.013  18.737  0.00  0.00    +0.000 A 
ATOM     17  C   UNL     1       0.543  11.358  18.351  0.00  0.00    +0.000 C 
ATOM     18  C   UNL     1       0.773   9.478  19.989  0.00  0.00    +0.000 A 
ATOM     19  C   UNL     1       1.337   8.266  20.421  0.00  0.00    +0.000 A 
ATOM     20  C   UNL     1       0.898   7.720  21.756  0.00  0.00    +0.000 C 
ENDBRANCH   1  12
TORSDOF 2
ENDMDL
MODEL 8
REMARK VINA RESULT:      -6.2      1.505      6.088
REMARK  Name = 
REMARK  8 active torsions:
REMARK  status: ('A' for Active; 'I' for Inactive)
REMARK    1  A    between atoms: C_1  and  C_2
REMARK    2  A    between atoms: C_4  and  C_5
REMARK    3  A    between atoms: C_6  and  N_7
REMARK    4  A    between atoms: N_7  and  C_8
REMARK    5  A    between atoms: C_9  and  C_10
REMARK    6  A    between atoms: C_12  and  C_13
REMARK    7  A    between atoms: C_15  and  C_16
REMARK    8  A    between atoms: C_17  and  C_18
REMARK                            x       y       z     vdW  Elec       q    Type
REMARK                         _______ _______ _______ _____ _____    ______ ____
ROOT
ATOM      1  N   UNL     1       5.031   4.553  19.123  0.00  0.00    +0.000 N 
ATOM      2  H   UNL     1       5.678   5.002  19.759  0.00  0.00    +0.000 HD
ENDROOT
BRANCH   1   8
ATOM      3  C   UNL     1       7.112   4.887  13.752  0.00  0.00    +0.000 C 
ATOM      4  C   UNL     1       6.577   4.785  15.150  0.00  0.00    +0.000 A 
ATOM      5  C   UNL     1       7.332   5.170  16.253  0.00  0.00    +0.000 A 
ATOM      6  C   UNL     1       6.810   5.070  17.557  0.00  0.00    +0.000 A 
ATOM      7  C   UNL     1       7.681   5.543  18.695  0.00  0.00    +0.000 C 
ATOM      8  C   UNL     1       5.499   4.554  17.783  0.00  0.00    +0.000 A 
ATOM      9  C   UNL     1       4.741   4.153  16.655  0.00  0.00    +0.000 A 
ATOM     10  C   UNL     1       3.366   3.533  16.660  0.00  0.00    +0.000 C 
ATOM     11  C   UNL     1       5.297   4.282  15.362  0.00  0.00    +0.000 A 
ENDBRANCH   1   8
BRANCH   1  12
ATOM     12  C   UNL     1       3.926   3.989  19.783  0.00  0.00    +0.000 A 
ATOM     13  C   UNL     1       2.817   4.814  20.123  0.00  0.00    +0.000 A 
ATOM     14  C   UNL     1       2.650   6.235  19.645  0.00  0.00    +0.000 C 
ATOM     15  C   UNL     1       1.828   4.322  20.987  0.00  0.00    +0.000 A 
ATOM     16  C   UNL     1       1.901   3.028  21.504  0.00  0.00    +0.000 A 
ATOM     17  C   UNL     1       0.914   2.544  22.522  0.00  0.00    +0.000 C 
ATOM     18  C   UNL     1       2.926   2.184  21.075  0.00  0.00    +0.000 A 
ATOM     19  C   UNL     1       3.925   2.638  20.197  0.00  0.00    +0.000 A 
ATOM     20  C   UNL     1       4.953   1.641  19.724  0.00  0.00    +0.000 C 
ENDBRANCH   1  12
TORSDOF 2
ENDMDL
MODEL 9
REMARK VINA RESULT:      -6.2      2.182      5.755
REMARK  Name = 
REMARK  8 active torsions:
REMARK  status: ('A' for Active; 'I' for Inactive)
REMARK    1  A    between atoms: C_1  and  C_2
REMARK    2  A    between atoms: C_4  and  C_5
REMARK    3  A    between atoms: C_6  and  N_7
REMARK    4  A    between atoms: N_7  and  C_8
REMARK    5  A    between atoms: C_9  and  C_10
REMARK    6  A    between atoms: C_12  and  C_13
REMARK    7  A    between atoms: C_15  and  C_16
REMARK    8  A    between atoms: C_17  and  C_18
REMARK                            x       y       z     vdW  Elec       q    Type
REMARK                         _______ _______ _______ _____ _____    ______ ____
ROOT
ATOM      1  N   UNL     1       2.884   6.722  20.180  0.00  0.00    +0.000 N 
ATOM      2  H   UNL     1       3.239   6.880  21.115  0.00  0.00    +0.000 HD
ENDROOT
BRANCH   1   8
ATOM      3  C   UNL     1       3.699   1.235  18.590  0.00  0.00    +0.000 C 
ATOM      4  C   UNL     1       3.482   2.666  18.989  0.00  0.00    +0.000 A 
ATOM      5  C   UNL     1       2.248   3.121  19.441  0.00  0.00    +0.000 A 
ATOM      6  C   UNL     1       2.067   4.467  19.814  0.00  0.00    +0.000 A 
ATOM      7  C   UNL     1       0.707   4.871  20.329  0.00  0.00    +0.000 C 
ATOM      8  C   UNL     1       3.139   5.403  19.720  0.00  0.00    +0.000 A 
ATOM      9  C   UNL     1       4.389   4.934  19.246  0.00  0.00    +0.000 A 
ATOM     10  C   UNL     1       5.636   5.750  19.014  0.00  0.00    +0.000 C 
ATOM     11  C   UNL     1       4.533   3.573  18.895  0.00  0.00    +0.000 A 
ENDBRANCH   1   8
BRANCH   1  12
ATOM     12  C   UNL     1       2.171   7.823  19.677  0.00  0.00    +0.000 A 
ATOM     13  C   UNL     1       1.295   8.543  20.537  0.00  0.00    +0.000 A 
ATOM     14  C   UNL     1       1.221   8.332  22.029  0.00  0.00    +0.000 C 
ATOM     15  C   UNL     1       0.405   9.479  19.991  0.00  0.00    +0.000 A 
ATOM     16  C   UNL     1       0.377   9.733  18.619  0.00  0.00    +0.000 A 
ATOM     17  C   UNL     1      -0.655  10.639  18.021  0.00  0.00    +0.000 C 
ATOM     18  C   UNL     1       1.316   9.112  17.796  0.00  0.00    +0.000 A 
ATOM     19  C   UNL     1       2.234   8.180  18.311  0.00  0.00    +0.000 A 
ATOM     20  C   UNL     1       3.265   7.612  17.368  0.00  0.00    +0.000 C 
ENDBRANCH   1  12
TORSDOF 2
ENDMDL
