MODEL 1
REMARK VINA RESULT:      -7.0      0.000      0.000
REMARK  Name = 
REMARK  6 active torsions:
REMARK  status: ('A' for Active; 'I' for Inactive)
REMARK    1  A    between atoms: C_1  and  O_2
REMARK    2  A    between atoms: O_2  and  C_3
REMARK    3  A    between atoms: C_6  and  C_7
REMARK    4  A    between atoms: C_10  and  C_12
REMARK    5  A    between atoms: C_12  and  C_13
REMARK    6  A    between atoms: N_16  and  C_17
REMARK                            x       y       z     vdW  Elec       q    Type
REMARK                         _______ _______ _______ _____ _____    ______ ____
ROOT
ATOM      1  C   UNL     1       7.884   7.977  17.581  0.00  0.00    +0.000 C 
ATOM      2  C   UNL     1       7.989   6.786  18.563  0.00  0.00    +0.000 C 
ATOM      3  N   UNL     1       6.704   6.368  18.034  0.00  0.00    +0.000 N 
ATOM      4  C   UNL     1       6.165   5.121  18.007  0.00  0.00    +0.000 C 
ATOM      5  O   UNL     1       6.763   4.158  18.487  0.00  0.00    +0.000 OA
ATOM      6  C   UNL     1       6.357   7.681  17.535  0.00  0.00    +0.000 C 
ENDROOT
BRANCH   1  10
ATOM      7  C   UNL     1       9.304  11.912  19.055  0.00  0.00    +0.000 A 
ATOM      8  C   UNL     1       9.562  10.753  19.779  0.00  0.00    +0.000 A 
ATOM      9  C   UNL     1       9.136   9.508  19.299  0.00  0.00    +0.000 A 
ATOM     10  C   UNL     1       8.416   9.381  18.094  0.00  0.00    +0.000 A 
ATOM     11  C   UNL     1       8.151  10.579  17.403  0.00  0.00    +0.000 A 
ATOM     12  C   UNL     1       8.581  11.824  17.870  0.00  0.00    +0.000 A 
BRANCH   7  14
ATOM     13  C   UNL     1      10.971  12.941  20.359  0.00  0.00    +0.000 C 
ATOM     14  O   UNL     1       9.772  13.074  19.602  0.00  0.00    +0.000 OA
ENDBRANCH   7  14
ENDBRANCH   1  10
BRANCH   4  15
ATOM     15  C   UNL     1       4.791   4.989  17.377  0.00  0.00    +0.000 C 
BRANCH  15  16
ATOM     16  C   UNL     1       3.929   3.923  18.073  0.00  0.00    +0.000 C 
ATOM     17  C   UNL     1       2.525   3.812  17.467  0.00  0.00    +0.000 C 
ATOM     18  C   UNL     1       1.564   3.583  18.632  0.00  0.00    +0.000 C 
ATOM     19  N   UNL     1       2.417   3.454  19.827  0.00  0.00    +0.000 N 
ATOM     20  C   UNL     1       3.683   4.174  19.562  0.00  0.00    +0.000 C 
BRANCH  19  21
ATOM     21  C   UNL     1       2.020   2.994  21.019  0.00  0.00    +0.000 C 
ATOM     22  N   UNL     1       1.663   2.594  22.042  0.00  0.00    +0.000 NA
ENDBRANCH  19  21
ENDBRANCH  15  16
ENDBRANCH   4  15
TORSDOF 5
ENDMDL
MODEL 2
REMARK VINA RESULT:      -6.8      5.067      6.849
REMARK  Name = 
REMARK  6 active torsions:
REMARK  status: ('A' for Active; 'I' for Inactive)
REMARK    1  A    between atoms: C_1  and  O_2
REMARK    2  A    between atoms: O_2  and  C_3
REMARK    3  A    between atoms: C_6  and  C_7
REMARK    4  A    between atoms: C_10  and  C_12
REMARK    5  A    between atoms: C_12  and  C_13
REMARK    6  A    between atoms: N_16  and  C_17
REMARK                            x       y       z     vdW  Elec       q    Type
REMARK                         _______ _______ _______ _____ _____    ______ ____
ROOT
ATOM      1  C   UNL     1       2.385   6.661  19.923  0.00  0.00    +0.000 C 
ATOM      2  C   UNL     1       1.703   5.421  20.549  0.00  0.00    +0.000 C 
ATOM      3  N   UNL     1       2.079   4.726  19.331  0.00  0.00    +0.000 N 
ATOM      4  C   UNL     1       2.270   3.394  19.141  0.00  0.00    +0.000 C 
ATOM      5  O   UNL     1       2.110   2.590  20.058  0.00  0.00    +0.000 OA
ATOM      6  C   UNL     1       2.229   5.937  18.555  0.00  0.00    +0.000 C 
ENDROOT
BRANCH   1  10
ATOM      7  C   UNL     1       0.376  10.555  20.609  0.00  0.00    +0.000 A 
ATOM      8  C   UNL     1       0.555   9.659  21.659  0.00  0.00    +0.000 A 
ATOM      9  C   UNL     1       1.214   8.442  21.446  0.00  0.00    +0.000 A 
ATOM     10  C   UNL     1       1.691   8.066  20.175  0.00  0.00    +0.000 A 
ATOM     11  C   UNL     1       1.468   8.985  19.133  0.00  0.00    +0.000 A 
ATOM     12  C   UNL     1       0.820  10.207  19.338  0.00  0.00    +0.000 A 
BRANCH   7  14
ATOM     13  C   UNL     1      -0.415  12.634  19.841  0.00  0.00    +0.000 C 
ATOM     14  O   UNL     1      -0.267  11.720  20.923  0.00  0.00    +0.000 OA
ENDBRANCH   7  14
ENDBRANCH   1  10
BRANCH   4  15
ATOM     15  C   UNL     1       2.671   2.959  17.743  0.00  0.00    +0.000 C 
BRANCH  15  16
ATOM     16  C   UNL     1       4.182   3.096  17.500  0.00  0.00    +0.000 C 
ATOM     17  C   UNL     1       4.928   3.647  18.721  0.00  0.00    +0.000 C 
ATOM     18  C   UNL     1       6.003   4.593  18.185  0.00  0.00    +0.000 C 
ATOM     19  N   UNL     1       5.930   4.478  16.717  0.00  0.00    +0.000 N 
ATOM     20  C   UNL     1       4.562   4.044  16.361  0.00  0.00    +0.000 C 
BRANCH  19  21
ATOM     21  C   UNL     1       6.851   4.931  15.858  0.00  0.00    +0.000 C 
ATOM     22  N   UNL     1       7.645   5.306  15.108  0.00  0.00    +0.000 NA
ENDBRANCH  19  21
ENDBRANCH  15  16
ENDBRANCH   4  15
TORSDOF 5
ENDMDL
MODEL 3
REMARK VINA RESULT:      -6.8      4.996      6.911
REMARK  Name = 
REMARK  6 active torsions:
REMARK  status: ('A' for Active; 'I' for Inactive)
REMARK    1  A    between atoms: C_1  and  O_2
REMARK    2  A    between atoms: O_2  and  C_3
REMARK    3  A    between atoms: C_6  and  C_7
REMARK    4  A    between atoms: C_10  and  C_12
REMARK    5  A    between atoms: C_12  and  C_13
REMARK    6  A    between atoms: N_16  and  C_17
REMARK                            x       y       z     vdW  Elec       q    Type
REMARK                         _______ _______ _______ _____ _____    ______ ____
ROOT
ATOM      1  C   UNL     1       2.405   6.962  19.589  0.00  0.00    +0.000 C 
ATOM      2  C   UNL     1       1.822   5.786  20.407  0.00  0.00    +0.000 C 
ATOM      3  N   UNL     1       2.187   4.951  19.277  0.00  0.00    +0.000 N 
ATOM      4  C   UNL     1       2.447   3.618  19.258  0.00  0.00    +0.000 C 
ATOM      5  O   UNL     1       2.370   2.940  20.282  0.00  0.00    +0.000 OA
ATOM      6  C   UNL     1       2.235   6.052  18.339  0.00  0.00    +0.000 C 
ENDROOT
BRANCH   1  10
ATOM      7  C   UNL     1       0.342  10.878  19.876  0.00  0.00    +0.000 A 
ATOM      8  C   UNL     1       0.931  10.478  18.681  0.00  0.00    +0.000 A 
ATOM      9  C   UNL     1       1.558   9.229  18.584  0.00  0.00    +0.000 A 
ATOM     10  C   UNL     1       1.642   8.351  19.683  0.00  0.00    +0.000 A 
ATOM     11  C   UNL     1       1.059   8.802  20.882  0.00  0.00    +0.000 A 
ATOM     12  C   UNL     1       0.422  10.042  20.985  0.00  0.00    +0.000 A 
BRANCH   7  14
ATOM     13  C   UNL     1      -1.271  12.272  18.879  0.00  0.00    +0.000 C 
ATOM     14  O   UNL     1      -0.256  12.108  19.864  0.00  0.00    +0.000 OA
ENDBRANCH   7  14
ENDBRANCH   1  10
BRANCH   4  15
ATOM     15  C   UNL     1       2.814   3.017  17.914  0.00  0.00    +0.000 C 
BRANCH  15  16
ATOM     16  C   UNL     1       4.310   3.163  17.599  0.00  0.00    +0.000 C 
ATOM     17  C   UNL     1       5.098   3.791  18.755  0.00  0.00    +0.000 C 
ATOM     18  C   UNL     1       6.133   4.721  18.124  0.00  0.00    +0.000 C 
ATOM     19  N   UNL     1       6.000   4.527  16.669  0.00  0.00    +0.000 N 
ATOM     20  C   UNL     1       4.626   4.054  16.395  0.00  0.00    +0.000 C 
BRANCH  19  21
ATOM     21  C   UNL     1       6.875   4.946  15.747  0.00  0.00    +0.000 C 
ATOM     22  N   UNL     1       7.641   5.311  14.963  0.00  0.00    +0.000 NA
ENDBRANCH  19  21
ENDBRANCH  15  16
ENDBRANCH   4  15
TORSDOF 5
ENDMDL
MODEL 4
REMARK VINA RESULT:      -6.6      6.281      8.352
REMARK  Name = 
REMARK  6 active torsions:
REMARK  status: ('A' for Active; 'I' for Inactive)
REMARK    1  A    between atoms: C_1  and  O_2
REMARK    2  A    between atoms: O_2  and  C_3
REMARK    3  A    between atoms: C_6  and  C_7
REMARK    4  A    between atoms: C_10  and  C_12
REMARK    5  A    between atoms: C_12  and  C_13
REMARK    6  A    between atoms: N_16  and  C_17
REMARK                            x       y       z     vdW  Elec       q    Type
REMARK                         _______ _______ _______ _____ _____    ______ ____
ROOT
ATOM      1  C   UNL     1       2.226   6.801  18.280  0.00  0.00    +0.000 C 
ATOM      2  C   UNL     1       2.360   6.995  19.810  0.00  0.00    +0.000 C 
ATOM      3  N   UNL     1       1.831   8.328  19.585  0.00  0.00    +0.000 N 
ATOM      4  C   UNL     1       1.173   9.136  20.458  0.00  0.00    +0.000 C 
ATOM      5  O   UNL     1       0.968   8.785  21.619  0.00  0.00    +0.000 OA
ATOM      6  C   UNL     1       2.189   8.354  18.183  0.00  0.00    +0.000 C 
ENDROOT
BRANCH   1  10
ATOM      7  C   UNL     1       5.387   4.495  16.191  0.00  0.00    +0.000 A 
ATOM      8  C   UNL     1       5.411   5.886  16.190  0.00  0.00    +0.000 A 
ATOM      9  C   UNL     1       4.428   6.613  16.873  0.00  0.00    +0.000 A 
ATOM     10  C   UNL     1       3.373   5.976  17.557  0.00  0.00    +0.000 A 
ATOM     11  C   UNL     1       3.366   4.569  17.513  0.00  0.00    +0.000 A 
ATOM     12  C   UNL     1       4.349   3.836  16.843  0.00  0.00    +0.000 A 
BRANCH   7  14
ATOM     13  C   UNL     1       7.113   4.721  14.608  0.00  0.00    +0.000 C 
ATOM     14  O   UNL     1       6.398   3.880  15.508  0.00  0.00    +0.000 OA
ENDBRANCH   7  14
ENDBRANCH   1  10
BRANCH   4  15
ATOM     15  C   UNL     1       0.729  10.487  19.929  0.00  0.00    +0.000 C 
BRANCH  15  16
ATOM     16  C   UNL     1      -0.795  10.574  19.756  0.00  0.00    +0.000 C 
ATOM     17  C   UNL     1      -1.224  10.559  18.283  0.00  0.00    +0.000 C 
ATOM     18  C   UNL     1      -2.389  11.539  18.158  0.00  0.00    +0.000 C 
ATOM     19  N   UNL     1      -2.672  11.992  19.532  0.00  0.00    +0.000 N 
ATOM     20  C   UNL     1      -1.431  11.844  20.325  0.00  0.00    +0.000 C 
BRANCH  19  21
ATOM     21  C   UNL     1      -3.768  12.652  19.922  0.00  0.00    +0.000 C 
ATOM     22  N   UNL     1      -4.705  13.234  20.264  0.00  0.00    +0.000 NA
ENDBRANCH  19  21
ENDBRANCH  15  16
ENDBRANCH   4  15
TORSDOF 5
ENDMDL
MODEL 5
REMARK VINA RESULT:      -6.6      0.911      1.533
REMARK  Name = 
REMARK  6 active torsions:
REMARK  status: ('A' for Active; 'I' for Inactive)
REMARK    1  A    between atoms: C_1  and  O_2
REMARK    2  A    between atoms: O_2  and  C_3
REMARK    3  A    between atoms: C_6  and  C_7
REMARK    4  A    between atoms: C_10  and  C_12
REMARK    5  A    between atoms: C_12  and  C_13
REMARK    6  A    between atoms: N_16  and  C_17
REMARK                            x       y       z     vdW  Elec       q    Type
REMARK                         _______ _______ _______ _____ _____    ______ ____
ROOT
ATOM      1  C   UNL     1       8.089   8.073  17.640  0.00  0.00    +0.000 C 
ATOM      2  C   UNL     1       7.977   6.926  18.672  0.00  0.00    +0.000 C 
ATOM      3  N   UNL     1       6.837   6.475  17.896  0.00  0.00    +0.000 N 
ATOM      4  C   UNL     1       6.314   5.224  17.806  0.00  0.00    +0.000 C 
ATOM      5  O   UNL     1       6.792   4.287  18.446  0.00  0.00    +0.000 OA
ATOM      6  C   UNL     1       6.609   7.763  17.277  0.00  0.00    +0.000 C 
ENDROOT
BRANCH   1  10
ATOM      7  C   UNL     1       9.308  12.058  19.159  0.00  0.00    +0.000 A 
ATOM      8  C   UNL     1       8.685  11.936  17.921  0.00  0.00    +0.000 A 
ATOM      9  C   UNL     1       8.276  10.680  17.455  0.00  0.00    +0.000 A 
ATOM     10  C   UNL     1       8.500   9.502  18.196  0.00  0.00    +0.000 A 
ATOM     11  C   UNL     1       9.157   9.662  19.430  0.00  0.00    +0.000 A 
ATOM     12  C   UNL     1       9.559  10.913  19.907  0.00  0.00    +0.000 A 
BRANCH   7  14
ATOM     13  C   UNL     1       9.191  14.355  18.660  0.00  0.00    +0.000 C 
ATOM     14  O   UNL     1       9.657  13.327  19.528  0.00  0.00    +0.000 OA
ENDBRANCH   7  14
ENDBRANCH   1  10
BRANCH   4  15
ATOM     15  C   UNL     1       5.110   5.054  16.898  0.00  0.00    +0.000 C 
BRANCH  15  16
ATOM     16  C   UNL     1       3.796   4.946  17.687  0.00  0.00    +0.000 C 
ATOM     17  C   UNL     1       3.500   6.202  18.516  0.00  0.00    +0.000 C 
ATOM     18  C   UNL     1       2.898   5.722  19.836  0.00  0.00    +0.000 C 
ATOM     19  N   UNL     1       2.758   4.262  19.696  0.00  0.00    +0.000 N 
ATOM     20  C   UNL     1       3.751   3.801  18.701  0.00  0.00    +0.000 C 
BRANCH  19  21
ATOM     21  C   UNL     1       2.043   3.470  20.504  0.00  0.00    +0.000 C 
ATOM     22  N   UNL     1       1.435   2.773  21.196  0.00  0.00    +0.000 NA
ENDBRANCH  19  21
ENDBRANCH  15  16
ENDBRANCH   4  15
TORSDOF 5
ENDMDL
MODEL 6
REMARK VINA RESULT:      -6.6      6.478      8.342
REMARK  Name = 
REMARK  6 active torsions:
REMARK  status: ('A' for Active; 'I' for Inactive)
REMARK    1  A    between atoms: C_1  and  O_2
REMARK    2  A    between atoms: O_2  and  C_3
REMARK    3  A    between atoms: C_6  and  C_7
REMARK    4  A    between atoms: C_10  and  C_12
REMARK    5  A    between atoms: C_12  and  C_13
REMARK    6  A    between atoms: N_16  and  C_17
REMARK                            x       y       z     vdW  Elec       q    Type
REMARK                         _______ _______ _______ _____ _____    ______ ____
ROOT
ATOM      1  C   UNL     1       1.998   7.290  18.589  0.00  0.00    +0.000 C 
ATOM      2  C   UNL     1       1.948   7.904  20.009  0.00  0.00    +0.000 C 
ATOM      3  N   UNL     1       1.252   9.018  19.392  0.00  0.00    +0.000 N 
ATOM      4  C   UNL     1       0.397   9.905  19.967  0.00  0.00    +0.000 C 
ATOM      5  O   UNL     1       0.130   9.846  21.166  0.00  0.00    +0.000 OA
ATOM      6  C   UNL     1       1.740   8.731  18.061  0.00  0.00    +0.000 C 
ENDROOT
BRANCH   1  10
ATOM      7  C   UNL     1       5.656   5.075  17.413  0.00  0.00    +0.000 A 
ATOM      8  C   UNL     1       5.372   6.316  16.852  0.00  0.00    +0.000 A 
ATOM      9  C   UNL     1       4.231   7.026  17.245  0.00  0.00    +0.000 A 
ATOM     10  C   UNL     1       3.321   6.511  18.189  0.00  0.00    +0.000 A 
ATOM     11  C   UNL     1       3.627   5.241  18.715  0.00  0.00    +0.000 A 
ATOM     12  C   UNL     1       4.770   4.530  18.336  0.00  0.00    +0.000 A 
BRANCH   7  14
ATOM     13  C   UNL     1       7.888   4.502  17.891  0.00  0.00    +0.000 C 
ATOM     14  O   UNL     1       6.800   4.469  16.974  0.00  0.00    +0.000 OA
ENDBRANCH   7  14
ENDBRANCH   1  10
BRANCH   4  15
ATOM     15  C   UNL     1      -0.189  10.970  19.058  0.00  0.00    +0.000 C 
BRANCH  15  16
ATOM     16  C   UNL     1      -1.598  10.606  18.565  0.00  0.00    +0.000 C 
ATOM     17  C   UNL     1      -1.589   9.969  17.170  0.00  0.00    +0.000 C 
ATOM     18  C   UNL     1      -2.809  10.518  16.432  0.00  0.00    +0.000 C 
ATOM     19  N   UNL     1      -3.531  11.338  17.421  0.00  0.00    +0.000 N 
ATOM     20  C   UNL     1      -2.555  11.793  18.435  0.00  0.00    +0.000 C 
BRANCH  19  21
ATOM     21  C   UNL     1      -4.781  11.797  17.285  0.00  0.00    +0.000 C 
ATOM     22  N   UNL     1      -5.857  12.202  17.180  0.00  0.00    +0.000 NA
ENDBRANCH  19  21
ENDBRANCH  15  16
ENDBRANCH   4  15
TORSDOF 5
ENDMDL
MODEL 7
REMARK VINA RESULT:      -6.6      0.984      1.154
REMARK  Name = 
REMARK  6 active torsions:
REMARK  status: ('A' for Active; 'I' for Inactive)
REMARK    1  A    between atoms: C_1  and  O_2
REMARK    2  A    between atoms: O_2  and  C_3
REMARK    3  A    between atoms: C_6  and  C_7
REMARK    4  A    between atoms: C_10  and  C_12
REMARK    5  A    between atoms: C_12  and  C_13
REMARK    6  A    between atoms: N_16  and  C_17
REMARK                            x       y       z     vdW  Elec       q    Type
REMARK                         _______ _______ _______ _____ _____    ______ ____
ROOT
ATOM      1  C   UNL     1       8.111   8.123  17.639  0.00  0.00    +0.000 C 
ATOM      2  C   UNL     1       8.077   6.955  18.653  0.00  0.00    +0.000 C 
ATOM      3  N   UNL     1       6.900   6.500  17.936  0.00  0.00    +0.000 N 
ATOM      4  C   UNL     1       6.393   5.242  17.853  0.00  0.00    +0.000 C 
ATOM      5  O   UNL     1       6.922   4.302  18.444  0.00  0.00    +0.000 OA
ATOM      6  C   UNL     1       6.617   7.795  17.356  0.00  0.00    +0.000 C 
ENDROOT
BRANCH   1  10
ATOM      7  C   UNL     1       9.214  12.113  19.233  0.00  0.00    +0.000 A 
ATOM      8  C   UNL     1       9.462  10.963  19.976  0.00  0.00    +0.000 A 
ATOM      9  C   UNL     1       9.139   9.702  19.459  0.00  0.00    +0.000 A 
ATOM     10  C   UNL     1       8.531   9.548  18.197  0.00  0.00    +0.000 A 
ATOM     11  C   UNL     1       8.270  10.735  17.487  0.00  0.00    +0.000 A 
ATOM     12  C   UNL     1       8.600  11.997  17.990  0.00  0.00    +0.000 A 
BRANCH   7  14
ATOM     13  C   UNL     1       8.918  14.446  19.309  0.00  0.00    +0.000 C 
ATOM     14  O   UNL     1       9.578  13.292  19.819  0.00  0.00    +0.000 OA
ENDBRANCH   7  14
ENDBRANCH   1  10
BRANCH   4  15
ATOM     15  C   UNL     1       5.140   5.070  17.013  0.00  0.00    +0.000 C 
BRANCH  15  16
ATOM     16  C   UNL     1       3.881   4.886  17.875  0.00  0.00    +0.000 C 
ATOM     17  C   UNL     1       3.294   6.220  18.352  0.00  0.00    +0.000 C 
ATOM     18  C   UNL     1       2.811   5.996  19.785  0.00  0.00    +0.000 C 
ATOM     19  N   UNL     1       3.017   4.561  20.050  0.00  0.00    +0.000 N 
ATOM     20  C   UNL     1       4.098   4.084  19.160  0.00  0.00    +0.000 C 
BRANCH  19  21
ATOM     21  C   UNL     1       2.501   3.880  21.080  0.00  0.00    +0.000 C 
ATOM     22  N   UNL     1       2.072   3.289  21.975  0.00  0.00    +0.000 NA
ENDBRANCH  19  21
ENDBRANCH  15  16
ENDBRANCH   4  15
TORSDOF 5
ENDMDL
MODEL 8
REMARK VINA RESULT:      -6.6      6.524      8.301
REMARK  Name = 
REMARK  6 active torsions:
REMARK  status: ('A' for Active; 'I' for Inactive)
REMARK    1  A    between atoms: C_1  and  O_2
REMARK    2  A    between atoms: O_2  and  C_3
REMARK    3  A    between atoms: C_6  and  C_7
REMARK    4  A    between atoms: C_10  and  C_12
REMARK    5  A    between atoms: C_12  and  C_13
REMARK    6  A    between atoms: N_16  and  C_17
REMARK                            x       y       z     vdW  Elec       q    Type
REMARK                         _______ _______ _______ _____ _____    ______ ____
ROOT
ATOM      1  C   UNL     1       2.049   7.367  18.514  0.00  0.00    +0.000 C 
ATOM      2  C   UNL     1       1.946   7.965  19.938  0.00  0.00    +0.000 C 
ATOM      3  N   UNL     1       1.227   9.061  19.316  0.00  0.00    +0.000 N 
ATOM      4  C   UNL     1       0.330   9.913  19.878  0.00  0.00    +0.000 C 
ATOM      5  O   UNL     1       0.038   9.833  21.071  0.00  0.00    +0.000 OA
ATOM      6  C   UNL     1       1.754   8.803  17.993  0.00  0.00    +0.000 C 
ENDROOT
BRANCH   1  10
ATOM      7  C   UNL     1       5.881   5.370  17.515  0.00  0.00    +0.000 A 
ATOM      8  C   UNL     1       5.063   4.864  18.520  0.00  0.00    +0.000 A 
ATOM      9  C   UNL     1       3.840   5.480  18.816  0.00  0.00    +0.000 A 
ATOM     10  C   UNL     1       3.406   6.636  18.138  0.00  0.00    +0.000 A 
ATOM     11  C   UNL     1       4.272   7.135  17.146  0.00  0.00    +0.000 A 
ATOM     12  C   UNL     1       5.489   6.520  16.838  0.00  0.00    +0.000 A 
BRANCH   7  14
ATOM     13  C   UNL     1       7.239   4.248  15.955  0.00  0.00    +0.000 C 
ATOM     14  O   UNL     1       7.046   4.690  17.295  0.00  0.00    +0.000 OA
ENDBRANCH   7  14
ENDBRANCH   1  10
BRANCH   4  15
ATOM     15  C   UNL     1      -0.270  10.967  18.966  0.00  0.00    +0.000 C 
BRANCH  15  16
ATOM     16  C   UNL     1      -1.695  10.606  18.516  0.00  0.00    +0.000 C 
ATOM     17  C   UNL     1      -1.725   9.923  17.143  0.00  0.00    +0.000 C 
ATOM     18  C   UNL     1      -2.953  10.464  16.413  0.00  0.00    +0.000 C 
ATOM     19  N   UNL     1      -3.643  11.326  17.390  0.00  0.00    +0.000 N 
ATOM     20  C   UNL     1      -2.639  11.801  18.367  0.00  0.00    +0.000 C 
BRANCH  19  21
ATOM     21  C   UNL     1      -4.889  11.797  17.265  0.00  0.00    +0.000 C 
ATOM     22  N   UNL     1      -5.967  12.194  17.144  0.00  0.00    +0.000 NA
ENDBRANCH  19  21
ENDBRANCH  15  16
ENDBRANCH   4  15
TORSDOF 5
ENDMDL
MODEL 9
REMARK VINA RESULT:      -6.5      6.240      8.298
REMARK  Name = 
REMARK  6 active torsions:
REMARK  status: ('A' for Active; 'I' for Inactive)
REMARK    1  A    between atoms: C_1  and  O_2
REMARK    2  A    between atoms: O_2  and  C_3
REMARK    3  A    between atoms: C_6  and  C_7
REMARK    4  A    between atoms: C_10  and  C_12
REMARK    5  A    between atoms: C_12  and  C_13
REMARK    6  A    between atoms: N_16  and  C_17
REMARK                            x       y       z     vdW  Elec       q    Type
REMARK                         _______ _______ _______ _____ _____    ______ ____
ROOT
ATOM      1  C   UNL     1       2.268   6.889  18.279  0.00  0.00    +0.000 C 
ATOM      2  C   UNL     1       2.348   6.923  19.824  0.00  0.00    +0.000 C 
ATOM      3  N   UNL     1       1.841   8.278  19.719  0.00  0.00    +0.000 N 
ATOM      4  C   UNL     1       1.159   9.002  20.646  0.00  0.00    +0.000 C 
ATOM      5  O   UNL     1       0.908   8.537  21.757  0.00  0.00    +0.000 OA
ATOM      6  C   UNL     1       2.250   8.443  18.340  0.00  0.00    +0.000 C 
ENDROOT
BRANCH   1  10
ATOM      7  C   UNL     1       5.563   4.754  16.214  0.00  0.00    +0.000 A 
ATOM      8  C   UNL     1       4.502   4.045  16.768  0.00  0.00    +0.000 A 
ATOM      9  C   UNL     1       3.448   4.723  17.396  0.00  0.00    +0.000 A 
ATOM     10  C   UNL     1       3.432   6.127  17.515  0.00  0.00    +0.000 A 
ATOM     11  C   UNL     1       4.535   6.807  16.966  0.00  0.00    +0.000 A 
ATOM     12  C   UNL     1       5.586   6.140  16.329  0.00  0.00    +0.000 A 
BRANCH   7  14
ATOM     13  C   UNL     1       6.411   3.884  14.199  0.00  0.00    +0.000 C 
ATOM     14  O   UNL     1       6.533   4.002  15.612  0.00  0.00    +0.000 OA
ENDBRANCH   7  14
ENDBRANCH   1  10
BRANCH   4  15
ATOM     15  C   UNL     1       0.748  10.406  20.243  0.00  0.00    +0.000 C 
BRANCH  15  16
ATOM     16  C   UNL     1      -0.744  10.498  19.888  0.00  0.00    +0.000 C 
ATOM     17  C   UNL     1      -0.987  10.577  18.376  0.00  0.00    +0.000 C 
ATOM     18  C   UNL     1      -2.140  11.559  18.170  0.00  0.00    +0.000 C 
ATOM     19  N   UNL     1      -2.595  11.920  19.524  0.00  0.00    +0.000 N 
ATOM     20  C   UNL     1      -1.461  11.726  20.454  0.00  0.00    +0.000 C 
BRANCH  19  21
ATOM     21  C   UNL     1      -3.740  12.549  19.816  0.00  0.00    +0.000 C 
ATOM     22  N   UNL     1      -4.725  13.089  20.084  0.00  0.00    +0.000 NA
ENDBRANCH  19  21
ENDBRANCH  15  16
ENDBRANCH   4  15
TORSDOF 5
ENDMDL
