MODEL 1
REMARK VINA RESULT:      -8.5      0.000      0.000
REMARK  Name = 
REMARK  11 active torsions:
REMARK  status: ('A' for Active; 'I' for Inactive)
REMARK    1  A    between atoms: C_1  and  C_2
REMARK    2  A    between atoms: C_8  and  N_9
REMARK    3  A    between atoms: C_10  and  C_12
REMARK    4  A    between atoms: C_12  and  C_13
REMARK    5  A    between atoms: C_13  and  C_14
REMARK    6  A    between atoms: C_14  and  C_15
REMARK    7  A    between atoms: C_14  and  C_16
REMARK    8  A    between atoms: C_21  and  O_22
REMARK    9  A    between atoms: C_26  and  O_27
REMARK   10  A    between atoms: C_30  and  C_31
REMARK   11  A    between atoms: C_35  and  C_36
REMARK                            x       y       z     vdW  Elec       q    Type
REMARK                         _______ _______ _______ _____ _____    ______ ____
ROOT
ATOM      1  C   UNL     1      -0.244  11.082  18.229  0.00  0.00    +0.000 C 
ATOM      2  C   UNL     1      -1.234  10.065  17.594  0.00  0.00    +0.000 C 
ATOM      3  C   UNL     1      -2.638  10.399  18.121  0.00  0.00    +0.000 C 
ATOM      4  C   UNL     1      -2.475  11.747  18.810  0.00  0.00    +0.000 C 
ATOM      5  C   UNL     1      -3.531  12.186  19.844  0.00  0.00    +0.000 C 
ATOM      6  C   UNL     1      -4.955  12.314  19.261  0.00  0.00    +0.000 C 
ATOM      7  C   UNL     1      -5.957  12.758  20.336  0.00  0.00    +0.000 C 
ATOM      8  C   UNL     1      -5.555  14.049  21.067  0.00  0.00    +0.000 C 
ATOM      9  C   UNL     1      -5.789  15.267  20.148  0.00  0.00    +0.000 C 
ATOM     10  C   UNL     1      -5.380  16.580  20.807  0.00  0.00    +0.000 C 
ATOM     11  C   UNL     1      -3.930  16.535  21.272  0.00  0.00    +0.000 C 
ATOM     12  C   UNL     1      -3.722  15.372  22.234  0.00  0.00    +0.000 C 
ATOM     13  C   UNL     1      -4.096  13.986  21.631  0.00  0.00    +0.000 C 
ATOM     14  C   UNL     1      -4.046  12.978  22.810  0.00  0.00    +0.000 C 
ATOM     15  C   UNL     1      -3.117  13.559  20.477  0.00  0.00    +0.000 C 
ATOM     16  C   UNL     1      -1.627  13.650  20.877  0.00  0.00    +0.000 C 
ATOM     17  C   UNL     1      -0.673  13.089  19.825  0.00  0.00    +0.000 C 
ATOM     18  C   UNL     1      -1.053  11.655  19.429  0.00  0.00    +0.000 C 
ATOM     19  C   UNL     1      -0.985  10.699  20.650  0.00  0.00    +0.000 C 
ENDROOT
BRANCH   1  20
ATOM     20  C   UNL     1       1.153  10.455  18.516  0.00  0.00    +0.000 C 
ATOM     21  C   UNL     1       2.315  11.382  18.138  0.00  0.00    +0.000 C 
BRANCH  20  22
ATOM     22  C   UNL     1       1.312   9.103  17.780  0.00  0.00    +0.000 C 
BRANCH  22  23
ATOM     23  C   UNL     1       2.693   8.476  17.980  0.00  0.00    +0.000 C 
BRANCH  23  25
ATOM     24  N   UNL     1       2.820   6.057  17.894  0.00  0.00    +0.000 N 
ATOM     25  C   UNL     1       2.576   7.154  18.705  0.00  0.00    +0.000 C 
ATOM     26  O   UNL     1       2.264   7.146  19.892  0.00  0.00    +0.000 OA
ATOM     27  H   UNL     1       3.130   6.248  16.950  0.00  0.00    +0.000 HD
BRANCH  24  35
ATOM     28  C   UNL     1       5.243   4.603  18.729  0.00  0.00    +0.000 C 
ATOM     29  C   UNL     1       3.875   3.977  18.655  0.00  0.00    +0.000 A 
ATOM     30  C   UNL     1       3.763   2.616  19.008  0.00  0.00    +0.000 A 
ATOM     31  C   UNL     1       2.531   1.970  18.974  0.00  0.00    +0.000 A 
ATOM     32  C   UNL     1       1.407   2.679  18.590  0.00  0.00    +0.000 A 
ATOM     33  F   UNL     1       0.218   2.062  18.551  0.00  0.00    +0.000 F 
ATOM     34  C   UNL     1       1.490   4.019  18.236  0.00  0.00    +0.000 A 
ATOM     35  C   UNL     1       2.718   4.690  18.264  0.00  0.00    +0.000 A 
ENDBRANCH  24  35
ENDBRANCH  23  25
ENDBRANCH  22  23
ENDBRANCH  20  22
ENDBRANCH   1  20
BRANCH   6  36
ATOM     36  O   UNL     1      -5.414  11.079  18.722  0.00  0.00    +0.000 OA
ATOM     37  H   UNL     1      -6.328  11.202  18.416  0.00  0.00    +0.000 HD
ENDBRANCH   6  36
BRANCH  10  38
ATOM     38  O   UNL     1      -5.557  17.655  19.892  0.00  0.00    +0.000 OA
ATOM     39  H   UNL     1      -4.750  18.198  19.904  0.00  0.00    +0.000 HD
ENDBRANCH  10  38
TORSDOF 7
ENDMDL
MODEL 2
REMARK VINA RESULT:      -8.4      2.175      2.809
REMARK  Name = 
REMARK  11 active torsions:
REMARK  status: ('A' for Active; 'I' for Inactive)
REMARK    1  A    between atoms: C_1  and  C_2
REMARK    2  A    between atoms: C_8  and  N_9
REMARK    3  A    between atoms: C_10  and  C_12
REMARK    4  A    between atoms: C_12  and  C_13
REMARK    5  A    between atoms: C_13  and  C_14
REMARK    6  A    between atoms: C_14  and  C_15
REMARK    7  A    between atoms: C_14  and  C_16
REMARK    8  A    between atoms: C_21  and  O_22
REMARK    9  A    between atoms: C_26  and  O_27
REMARK   10  A    between atoms: C_30  and  C_31
REMARK   11  A    between atoms: C_35  and  C_36
REMARK                            x       y       z     vdW  Elec       q    Type
REMARK                         _______ _______ _______ _____ _____    ______ ____
ROOT
ATOM      1  C   UNL     1      -0.322  12.303  19.337  0.00  0.00    +0.000 C 
ATOM      2  C   UNL     1      -1.406  11.724  18.384  0.00  0.00    +0.000 C 
ATOM      3  C   UNL     1      -2.765  11.885  19.081  0.00  0.00    +0.000 C 
ATOM      4  C   UNL     1      -2.477  12.792  20.271  0.00  0.00    +0.000 C 
ATOM      5  C   UNL     1      -3.470  12.808  21.450  0.00  0.00    +0.000 C 
ATOM      6  C   UNL     1      -4.892  13.264  21.058  0.00  0.00    +0.000 C 
ATOM      7  C   UNL     1      -5.829  13.265  22.274  0.00  0.00    +0.000 C 
ATOM      8  C   UNL     1      -5.307  14.086  23.464  0.00  0.00    +0.000 C 
ATOM      9  C   UNL     1      -5.463  15.593  23.169  0.00  0.00    +0.000 C 
ATOM     10  C   UNL     1      -4.933  16.465  24.302  0.00  0.00    +0.000 C 
ATOM     11  C   UNL     1      -3.482  16.133  24.621  0.00  0.00    +0.000 C 
ATOM     12  C   UNL     1      -3.346  14.659  24.980  0.00  0.00    +0.000 C 
ATOM     13  C   UNL     1      -3.846  13.695  23.864  0.00  0.00    +0.000 C 
ATOM     14  C   UNL     1      -3.849  12.276  24.494  0.00  0.00    +0.000 C 
ATOM     15  C   UNL     1      -2.931  13.745  22.585  0.00  0.00    +0.000 C 
ATOM     16  C   UNL     1      -1.430  13.561  22.901  0.00  0.00    +0.000 C 
ATOM     17  C   UNL     1      -0.550  13.449  21.659  0.00  0.00    +0.000 C 
ATOM     18  C   UNL     1      -1.053  12.353  20.710  0.00  0.00    +0.000 C 
ATOM     19  C   UNL     1      -1.035  10.961  21.398  0.00  0.00    +0.000 C 
ENDROOT
BRANCH   1  20
ATOM     20  C   UNL     1       1.026  11.526  19.249  0.00  0.00    +0.000 C 
ATOM     21  C   UNL     1       2.158  12.359  18.634  0.00  0.00    +0.000 C 
BRANCH  20  22
ATOM     22  C   UNL     1       0.855  10.215  18.446  0.00  0.00    +0.000 C 
BRANCH  22  23
ATOM     23  C   UNL     1       1.476   9.004  19.146  0.00  0.00    +0.000 C 
BRANCH  23  25
ATOM     24  N   UNL     1       2.714   6.974  18.677  0.00  0.00    +0.000 N 
ATOM     25  C   UNL     1       2.309   8.200  18.173  0.00  0.00    +0.000 C 
ATOM     26  O   UNL     1       2.575   8.674  17.074  0.00  0.00    +0.000 OA
ATOM     27  H   UNL     1       2.348   6.709  19.584  0.00  0.00    +0.000 HD
BRANCH  24  35
ATOM     28  C   UNL     1       1.595   4.386  17.818  0.00  0.00    +0.000 C 
ATOM     29  C   UNL     1       3.037   4.779  17.628  0.00  0.00    +0.000 A 
ATOM     30  C   UNL     1       3.889   3.845  17.003  0.00  0.00    +0.000 A 
ATOM     31  C   UNL     1       5.231   4.139  16.784  0.00  0.00    +0.000 A 
ATOM     32  C   UNL     1       5.728   5.366  17.186  0.00  0.00    +0.000 A 
ATOM     33  F   UNL     1       7.020   5.654  16.982  0.00  0.00    +0.000 F 
ATOM     34  C   UNL     1       4.911   6.303  17.806  0.00  0.00    +0.000 A 
ATOM     35  C   UNL     1       3.558   6.030  18.035  0.00  0.00    +0.000 A 
ENDBRANCH  24  35
ENDBRANCH  23  25
ENDBRANCH  22  23
ENDBRANCH  20  22
ENDBRANCH   1  20
BRANCH   6  36
ATOM     36  O   UNL     1      -5.462  12.414  20.069  0.00  0.00    +0.000 OA
ATOM     37  H   UNL     1      -6.205  12.884  19.657  0.00  0.00    +0.000 HD
ENDBRANCH   6  36
BRANCH  10  38
ATOM     38  O   UNL     1      -5.044  17.839  23.946  0.00  0.00    +0.000 OA
ATOM     39  H   UNL     1      -5.559  17.896  23.123  0.00  0.00    +0.000 HD
ENDBRANCH  10  38
TORSDOF 7
ENDMDL
MODEL 3
REMARK VINA RESULT:      -8.3      1.376      1.660
REMARK  Name = 
REMARK  11 active torsions:
REMARK  status: ('A' for Active; 'I' for Inactive)
REMARK    1  A    between atoms: C_1  and  C_2
REMARK    2  A    between atoms: C_8  and  N_9
REMARK    3  A    between atoms: C_10  and  C_12
REMARK    4  A    between atoms: C_12  and  C_13
REMARK    5  A    between atoms: C_13  and  C_14
REMARK    6  A    between atoms: C_14  and  C_15
REMARK    7  A    between atoms: C_14  and  C_16
REMARK    8  A    between atoms: C_21  and  O_22
REMARK    9  A    between atoms: C_26  and  O_27
REMARK   10  A    between atoms: C_30  and  C_31
REMARK   11  A    between atoms: C_35  and  C_36
REMARK                            x       y       z     vdW  Elec       q    Type
REMARK                         _______ _______ _______ _____ _____    ______ ____
ROOT
ATOM      1  C   UNL     1      -0.090  11.985  19.102  0.00  0.00    +0.000 C 
ATOM      2  C   UNL     1      -1.197  11.427  18.164  0.00  0.00    +0.000 C 
ATOM      3  C   UNL     1      -2.549  11.680  18.847  0.00  0.00    +0.000 C 
ATOM      4  C   UNL     1      -2.221  12.612  20.006  0.00  0.00    +0.000 C 
ATOM      5  C   UNL     1      -3.217  12.719  21.179  0.00  0.00    +0.000 C 
ATOM      6  C   UNL     1      -4.614  13.231  20.763  0.00  0.00    +0.000 C 
ATOM      7  C   UNL     1      -5.554  13.320  21.972  0.00  0.00    +0.000 C 
ATOM      8  C   UNL     1      -4.997  14.155  23.136  0.00  0.00    +0.000 C 
ATOM      9  C   UNL     1      -5.076  15.657  22.788  0.00  0.00    +0.000 C 
ATOM     10  C   UNL     1      -4.509  16.541  23.894  0.00  0.00    +0.000 C 
ATOM     11  C   UNL     1      -3.077  16.149  24.232  0.00  0.00    +0.000 C 
ATOM     12  C   UNL     1      -3.016  14.683  24.643  0.00  0.00    +0.000 C 
ATOM     13  C   UNL     1      -3.558  13.707  23.558  0.00  0.00    +0.000 C 
ATOM     14  C   UNL     1      -3.635  12.312  24.237  0.00  0.00    +0.000 C 
ATOM     15  C   UNL     1      -2.637  13.667  22.283  0.00  0.00    +0.000 C 
ATOM     16  C   UNL     1      -1.148  13.420  22.615  0.00  0.00    +0.000 C 
ATOM     17  C   UNL     1      -0.270  13.221  21.382  0.00  0.00    +0.000 C 
ATOM     18  C   UNL     1      -0.823  12.119  20.469  0.00  0.00    +0.000 C 
ATOM     19  C   UNL     1      -0.876  10.753  21.205  0.00  0.00    +0.000 C 
ENDROOT
BRANCH   1  20
ATOM     20  C   UNL     1       1.219  11.140  19.049  0.00  0.00    +0.000 C 
ATOM     21  C   UNL     1       2.324  11.800  18.215  0.00  0.00    +0.000 C 
BRANCH  20  22
ATOM     22  C   UNL     1       0.936   9.721  18.502  0.00  0.00    +0.000 C 
BRANCH  22  23
ATOM     23  C   UNL     1       2.195   9.022  17.984  0.00  0.00    +0.000 C 
BRANCH  23  25
ATOM     24  N   UNL     1       2.584   6.651  17.664  0.00  0.00    +0.000 N 
ATOM     25  C   UNL     1       2.326   7.645  18.595  0.00  0.00    +0.000 C 
ATOM     26  O   UNL     1       2.179   7.508  19.805  0.00  0.00    +0.000 OA
ATOM     27  H   UNL     1       2.743   6.950  16.710  0.00  0.00    +0.000 HD
BRANCH  24  35
ATOM     28  C   UNL     1       5.253   5.414  17.847  0.00  0.00    +0.000 C 
ATOM     29  C   UNL     1       3.963   4.649  17.996  0.00  0.00    +0.000 A 
ATOM     30  C   UNL     1       4.054   3.262  18.236  0.00  0.00    +0.000 A 
ATOM     31  C   UNL     1       2.908   2.490  18.395  0.00  0.00    +0.000 A 
ATOM     32  C   UNL     1       1.667   3.097  18.317  0.00  0.00    +0.000 A 
ATOM     33  F   UNL     1       0.560   2.359  18.465  0.00  0.00    +0.000 F 
ATOM     34  C   UNL     1       1.550   4.461  18.079  0.00  0.00    +0.000 A 
ATOM     35  C   UNL     1       2.689   5.258  17.918  0.00  0.00    +0.000 A 
ENDBRANCH  24  35
ENDBRANCH  23  25
ENDBRANCH  22  23
ENDBRANCH  20  22
ENDBRANCH   1  20
BRANCH   6  36
ATOM     36  O   UNL     1      -5.220  12.375  19.801  0.00  0.00    +0.000 OA
ATOM     37  H   UNL     1      -5.175  11.464  20.135  0.00  0.00    +0.000 HD
ENDBRANCH   6  36
BRANCH  10  38
ATOM     38  O   UNL     1      -4.550  17.905  23.490  0.00  0.00    +0.000 OA
ATOM     39  H   UNL     1      -4.671  17.930  22.525  0.00  0.00    +0.000 HD
ENDBRANCH  10  38
TORSDOF 7
ENDMDL
MODEL 4
REMARK VINA RESULT:      -8.2      1.916      3.051
REMARK  Name = 
REMARK  11 active torsions:
REMARK  status: ('A' for Active; 'I' for Inactive)
REMARK    1  A    between atoms: C_1  and  C_2
REMARK    2  A    between atoms: C_8  and  N_9
REMARK    3  A    between atoms: C_10  and  C_12
REMARK    4  A    between atoms: C_12  and  C_13
REMARK    5  A    between atoms: C_13  and  C_14
REMARK    6  A    between atoms: C_14  and  C_15
REMARK    7  A    between atoms: C_14  and  C_16
REMARK    8  A    between atoms: C_21  and  O_22
REMARK    9  A    between atoms: C_26  and  O_27
REMARK   10  A    between atoms: C_30  and  C_31
REMARK   11  A    between atoms: C_35  and  C_36
REMARK                            x       y       z     vdW  Elec       q    Type
REMARK                         _______ _______ _______ _____ _____    ______ ____
ROOT
ATOM      1  C   UNL     1      -0.415  10.804  19.811  0.00  0.00    +0.000 C 
ATOM      2  C   UNL     1       0.587  11.217  20.926  0.00  0.00    +0.000 C 
ATOM      3  C   UNL     1      -0.144  12.189  21.864  0.00  0.00    +0.000 C 
ATOM      4  C   UNL     1      -1.605  12.098  21.443  0.00  0.00    +0.000 C 
ATOM      5  C   UNL     1      -2.563  13.244  21.827  0.00  0.00    +0.000 C 
ATOM      6  C   UNL     1      -2.699  13.455  23.351  0.00  0.00    +0.000 C 
ATOM      7  C   UNL     1      -3.667  14.603  23.668  0.00  0.00    +0.000 C 
ATOM      8  C   UNL     1      -5.051  14.448  23.018  0.00  0.00    +0.000 C 
ATOM      9  C   UNL     1      -5.864  13.371  23.766  0.00  0.00    +0.000 C 
ATOM     10  C   UNL     1      -7.241  13.149  23.149  0.00  0.00    +0.000 C 
ATOM     11  C   UNL     1      -7.133  12.800  21.670  0.00  0.00    +0.000 C 
ATOM     12  C   UNL     1      -6.390  13.902  20.924  0.00  0.00    +0.000 C 
ATOM     13  C   UNL     1      -4.961  14.179  21.479  0.00  0.00    +0.000 C 
ATOM     14  C   UNL     1      -4.466  15.464  20.762  0.00  0.00    +0.000 C 
ATOM     15  C   UNL     1      -3.983  12.975  21.223  0.00  0.00    +0.000 C 
ATOM     16  C   UNL     1      -3.968  12.503  19.752  0.00  0.00    +0.000 C 
ATOM     17  C   UNL     1      -2.910  11.443  19.457  0.00  0.00    +0.000 C 
ATOM     18  C   UNL     1      -1.515  11.901  19.905  0.00  0.00    +0.000 C 
ATOM     19  C   UNL     1      -1.079  13.189  19.155  0.00  0.00    +0.000 C 
ENDROOT
BRANCH   1  20
ATOM     20  C   UNL     1       0.284  10.579  18.436  0.00  0.00    +0.000 C 
ATOM     21  C   UNL     1      -0.465   9.584  17.540  0.00  0.00    +0.000 C 
BRANCH  20  22
ATOM     22  C   UNL     1       1.743  10.103  18.630  0.00  0.00    +0.000 C 
BRANCH  22  23
ATOM     23  C   UNL     1       2.093   8.890  17.765  0.00  0.00    +0.000 C 
BRANCH  23  25
ATOM     24  N   UNL     1       2.439   6.494  17.882  0.00  0.00    +0.000 N 
ATOM     25  C   UNL     1       2.179   7.641  18.614  0.00  0.00    +0.000 C 
ATOM     26  O   UNL     1       1.998   7.724  19.825  0.00  0.00    +0.000 OA
ATOM     27  H   UNL     1       2.628   6.616  16.895  0.00  0.00    +0.000 HD
BRANCH  24  35
ATOM     28  C   UNL     1       4.923   5.560  19.164  0.00  0.00    +0.000 C 
ATOM     29  C   UNL     1       3.698   4.702  18.988  0.00  0.00    +0.000 A 
ATOM     30  C   UNL     1       3.758   3.377  19.469  0.00  0.00    +0.000 A 
ATOM     31  C   UNL     1       2.664   2.526  19.351  0.00  0.00    +0.000 A 
ATOM     32  C   UNL     1       1.505   2.992  18.756  0.00  0.00    +0.000 A 
ATOM     33  F   UNL     1       0.449   2.177  18.636  0.00  0.00    +0.000 F 
ATOM     34  C   UNL     1       1.421   4.292  18.273  0.00  0.00    +0.000 A 
ATOM     35  C   UNL     1       2.508   5.166  18.381  0.00  0.00    +0.000 A 
ENDBRANCH  24  35
ENDBRANCH  23  25
ENDBRANCH  22  23
ENDBRANCH  20  22
ENDBRANCH   1  20
BRANCH   6  36
ATOM     36  O   UNL     1      -1.446  13.763  23.951  0.00  0.00    +0.000 OA
ATOM     37  H   UNL     1      -1.362  14.730  23.999  0.00  0.00    +0.000 HD
ENDBRANCH   6  36
BRANCH  10  38
ATOM     38  O   UNL     1      -7.916  12.103  23.840  0.00  0.00    +0.000 OA
ATOM     39  H   UNL     1      -7.637  11.256  23.451  0.00  0.00    +0.000 HD
ENDBRANCH  10  38
TORSDOF 7
ENDMDL
MODEL 5
REMARK VINA RESULT:      -7.9      1.026      1.201
REMARK  Name = 
REMARK  11 active torsions:
REMARK  status: ('A' for Active; 'I' for Inactive)
REMARK    1  A    between atoms: C_1  and  C_2
REMARK    2  A    between atoms: C_8  and  N_9
REMARK    3  A    between atoms: C_10  and  C_12
REMARK    4  A    between atoms: C_12  and  C_13
REMARK    5  A    between atoms: C_13  and  C_14
REMARK    6  A    between atoms: C_14  and  C_15
REMARK    7  A    between atoms: C_14  and  C_16
REMARK    8  A    between atoms: C_21  and  O_22
REMARK    9  A    between atoms: C_26  and  O_27
REMARK   10  A    between atoms: C_30  and  C_31
REMARK   11  A    between atoms: C_35  and  C_36
REMARK                            x       y       z     vdW  Elec       q    Type
REMARK                         _______ _______ _______ _____ _____    ______ ____
ROOT
ATOM      1  C   UNL     1      -0.103  11.082  18.309  0.00  0.00    +0.000 C 
ATOM      2  C   UNL     1      -1.053  10.059  17.625  0.00  0.00    +0.000 C 
ATOM      3  C   UNL     1      -2.479  10.361  18.107  0.00  0.00    +0.000 C 
ATOM      4  C   UNL     1      -2.363  11.702  18.821  0.00  0.00    +0.000 C 
ATOM      5  C   UNL     1      -3.462  12.108  19.823  0.00  0.00    +0.000 C 
ATOM      6  C   UNL     1      -4.867  12.221  19.192  0.00  0.00    +0.000 C 
ATOM      7  C   UNL     1      -5.913  12.633  20.237  0.00  0.00    +0.000 C 
ATOM      8  C   UNL     1      -5.559  13.919  21.001  0.00  0.00    +0.000 C 
ATOM      9  C   UNL     1      -5.781  15.146  20.092  0.00  0.00    +0.000 C 
ATOM     10  C   UNL     1      -5.417  16.456  20.784  0.00  0.00    +0.000 C 
ATOM     11  C   UNL     1      -3.984  16.428  21.299  0.00  0.00    +0.000 C 
ATOM     12  C   UNL     1      -3.791  15.254  22.251  0.00  0.00    +0.000 C 
ATOM     13  C   UNL     1      -4.120  13.871  21.614  0.00  0.00    +0.000 C 
ATOM     14  C   UNL     1      -4.094  12.846  22.781  0.00  0.00    +0.000 C 
ATOM     15  C   UNL     1      -3.094  13.477  20.490  0.00  0.00    +0.000 C 
ATOM     16  C   UNL     1      -1.620  13.586  20.943  0.00  0.00    +0.000 C 
ATOM     17  C   UNL     1      -0.621  13.057  19.918  0.00  0.00    +0.000 C 
ATOM     18  C   UNL     1      -0.962  11.623  19.488  0.00  0.00    +0.000 C 
ATOM     19  C   UNL     1      -0.921  10.650  20.696  0.00  0.00    +0.000 C 
ENDROOT
BRANCH   1  20
ATOM     20  C   UNL     1       1.294  10.473  18.636  0.00  0.00    +0.000 C 
ATOM     21  C   UNL     1       2.452  11.262  18.011  0.00  0.00    +0.000 C 
BRANCH  20  22
ATOM     22  C   UNL     1       1.371   8.996  18.182  0.00  0.00    +0.000 C 
BRANCH  22  23
ATOM     23  C   UNL     1       2.729   8.629  17.581  0.00  0.00    +0.000 C 
BRANCH  23  25
ATOM     24  N   UNL     1       1.995   6.385  18.130  0.00  0.00    +0.000 N 
ATOM     25  C   UNL     1       3.095   7.204  17.931  0.00  0.00    +0.000 C 
ATOM     26  O   UNL     1       4.278   6.895  18.032  0.00  0.00    +0.000 OA
ATOM     27  H   UNL     1       1.086   6.788  17.939  0.00  0.00    +0.000 HD
BRANCH  24  35
ATOM     28  C   UNL     1       1.600   5.722  20.974  0.00  0.00    +0.000 C 
ATOM     29  C   UNL     1       1.835   4.693  19.899  0.00  0.00    +0.000 A 
ATOM     30  C   UNL     1       1.867   3.338  20.291  0.00  0.00    +0.000 A 
ATOM     31  C   UNL     1       2.070   2.330  19.355  0.00  0.00    +0.000 A 
ATOM     32  C   UNL     1       2.241   2.667  18.024  0.00  0.00    +0.000 A 
ATOM     33  F   UNL     1       2.441   1.702  17.118  0.00  0.00    +0.000 F 
ATOM     34  C   UNL     1       2.216   3.993  17.612  0.00  0.00    +0.000 A 
ATOM     35  C   UNL     1       2.012   5.025  18.536  0.00  0.00    +0.000 A 
ENDBRANCH  24  35
ENDBRANCH  23  25
ENDBRANCH  22  23
ENDBRANCH  20  22
ENDBRANCH   1  20
BRANCH   6  36
ATOM     36  O   UNL     1      -5.286  10.987  18.619  0.00  0.00    +0.000 OA
ATOM     37  H   UNL     1      -4.505  10.547  18.245  0.00  0.00    +0.000 HD
ENDBRANCH   6  36
BRANCH  10  38
ATOM     38  O   UNL     1      -5.580  17.542  19.878  0.00  0.00    +0.000 OA
ATOM     39  H   UNL     1      -4.817  18.137  19.981  0.00  0.00    +0.000 HD
ENDBRANCH  10  38
TORSDOF 7
ENDMDL
MODEL 6
REMARK VINA RESULT:      -7.9      2.438      3.713
REMARK  Name = 
REMARK  11 active torsions:
REMARK  status: ('A' for Active; 'I' for Inactive)
REMARK    1  A    between atoms: C_1  and  C_2
REMARK    2  A    between atoms: C_8  and  N_9
REMARK    3  A    between atoms: C_10  and  C_12
REMARK    4  A    between atoms: C_12  and  C_13
REMARK    5  A    between atoms: C_13  and  C_14
REMARK    6  A    between atoms: C_14  and  C_15
REMARK    7  A    between atoms: C_14  and  C_16
REMARK    8  A    between atoms: C_21  and  O_22
REMARK    9  A    between atoms: C_26  and  O_27
REMARK   10  A    between atoms: C_30  and  C_31
REMARK   11  A    between atoms: C_35  and  C_36
REMARK                            x       y       z     vdW  Elec       q    Type
REMARK                         _______ _______ _______ _____ _____    ______ ____
ROOT
ATOM      1  C   UNL     1      -0.528  11.096  19.881  0.00  0.00    +0.000 C 
ATOM      2  C   UNL     1       0.503  11.562  20.947  0.00  0.00    +0.000 C 
ATOM      3  C   UNL     1      -0.219  12.535  21.891  0.00  0.00    +0.000 C 
ATOM      4  C   UNL     1      -1.692  12.394  21.529  0.00  0.00    +0.000 C 
ATOM      5  C   UNL     1      -2.667  13.521  21.924  0.00  0.00    +0.000 C 
ATOM      6  C   UNL     1      -2.751  13.764  23.447  0.00  0.00    +0.000 C 
ATOM      7  C   UNL     1      -3.739  14.891  23.776  0.00  0.00    +0.000 C 
ATOM      8  C   UNL     1      -5.142  14.683  23.184  0.00  0.00    +0.000 C 
ATOM      9  C   UNL     1      -5.895  13.601  23.987  0.00  0.00    +0.000 C 
ATOM     10  C   UNL     1      -7.287  13.326  23.429  0.00  0.00    +0.000 C 
ATOM     11  C   UNL     1      -7.225  12.947  21.955  0.00  0.00    +0.000 C 
ATOM     12  C   UNL     1      -6.544  14.051  21.157  0.00  0.00    +0.000 C 
ATOM     13  C   UNL     1      -5.103  14.381  21.649  0.00  0.00    +0.000 C 
ATOM     14  C   UNL     1      -4.673  15.662  20.885  0.00  0.00    +0.000 C 
ATOM     15  C   UNL     1      -4.101  13.198  21.383  0.00  0.00    +0.000 C 
ATOM     16  C   UNL     1      -4.129  12.693  19.922  0.00  0.00    +0.000 C 
ATOM     17  C   UNL     1      -3.052  11.657  19.611  0.00  0.00    +0.000 C 
ATOM     18  C   UNL     1      -1.655  12.164  19.993  0.00  0.00    +0.000 C 
ATOM     19  C   UNL     1      -1.286  13.445  19.198  0.00  0.00    +0.000 C 
ENDROOT
BRANCH   1  20
ATOM     20  C   UNL     1       0.124  10.858  18.486  0.00  0.00    +0.000 C 
ATOM     21  C   UNL     1      -0.711   9.941  17.584  0.00  0.00    +0.000 C 
BRANCH  20  22
ATOM     22  C   UNL     1       1.550  10.278  18.635  0.00  0.00    +0.000 C 
BRANCH  22  23
ATOM     23  C   UNL     1       1.553   8.830  19.131  0.00  0.00    +0.000 C 
BRANCH  23  25
ATOM     24  N   UNL     1       2.771   6.761  18.796  0.00  0.00    +0.000 N 
ATOM     25  C   UNL     1       2.384   7.959  18.216  0.00  0.00    +0.000 C 
ATOM     26  O   UNL     1       2.662   8.362  17.091  0.00  0.00    +0.000 OA
ATOM     27  H   UNL     1       2.396   6.557  19.715  0.00  0.00    +0.000 HD
BRANCH  24  35
ATOM     28  C   UNL     1       1.560   4.320  17.675  0.00  0.00    +0.000 C 
ATOM     29  C   UNL     1       3.042   4.589  17.689  0.00  0.00    +0.000 A 
ATOM     30  C   UNL     1       3.886   3.607  17.129  0.00  0.00    +0.000 A 
ATOM     31  C   UNL     1       5.265   3.788  17.096  0.00  0.00    +0.000 A 
ATOM     32  C   UNL     1       5.808   4.948  17.618  0.00  0.00    +0.000 A 
ATOM     33  F   UNL     1       7.135   5.127  17.593  0.00  0.00    +0.000 F 
ATOM     34  C   UNL     1       4.999   5.930  18.176  0.00  0.00    +0.000 A 
ATOM     35  C   UNL     1       3.609   5.771  18.220  0.00  0.00    +0.000 A 
ENDBRANCH  24  35
ENDBRANCH  23  25
ENDBRANCH  22  23
ENDBRANCH  20  22
ENDBRANCH   1  20
BRANCH   6  36
ATOM     36  O   UNL     1      -1.485  14.121  23.992  0.00  0.00    +0.000 OA
ATOM     37  H   UNL     1      -1.637  14.700  24.757  0.00  0.00    +0.000 HD
ENDBRANCH   6  36
BRANCH  10  38
ATOM     38  O   UNL     1      -7.905  12.278  24.168  0.00  0.00    +0.000 OA
ATOM     39  H   UNL     1      -8.530  12.680  24.796  0.00  0.00    +0.000 HD
ENDBRANCH  10  38
TORSDOF 7
ENDMDL
MODEL 7
REMARK VINA RESULT:      -7.9      1.560      1.942
REMARK  Name = 
REMARK  11 active torsions:
REMARK  status: ('A' for Active; 'I' for Inactive)
REMARK    1  A    between atoms: C_1  and  C_2
REMARK    2  A    between atoms: C_8  and  N_9
REMARK    3  A    between atoms: C_10  and  C_12
REMARK    4  A    between atoms: C_12  and  C_13
REMARK    5  A    between atoms: C_13  and  C_14
REMARK    6  A    between atoms: C_14  and  C_15
REMARK    7  A    between atoms: C_14  and  C_16
REMARK    8  A    between atoms: C_21  and  O_22
REMARK    9  A    between atoms: C_26  and  O_27
REMARK   10  A    between atoms: C_30  and  C_31
REMARK   11  A    between atoms: C_35  and  C_36
REMARK                            x       y       z     vdW  Elec       q    Type
REMARK                         _______ _______ _______ _____ _____    ______ ____
ROOT
ATOM      1  C   UNL     1      -0.418  11.813  18.623  0.00  0.00    +0.000 C 
ATOM      2  C   UNL     1      -1.215  10.687  17.908  0.00  0.00    +0.000 C 
ATOM      3  C   UNL     1      -2.681  10.808  18.351  0.00  0.00    +0.000 C 
ATOM      4  C   UNL     1      -2.750  12.146  19.075  0.00  0.00    +0.000 C 
ATOM      5  C   UNL     1      -3.918  12.405  20.049  0.00  0.00    +0.000 C 
ATOM      6  C   UNL     1      -5.309  12.350  19.379  0.00  0.00    +0.000 C 
ATOM      7  C   UNL     1      -6.425  12.621  20.396  0.00  0.00    +0.000 C 
ATOM      8  C   UNL     1      -6.253  13.934  21.176  0.00  0.00    +0.000 C 
ATOM      9  C   UNL     1      -6.600  15.132  20.268  0.00  0.00    +0.000 C 
ATOM     10  C   UNL     1      -6.419  16.471  20.976  0.00  0.00    +0.000 C 
ATOM     11  C   UNL     1      -5.008  16.615  21.530  0.00  0.00    +0.000 C 
ATOM     12  C   UNL     1      -4.697  15.466  22.482  0.00  0.00    +0.000 C 
ATOM     13  C   UNL     1      -4.836  14.059  21.829  0.00  0.00    +0.000 C 
ATOM     14  C   UNL     1      -4.715  13.035  22.991  0.00  0.00    +0.000 C 
ATOM     15  C   UNL     1      -3.739  13.804  20.732  0.00  0.00    +0.000 C 
ATOM     16  C   UNL     1      -2.303  14.090  21.227  0.00  0.00    +0.000 C 
ATOM     17  C   UNL     1      -1.219  13.696  20.227  0.00  0.00    +0.000 C 
ATOM     18  C   UNL     1      -1.369  12.235  19.781  0.00  0.00    +0.000 C 
ATOM     19  C   UNL     1      -1.241  11.264  20.985  0.00  0.00    +0.000 C 
ENDROOT
BRANCH   1  20
ATOM     20  C   UNL     1       1.034  11.378  18.986  0.00  0.00    +0.000 C 
ATOM     21  C   UNL     1       2.097  12.360  18.478  0.00  0.00    +0.000 C 
BRANCH  20  22
ATOM     22  C   UNL     1       1.337   9.962  18.442  0.00  0.00    +0.000 C 
BRANCH  22  23
ATOM     23  C   UNL     1       1.575   8.937  19.554  0.00  0.00    +0.000 C 
BRANCH  23  25
ATOM     24  N   UNL     1       2.587   6.771  19.953  0.00  0.00    +0.000 N 
ATOM     25  C   UNL     1       2.158   7.664  18.983  0.00  0.00    +0.000 C 
ATOM     26  O   UNL     1       2.230   7.528  17.766  0.00  0.00    +0.000 OA
ATOM     27  H   UNL     1       2.391   7.015  20.916  0.00  0.00    +0.000 HD
BRANCH  24  35
ATOM     28  C   UNL     1       1.169   4.267  20.585  0.00  0.00    +0.000 C 
ATOM     29  C   UNL     1       2.574   4.320  20.044  0.00  0.00    +0.000 A 
ATOM     30  C   UNL     1       3.237   3.092  19.834  0.00  0.00    +0.000 A 
ATOM     31  C   UNL     1       4.532   3.059  19.328  0.00  0.00    +0.000 A 
ATOM     32  C   UNL     1       5.171   4.249  19.028  0.00  0.00    +0.000 A 
ATOM     33  F   UNL     1       6.420   4.225  18.544  0.00  0.00    +0.000 F 
ATOM     34  C   UNL     1       4.542   5.471  19.227  0.00  0.00    +0.000 A 
ATOM     35  C   UNL     1       3.239   5.529  19.734  0.00  0.00    +0.000 A 
ENDBRANCH  24  35
ENDBRANCH  23  25
ENDBRANCH  22  23
ENDBRANCH  20  22
ENDBRANCH   1  20
BRANCH   6  36
ATOM     36  O   UNL     1      -5.556  11.078  18.789  0.00  0.00    +0.000 OA
ATOM     37  H   UNL     1      -5.625  10.422  19.502  0.00  0.00    +0.000 HD
ENDBRANCH   6  36
BRANCH  10  38
ATOM     38  O   UNL     1      -6.691  17.536  20.072  0.00  0.00    +0.000 OA
ATOM     39  H   UNL     1      -7.567  17.381  19.678  0.00  0.00    +0.000 HD
ENDBRANCH  10  38
TORSDOF 7
ENDMDL
MODEL 8
REMARK VINA RESULT:      -7.9      1.136      1.294
REMARK  Name = 
REMARK  11 active torsions:
REMARK  status: ('A' for Active; 'I' for Inactive)
REMARK    1  A    between atoms: C_1  and  C_2
REMARK    2  A    between atoms: C_8  and  N_9
REMARK    3  A    between atoms: C_10  and  C_12
REMARK    4  A    between atoms: C_12  and  C_13
REMARK    5  A    between atoms: C_13  and  C_14
REMARK    6  A    between atoms: C_14  and  C_15
REMARK    7  A    between atoms: C_14  and  C_16
REMARK    8  A    between atoms: C_21  and  O_22
REMARK    9  A    between atoms: C_26  and  O_27
REMARK   10  A    between atoms: C_30  and  C_31
REMARK   11  A    between atoms: C_35  and  C_36
REMARK                            x       y       z     vdW  Elec       q    Type
REMARK                         _______ _______ _______ _____ _____    ______ ____
ROOT
ATOM      1  C   UNL     1      -0.222  11.294  18.382  0.00  0.00    +0.000 C 
ATOM      2  C   UNL     1      -1.011  10.117  17.743  0.00  0.00    +0.000 C 
ATOM      3  C   UNL     1      -2.490  10.299  18.112  0.00  0.00    +0.000 C 
ATOM      4  C   UNL     1      -2.564  11.700  18.705  0.00  0.00    +0.000 C 
ATOM      5  C   UNL     1      -3.765  12.067  19.601  0.00  0.00    +0.000 C 
ATOM      6  C   UNL     1      -5.128  11.968  18.883  0.00  0.00    +0.000 C 
ATOM      7  C   UNL     1      -6.280  12.349  19.823  0.00  0.00    +0.000 C 
ATOM      8  C   UNL     1      -6.115  13.728  20.484  0.00  0.00    +0.000 C 
ATOM      9  C   UNL     1      -6.403  14.840  19.454  0.00  0.00    +0.000 C 
ATOM     10  C   UNL     1      -6.227  16.237  20.043  0.00  0.00    +0.000 C 
ATOM     11  C   UNL     1      -4.837  16.412  20.639  0.00  0.00    +0.000 C 
ATOM     12  C   UNL     1      -4.585  15.353  21.705  0.00  0.00    +0.000 C 
ATOM     13  C   UNL     1      -4.723  13.893  21.181  0.00  0.00    +0.000 C 
ATOM     14  C   UNL     1      -4.667  12.981  22.436  0.00  0.00    +0.000 C 
ATOM     15  C   UNL     1      -3.588  13.520  20.158  0.00  0.00    +0.000 C 
ATOM     16  C   UNL     1      -2.168  13.831  20.683  0.00  0.00    +0.000 C 
ATOM     17  C   UNL     1      -1.053  13.330  19.770  0.00  0.00    +0.000 C 
ATOM     18  C   UNL     1      -1.211  11.836  19.455  0.00  0.00    +0.000 C 
ATOM     19  C   UNL     1      -1.148  10.980  20.749  0.00  0.00    +0.000 C 
ENDROOT
BRANCH   1  20
ATOM     20  C   UNL     1       1.206  10.874  18.844  0.00  0.00    +0.000 C 
ATOM     21  C   UNL     1       2.319  11.632  18.109  0.00  0.00    +0.000 C 
BRANCH  20  22
ATOM     22  C   UNL     1       1.416   9.351  18.669  0.00  0.00    +0.000 C 
BRANCH  22  23
ATOM     23  C   UNL     1       1.541   8.611  20.003  0.00  0.00    +0.000 C 
BRANCH  23  25
ATOM     24  N   UNL     1       2.536   6.983  18.509  0.00  0.00    +0.000 N 
ATOM     25  C   UNL     1       2.029   7.198  19.781  0.00  0.00    +0.000 C 
ATOM     26  O   UNL     1       1.924   6.376  20.686  0.00  0.00    +0.000 OA
ATOM     27  H   UNL     1       2.609   7.792  17.904  0.00  0.00    +0.000 HD
BRANCH  24  35
ATOM     28  C   UNL     1       5.192   6.873  17.237  0.00  0.00    +0.000 C 
ATOM     29  C   UNL     1       4.270   5.687  17.354  0.00  0.00    +0.000 A 
ATOM     30  C   UNL     1       4.717   4.460  16.820  0.00  0.00    +0.000 A 
ATOM     31  C   UNL     1       3.926   3.319  16.898  0.00  0.00    +0.000 A 
ATOM     32  C   UNL     1       2.688   3.395  17.511  0.00  0.00    +0.000 A 
ATOM     33  F   UNL     1       1.920   2.301  17.586  0.00  0.00    +0.000 F 
ATOM     34  C   UNL     1       2.224   4.591  18.043  0.00  0.00    +0.000 A 
ATOM     35  C   UNL     1       3.002   5.752  17.978  0.00  0.00    +0.000 A 
ENDBRANCH  24  35
ENDBRANCH  23  25
ENDBRANCH  22  23
ENDBRANCH  20  22
ENDBRANCH   1  20
BRANCH   6  36
ATOM     36  O   UNL     1      -5.375  10.651  18.403  0.00  0.00    +0.000 OA
ATOM     37  H   UNL     1      -5.551  10.704  17.449  0.00  0.00    +0.000 HD
ENDBRANCH   6  36
BRANCH  10  38
ATOM     38  O   UNL     1      -6.443  17.216  19.032  0.00  0.00    +0.000 OA
ATOM     39  H   UNL     1      -7.361  17.131  18.721  0.00  0.00    +0.000 HD
ENDBRANCH  10  38
TORSDOF 7
ENDMDL
MODEL 9
REMARK VINA RESULT:      -7.8      3.337      4.709
REMARK  Name = 
REMARK  11 active torsions:
REMARK  status: ('A' for Active; 'I' for Inactive)
REMARK    1  A    between atoms: C_1  and  C_2
REMARK    2  A    between atoms: C_8  and  N_9
REMARK    3  A    between atoms: C_10  and  C_12
REMARK    4  A    between atoms: C_12  and  C_13
REMARK    5  A    between atoms: C_13  and  C_14
REMARK    6  A    between atoms: C_14  and  C_15
REMARK    7  A    between atoms: C_14  and  C_16
REMARK    8  A    between atoms: C_21  and  O_22
REMARK    9  A    between atoms: C_26  and  O_27
REMARK   10  A    between atoms: C_30  and  C_31
REMARK   11  A    between atoms: C_35  and  C_36
REMARK                            x       y       z     vdW  Elec       q    Type
REMARK                         _______ _______ _______ _____ _____    ______ ____
ROOT
ATOM      1  C   UNL     1       0.508  10.974  21.077  0.00  0.00    +0.000 C 
ATOM      2  C   UNL     1       1.446  11.766  20.124  0.00  0.00    +0.000 C 
ATOM      3  C   UNL     1       1.204  13.261  20.377  0.00  0.00    +0.000 C 
ATOM      4  C   UNL     1       0.357  13.300  21.642  0.00  0.00    +0.000 C 
ATOM      5  C   UNL     1      -0.464  14.569  21.949  0.00  0.00    +0.000 C 
ATOM      6  C   UNL     1       0.397  15.839  22.121  0.00  0.00    +0.000 C 
ATOM      7  C   UNL     1      -0.475  17.064  22.429  0.00  0.00    +0.000 C 
ATOM      8  C   UNL     1      -1.409  16.877  23.636  0.00  0.00    +0.000 C 
ATOM      9  C   UNL     1      -0.595  16.954  24.945  0.00  0.00    +0.000 C 
ATOM     10  C   UNL     1      -1.463  16.745  26.182  0.00  0.00    +0.000 C 
ATOM     11  C   UNL     1      -2.223  15.428  26.105  0.00  0.00    +0.000 C 
ATOM     12  C   UNL     1      -3.079  15.387  24.846  0.00  0.00    +0.000 C 
ATOM     13  C   UNL     1      -2.265  15.571  23.531  0.00  0.00    +0.000 C 
ATOM     14  C   UNL     1      -3.314  15.736  22.398  0.00  0.00    +0.000 C 
ATOM     15  C   UNL     1      -1.313  14.352  23.248  0.00  0.00    +0.000 C 
ATOM     16  C   UNL     1      -2.034  12.987  23.314  0.00  0.00    +0.000 C 
ATOM     17  C   UNL     1      -1.161  11.810  22.887  0.00  0.00    +0.000 C 
ATOM     18  C   UNL     1      -0.542  12.041  21.501  0.00  0.00    +0.000 C 
ATOM     19  C   UNL     1      -1.640  12.200  20.416  0.00  0.00    +0.000 C 
ENDROOT
BRANCH   1  20
ATOM     20  C   UNL     1      -0.007   9.648  20.441  0.00  0.00    +0.000 C 
ATOM     21  C   UNL     1      -0.163   8.514  21.463  0.00  0.00    +0.000 C 
BRANCH  20  22
ATOM     22  C   UNL     1       0.926   9.187  19.296  0.00  0.00    +0.000 C 
BRANCH  22  23
ATOM     23  C   UNL     1       1.804   7.996  19.687  0.00  0.00    +0.000 C 
BRANCH  23  25
ATOM     24  N   UNL     1       3.320   6.364  18.732  0.00  0.00    +0.000 N 
ATOM     25  C   UNL     1       2.662   7.565  18.519  0.00  0.00    +0.000 C 
ATOM     26  O   UNL     1       2.732   8.284  17.528  0.00  0.00    +0.000 OA
ATOM     27  H   UNL     1       3.096   5.866  19.585  0.00  0.00    +0.000 HD
BRANCH  24  35
ATOM     28  C   UNL     1       2.594   3.812  17.449  0.00  0.00    +0.000 C 
ATOM     29  C   UNL     1       3.916   4.506  17.245  0.00  0.00    +0.000 A 
ATOM     30  C   UNL     1       4.850   3.887  16.387  0.00  0.00    +0.000 A 
ATOM     31  C   UNL     1       6.087   4.472  16.141  0.00  0.00    +0.000 A 
ATOM     32  C   UNL     1       6.398   5.676  16.747  0.00  0.00    +0.000 A 
ATOM     33  F   UNL     1       7.590   6.243  16.517  0.00  0.00    +0.000 F 
ATOM     34  C   UNL     1       5.497   6.305  17.596  0.00  0.00    +0.000 A 
ATOM     35  C   UNL     1       4.246   5.737  17.858  0.00  0.00    +0.000 A 
ENDBRANCH  24  35
ENDBRANCH  23  25
ENDBRANCH  22  23
ENDBRANCH  20  22
ENDBRANCH   1  20
BRANCH   6  36
ATOM     36  O   UNL     1       1.151  16.125  20.947  0.00  0.00    +0.000 OA
ATOM     37  H   UNL     1       1.783  15.400  20.810  0.00  0.00    +0.000 HD
ENDBRANCH   6  36
BRANCH  10  38
ATOM     38  O   UNL     1      -0.649  16.762  27.350  0.00  0.00    +0.000 OA
ATOM     39  H   UNL     1      -1.202  17.050  28.097  0.00  0.00    +0.000 HD
ENDBRANCH  10  38
TORSDOF 7
ENDMDL
