MODEL 1
REMARK VINA RESULT:      -7.0      0.000      0.000
REMARK  Name = 
REMARK  8 active torsions:
REMARK  status: ('A' for Active; 'I' for Inactive)
REMARK    1  A    between atoms: C_1  and  O_2
REMARK    2  A    between atoms: O_2  and  N_3
REMARK    3  A    between atoms: C_4  and  C_5
REMARK    4  A    between atoms: C_11  and  N_12
REMARK    5  A    between atoms: N_18  and  C_19
REMARK    6  A    between atoms: C_22  and  N_23
REMARK    7  A    between atoms: N_23  and  C_24
REMARK    8  A    between atoms: N_23  and  C_25
REMARK                            x       y       z     vdW  Elec       q    Type
REMARK                         _______ _______ _______ _____ _____    ______ ____
ROOT
ATOM      1  N   UNL     1       2.118   5.635  19.289  0.00  0.00    +0.000 N 
ATOM      2  C   UNL     1       1.271   6.075  20.400  0.00  0.00    +0.000 C 
ATOM      3  C   UNL     1       1.765   7.474  20.821  0.00  0.00    +0.000 C 
ATOM      4  N   UNL     1       1.821   8.412  19.675  0.00  0.00    +0.000 N 
ATOM      5  C   UNL     1       1.445   9.720  19.906  0.00  0.00    +0.000 C 
ATOM      6  O   UNL     1       1.076  10.069  21.028  0.00  0.00    +0.000 OA
ATOM      7  N   UNL     1       1.475  10.553  18.808  0.00  0.00    +0.000 N 
ATOM      8  C   UNL     1       2.546   7.894  18.500  0.00  0.00    +0.000 C 
ATOM      9  C   UNL     1       2.014   6.504  18.104  0.00  0.00    +0.000 C 
ATOM     10  H   UNL     1       1.455  10.111  17.905  0.00  0.00    +0.000 HD
ENDROOT
BRANCH   1  17
ATOM     11  C   UNL     1       3.607   3.734  19.315  0.00  0.00    +0.000 A 
ATOM     12  C   UNL     1       3.768   2.369  19.123  0.00  0.00    +0.000 A 
ATOM     13  N   UNL     1       4.956   1.709  19.431  0.00  0.00    +0.000 N 
ATOM     14  N   UNL     1       2.745   1.580  18.757  0.00  0.00    +0.000 NA
ATOM     15  C   UNL     1       1.559   2.186  18.605  0.00  0.00    +0.000 A 
ATOM     16  N   UNL     1       1.304   3.497  18.768  0.00  0.00    +0.000 NA
ATOM     17  C   UNL     1       2.343   4.278  19.105  0.00  0.00    +0.000 A 
ATOM     18  H   UNL     1       5.772   2.238  19.121  0.00  0.00    +0.000 HD
ATOM     19  H   UNL     1       4.919   0.752  19.109  0.00  0.00    +0.000 HD
BRANCH  11  21
ATOM     20  N   UNL     1       5.914   4.457  19.283  0.00  0.00    +0.000 NA
ATOM     21  C   UNL     1       4.715   4.580  19.766  0.00  0.00    +0.000 C 
BRANCH  20  23
ATOM     22  C   UNL     1       7.686   5.846  18.881  0.00  0.00    +0.000 C 
ATOM     23  O   UNL     1       6.727   5.447  19.853  0.00  0.00    +0.000 OA
ENDBRANCH  20  23
ENDBRANCH  11  21
ENDBRANCH   1  17
BRANCH   7  24
ATOM     24  C   UNL     1       1.168  11.930  18.814  0.00  0.00    +0.000 A 
ATOM     25  C   UNL     1      -0.131  12.419  18.745  0.00  0.00    +0.000 A 
ATOM     26  C   UNL     1      -0.374  13.795  18.675  0.00  0.00    +0.000 A 
ATOM     27  C   UNL     1       0.654  14.748  18.707  0.00  0.00    +0.000 A 
ATOM     28  C   UNL     1       1.955  14.232  18.821  0.00  0.00    +0.000 A 
ATOM     29  C   UNL     1       2.213  12.849  18.879  0.00  0.00    +0.000 A 
BRANCH  27  30
ATOM     30  N   UNL     1       0.379  16.101  18.577  0.00  0.00    +0.000 N 
ATOM     31  C   UNL     1      -0.898  16.657  19.025  0.00  0.00    +0.000 C 
ATOM     32  C   UNL     1       1.422  17.093  18.342  0.00  0.00    +0.000 C 
ENDBRANCH  27  30
ENDBRANCH   7  24
TORSDOF 5
ENDMDL
MODEL 2
REMARK VINA RESULT:      -7.0      0.275      1.110
REMARK  Name = 
REMARK  8 active torsions:
REMARK  status: ('A' for Active; 'I' for Inactive)
REMARK    1  A    between atoms: C_1  and  O_2
REMARK    2  A    between atoms: O_2  and  N_3
REMARK    3  A    between atoms: C_4  and  C_5
REMARK    4  A    between atoms: C_11  and  N_12
REMARK    5  A    between atoms: N_18  and  C_19
REMARK    6  A    between atoms: C_22  and  N_23
REMARK    7  A    between atoms: N_23  and  C_24
REMARK    8  A    between atoms: N_23  and  C_25
REMARK                            x       y       z     vdW  Elec       q    Type
REMARK                         _______ _______ _______ _____ _____    ______ ____
ROOT
ATOM      1  N   UNL     1       2.078   5.627  19.339  0.00  0.00    +0.000 N 
ATOM      2  C   UNL     1       1.248   6.079  20.460  0.00  0.00    +0.000 C 
ATOM      3  C   UNL     1       1.745   7.486  20.854  0.00  0.00    +0.000 C 
ATOM      4  N   UNL     1       1.778   8.408  19.695  0.00  0.00    +0.000 N 
ATOM      5  C   UNL     1       1.400   9.718  19.915  0.00  0.00    +0.000 C 
ATOM      6  O   UNL     1       1.050  10.080  21.039  0.00  0.00    +0.000 OA
ATOM      7  N   UNL     1       1.408  10.537  18.806  0.00  0.00    +0.000 N 
ATOM      8  C   UNL     1       2.483   7.878  18.514  0.00  0.00    +0.000 C 
ATOM      9  C   UNL     1       1.949   6.480  18.146  0.00  0.00    +0.000 C 
ATOM     10  H   UNL     1       1.374  10.083  17.909  0.00  0.00    +0.000 HD
ENDROOT
BRANCH   1  17
ATOM     11  C   UNL     1       3.575   3.733  19.357  0.00  0.00    +0.000 A 
ATOM     12  C   UNL     1       3.738   2.366  19.181  0.00  0.00    +0.000 A 
ATOM     13  N   UNL     1       4.935   1.716  19.471  0.00  0.00    +0.000 N 
ATOM     14  N   UNL     1       2.710   1.568  18.849  0.00  0.00    +0.000 NA
ATOM     15  C   UNL     1       1.518   2.167  18.716  0.00  0.00    +0.000 A 
ATOM     16  N   UNL     1       1.262   3.479  18.866  0.00  0.00    +0.000 NA
ATOM     17  C   UNL     1       2.304   4.269  19.169  0.00  0.00    +0.000 A 
ATOM     18  H   UNL     1       5.741   2.243  19.135  0.00  0.00    +0.000 HD
ATOM     19  H   UNL     1       4.895   0.753  19.162  0.00  0.00    +0.000 HD
BRANCH  11  21
ATOM     20  N   UNL     1       5.883   4.450  19.280  0.00  0.00    +0.000 NA
ATOM     21  C   UNL     1       4.689   4.590  19.772  0.00  0.00    +0.000 C 
BRANCH  20  23
ATOM     22  C   UNL     1       7.586   5.894  18.787  0.00  0.00    +0.000 C 
ATOM     23  O   UNL     1       6.704   5.455  19.812  0.00  0.00    +0.000 OA
ENDBRANCH  20  23
ENDBRANCH  11  21
ENDBRANCH   1  17
BRANCH   7  24
ATOM     24  C   UNL     1       1.096  11.912  18.800  0.00  0.00    +0.000 A 
ATOM     25  C   UNL     1       2.051  12.910  18.960  0.00  0.00    +0.000 A 
ATOM     26  C   UNL     1       1.675  14.256  19.026  0.00  0.00    +0.000 A 
ATOM     27  C   UNL     1       0.344  14.677  18.900  0.00  0.00    +0.000 A 
ATOM     28  C   UNL     1      -0.598  13.655  18.695  0.00  0.00    +0.000 A 
ATOM     29  C   UNL     1      -0.234  12.297  18.641  0.00  0.00    +0.000 A 
BRANCH  27  30
ATOM     30  N   UNL     1       0.002  16.015  19.027  0.00  0.00    +0.000 N 
ATOM     31  C   UNL     1       0.610  17.033  18.170  0.00  0.00    +0.000 C 
ATOM     32  C   UNL     1      -1.198  16.452  19.730  0.00  0.00    +0.000 C 
ENDBRANCH  27  30
ENDBRANCH   7  24
TORSDOF 5
ENDMDL
MODEL 3
REMARK VINA RESULT:      -6.7      3.921     10.230
REMARK  Name = 
REMARK  8 active torsions:
REMARK  status: ('A' for Active; 'I' for Inactive)
REMARK    1  A    between atoms: C_1  and  O_2
REMARK    2  A    between atoms: O_2  and  N_3
REMARK    3  A    between atoms: C_4  and  C_5
REMARK    4  A    between atoms: C_11  and  N_12
REMARK    5  A    between atoms: N_18  and  C_19
REMARK    6  A    between atoms: C_22  and  N_23
REMARK    7  A    between atoms: N_23  and  C_24
REMARK    8  A    between atoms: N_23  and  C_25
REMARK                            x       y       z     vdW  Elec       q    Type
REMARK                         _______ _______ _______ _____ _____    ______ ____
ROOT
ATOM      1  N   UNL     1      -1.335  11.683  22.336  0.00  0.00    +0.000 N 
ATOM      2  C   UNL     1      -1.587  11.633  20.894  0.00  0.00    +0.000 C 
ATOM      3  C   UNL     1      -0.251  11.278  20.211  0.00  0.00    +0.000 C 
ATOM      4  N   UNL     1       0.353  10.049  20.778  0.00  0.00    +0.000 N 
ATOM      5  C   UNL     1       0.978   9.185  19.900  0.00  0.00    +0.000 C 
ATOM      6  O   UNL     1       1.016   9.446  18.697  0.00  0.00    +0.000 OA
ATOM      7  N   UNL     1       1.495   8.036  20.459  0.00  0.00    +0.000 N 
ATOM      8  C   UNL     1       0.459  10.045  22.248  0.00  0.00    +0.000 C 
ATOM      9  C   UNL     1      -0.898  10.391  22.891  0.00  0.00    +0.000 C 
ATOM     10  H   UNL     1       1.124   7.761  21.352  0.00  0.00    +0.000 HD
ENDROOT
BRANCH   1  17
ATOM     11  C   UNL     1      -1.714  13.846  23.341  0.00  0.00    +0.000 A 
ATOM     12  C   UNL     1      -2.525  14.642  24.137  0.00  0.00    +0.000 A 
ATOM     13  N   UNL     1      -2.296  16.006  24.304  0.00  0.00    +0.000 N 
ATOM     14  N   UNL     1      -3.659  14.174  24.684  0.00  0.00    +0.000 NA
ATOM     15  C   UNL     1      -3.967  12.901  24.402  0.00  0.00    +0.000 A 
ATOM     16  N   UNL     1      -3.247  12.053  23.645  0.00  0.00    +0.000 NA
ATOM     17  C   UNL     1      -2.102  12.525  23.129  0.00  0.00    +0.000 A 
ATOM     18  H   UNL     1      -1.305  16.206  24.446  0.00  0.00    +0.000 HD
ATOM     19  H   UNL     1      -2.914  16.382  25.010  0.00  0.00    +0.000 HD
BRANCH  11  21
ATOM     20  N   UNL     1       0.305  15.176  23.329  0.00  0.00    +0.000 NA
ATOM     21  C   UNL     1      -0.506  14.377  22.704  0.00  0.00    +0.000 C 
BRANCH  20  23
ATOM     22  C   UNL     1       0.997  16.447  21.559  0.00  0.00    +0.000 C 
ATOM     23  O   UNL     1       1.395  15.449  22.489  0.00  0.00    +0.000 OA
ENDBRANCH  20  23
ENDBRANCH  11  21
ENDBRANCH   1  17
BRANCH   7  24
ATOM     24  C   UNL     1       2.203   7.034  19.764  0.00  0.00    +0.000 A 
ATOM     25  C   UNL     1       2.941   7.282  18.613  0.00  0.00    +0.000 A 
ATOM     26  C   UNL     1       3.559   6.236  17.919  0.00  0.00    +0.000 A 
ATOM     27  C   UNL     1       3.504   4.904  18.353  0.00  0.00    +0.000 A 
ATOM     28  C   UNL     1       2.790   4.683  19.542  0.00  0.00    +0.000 A 
ATOM     29  C   UNL     1       2.152   5.725  20.241  0.00  0.00    +0.000 A 
BRANCH  27  30
ATOM     30  N   UNL     1       4.080   3.886  17.609  0.00  0.00    +0.000 N 
ATOM     31  C   UNL     1       3.665   2.494  17.788  0.00  0.00    +0.000 C 
ATOM     32  C   UNL     1       4.837   4.140  16.388  0.00  0.00    +0.000 C 
ENDBRANCH  27  30
ENDBRANCH   7  24
TORSDOF 5
ENDMDL
MODEL 4
REMARK VINA RESULT:      -6.7      3.310      4.195
REMARK  Name = 
REMARK  8 active torsions:
REMARK  status: ('A' for Active; 'I' for Inactive)
REMARK    1  A    between atoms: C_1  and  O_2
REMARK    2  A    between atoms: O_2  and  N_3
REMARK    3  A    between atoms: C_4  and  C_5
REMARK    4  A    between atoms: C_11  and  N_12
REMARK    5  A    between atoms: N_18  and  C_19
REMARK    6  A    between atoms: C_22  and  N_23
REMARK    7  A    between atoms: N_23  and  C_24
REMARK    8  A    between atoms: N_23  and  C_25
REMARK                            x       y       z     vdW  Elec       q    Type
REMARK                         _______ _______ _______ _____ _____    ______ ____
ROOT
ATOM      1  N   UNL     1       2.948   6.922  18.250  0.00  0.00    +0.000 N 
ATOM      2  C   UNL     1       2.868   8.170  17.486  0.00  0.00    +0.000 C 
ATOM      3  C   UNL     1       1.503   8.813  17.809  0.00  0.00    +0.000 C 
ATOM      4  N   UNL     1       1.292   8.964  19.268  0.00  0.00    +0.000 N 
ATOM      5  C   UNL     1       0.659  10.112  19.703  0.00  0.00    +0.000 C 
ATOM      6  O   UNL     1       0.298  10.964  18.890  0.00  0.00    +0.000 OA
ATOM      7  N   UNL     1       0.513  10.234  21.068  0.00  0.00    +0.000 N 
ATOM      8  C   UNL     1       1.529   7.736  20.048  0.00  0.00    +0.000 C 
ATOM      9  C   UNL     1       2.905   7.134  19.707  0.00  0.00    +0.000 C 
ATOM     10  H   UNL     1       1.125   9.676  21.639  0.00  0.00    +0.000 HD
ENDROOT
BRANCH   1  17
ATOM     11  C   UNL     1       3.434   4.560  18.139  0.00  0.00    +0.000 A 
ATOM     12  C   UNL     1       4.214   3.548  17.598  0.00  0.00    +0.000 A 
ATOM     13  N   UNL     1       3.945   2.199  17.822  0.00  0.00    +0.000 N 
ATOM     14  N   UNL     1       5.194   3.805  16.716  0.00  0.00    +0.000 NA
ATOM     15  C   UNL     1       5.360   5.091  16.378  0.00  0.00    +0.000 A 
ATOM     16  N   UNL     1       4.657   6.138  16.846  0.00  0.00    +0.000 NA
ATOM     17  C   UNL     1       3.701   5.869  17.749  0.00  0.00    +0.000 A 
ATOM     18  H   UNL     1       3.709   2.020  18.798  0.00  0.00    +0.000 HD
ATOM     19  H   UNL     1       4.691   1.626  17.450  0.00  0.00    +0.000 HD
BRANCH  11  21
ATOM     20  N   UNL     1       1.451   3.348  18.807  0.00  0.00    +0.000 NA
ATOM     21  C   UNL     1       2.332   4.268  19.060  0.00  0.00    +0.000 C 
BRANCH  20  23
ATOM     22  C   UNL     1       1.336   2.881  21.043  0.00  0.00    +0.000 C 
ATOM     23  O   UNL     1       0.577   3.256  19.900  0.00  0.00    +0.000 OA
ENDBRANCH  20  23
ENDBRANCH  11  21
ENDBRANCH   1  17
BRANCH   7  24
ATOM     24  C   UNL     1      -0.130  11.298  21.732  0.00  0.00    +0.000 A 
ATOM     25  C   UNL     1       0.229  12.630  21.560  0.00  0.00    +0.000 A 
ATOM     26  C   UNL     1      -0.390  13.640  22.304  0.00  0.00    +0.000 A 
ATOM     27  C   UNL     1      -1.416  13.382  23.224  0.00  0.00    +0.000 A 
ATOM     28  C   UNL     1      -1.792  12.035  23.349  0.00  0.00    +0.000 A 
ATOM     29  C   UNL     1      -1.168  11.008  22.616  0.00  0.00    +0.000 A 
BRANCH  27  30
ATOM     30  N   UNL     1      -1.967  14.401  23.985  0.00  0.00    +0.000 N 
ATOM     31  C   UNL     1      -3.346  14.322  24.467  0.00  0.00    +0.000 C 
ATOM     32  C   UNL     1      -1.150  15.410  24.651  0.00  0.00    +0.000 C 
ENDBRANCH  27  30
ENDBRANCH   7  24
TORSDOF 5
ENDMDL
MODEL 5
REMARK VINA RESULT:      -6.5      3.120      4.292
REMARK  Name = 
REMARK  8 active torsions:
REMARK  status: ('A' for Active; 'I' for Inactive)
REMARK    1  A    between atoms: C_1  and  O_2
REMARK    2  A    between atoms: O_2  and  N_3
REMARK    3  A    between atoms: C_4  and  C_5
REMARK    4  A    between atoms: C_11  and  N_12
REMARK    5  A    between atoms: N_18  and  C_19
REMARK    6  A    between atoms: C_22  and  N_23
REMARK    7  A    between atoms: N_23  and  C_24
REMARK    8  A    between atoms: N_23  and  C_25
REMARK                            x       y       z     vdW  Elec       q    Type
REMARK                         _______ _______ _______ _____ _____    ______ ____
ROOT
ATOM      1  N   UNL     1       3.084   7.257  18.405  0.00  0.00    +0.000 N 
ATOM      2  C   UNL     1       2.302   6.824  19.567  0.00  0.00    +0.000 C 
ATOM      3  C   UNL     1       1.837   8.097  20.302  0.00  0.00    +0.000 C 
ATOM      4  N   UNL     1       1.134   9.036  19.397  0.00  0.00    +0.000 N 
ATOM      5  C   UNL     1       0.041   9.711  19.906  0.00  0.00    +0.000 C 
ATOM      6  O   UNL     1      -0.316   9.520  21.068  0.00  0.00    +0.000 OA
ATOM      7  N   UNL     1      -0.609  10.546  19.023  0.00  0.00    +0.000 N 
ATOM      8  C   UNL     1       1.862   9.344  18.153  0.00  0.00    +0.000 C 
ATOM      9  C   UNL     1       2.297   8.047  17.443  0.00  0.00    +0.000 C 
ATOM     10  H   UNL     1      -0.458  10.375  18.044  0.00  0.00    +0.000 HD
ENDROOT
BRANCH   1  17
ATOM     11  C   UNL     1       3.915   5.061  17.842  0.00  0.00    +0.000 A 
ATOM     12  C   UNL     1       4.962   4.296  17.348  0.00  0.00    +0.000 A 
ATOM     13  N   UNL     1       4.834   2.930  17.101  0.00  0.00    +0.000 N 
ATOM     14  N   UNL     1       6.118   4.851  16.950  0.00  0.00    +0.000 NA
ATOM     15  C   UNL     1       6.193   6.186  17.042  0.00  0.00    +0.000 A 
ATOM     16  N   UNL     1       5.236   7.010  17.505  0.00  0.00    +0.000 NA
ATOM     17  C   UNL     1       4.097   6.439  17.927  0.00  0.00    +0.000 A 
ATOM     18  H   UNL     1       4.336   2.457  17.856  0.00  0.00    +0.000 HD
ATOM     19  H   UNL     1       5.732   2.531  16.865  0.00  0.00    +0.000 HD
BRANCH  11  21
ATOM     20  N   UNL     1       1.904   3.802  17.373  0.00  0.00    +0.000 NA
ATOM     21  C   UNL     1       2.636   4.455  18.224  0.00  0.00    +0.000 C 
BRANCH  20  23
ATOM     22  C   UNL     1       1.103   3.228  19.437  0.00  0.00    +0.000 C 
ATOM     23  O   UNL     1       0.791   3.283  18.051  0.00  0.00    +0.000 OA
ENDBRANCH  20  23
ENDBRANCH  11  21
ENDBRANCH   1  17
BRANCH   7  24
ATOM     24  C   UNL     1      -1.721  11.357  19.331  0.00  0.00    +0.000 A 
ATOM     25  C   UNL     1      -1.724  12.283  20.367  0.00  0.00    +0.000 A 
ATOM     26  C   UNL     1      -2.881  13.005  20.679  0.00  0.00    +0.000 A 
ATOM     27  C   UNL     1      -4.075  12.871  19.956  0.00  0.00    +0.000 A 
ATOM     28  C   UNL     1      -4.035  11.962  18.885  0.00  0.00    +0.000 A 
ATOM     29  C   UNL     1      -2.881  11.220  18.571  0.00  0.00    +0.000 A 
BRANCH  27  30
ATOM     30  N   UNL     1      -5.218  13.561  20.329  0.00  0.00    +0.000 N 
ATOM     31  C   UNL     1      -6.548  13.057  19.985  0.00  0.00    +0.000 C 
ATOM     32  C   UNL     1      -5.208  14.592  21.360  0.00  0.00    +0.000 C 
ENDBRANCH  27  30
ENDBRANCH   7  24
TORSDOF 5
ENDMDL
MODEL 6
REMARK VINA RESULT:      -6.5      1.374      1.879
REMARK  Name = 
REMARK  8 active torsions:
REMARK  status: ('A' for Active; 'I' for Inactive)
REMARK    1  A    between atoms: C_1  and  O_2
REMARK    2  A    between atoms: O_2  and  N_3
REMARK    3  A    between atoms: C_4  and  C_5
REMARK    4  A    between atoms: C_11  and  N_12
REMARK    5  A    between atoms: N_18  and  C_19
REMARK    6  A    between atoms: C_22  and  N_23
REMARK    7  A    between atoms: N_23  and  C_24
REMARK    8  A    between atoms: N_23  and  C_25
REMARK                            x       y       z     vdW  Elec       q    Type
REMARK                         _______ _______ _______ _____ _____    ______ ____
ROOT
ATOM      1  N   UNL     1       2.257   6.300  19.583  0.00  0.00    +0.000 N 
ATOM      2  C   UNL     1       3.038   6.837  18.465  0.00  0.00    +0.000 C 
ATOM      3  C   UNL     1       2.197   7.959  17.823  0.00  0.00    +0.000 C 
ATOM      4  N   UNL     1       1.765   8.968  18.818  0.00  0.00    +0.000 N 
ATOM      5  C   UNL     1       1.762  10.291  18.421  0.00  0.00    +0.000 C 
ATOM      6  O   UNL     1       2.114  10.595  17.281  0.00  0.00    +0.000 OA
ATOM      7  N   UNL     1       1.389  11.203  19.385  0.00  0.00    +0.000 N 
ATOM      8  C   UNL     1       1.118   8.404  20.016  0.00  0.00    +0.000 C 
ATOM      9  C   UNL     1       1.994   7.297  20.634  0.00  0.00    +0.000 C 
ATOM     10  H   UNL     1       1.455  10.901  20.342  0.00  0.00    +0.000 HD
ENDROOT
BRANCH   1  17
ATOM     11  C   UNL     1       3.625   4.313  19.702  0.00  0.00    +0.000 A 
ATOM     12  C   UNL     1       3.734   2.987  20.097  0.00  0.00    +0.000 A 
ATOM     13  N   UNL     1       4.932   2.282  20.014  0.00  0.00    +0.000 N 
ATOM     14  N   UNL     1       2.725   2.347  20.710  0.00  0.00    +0.000 NA
ATOM     15  C   UNL     1       1.617   3.068  20.931  0.00  0.00    +0.000 A 
ATOM     16  N   UNL     1       1.417   4.353  20.586  0.00  0.00    +0.000 NA
ATOM     17  C   UNL     1       2.423   4.972  19.948  0.00  0.00    +0.000 A 
ATOM     18  H   UNL     1       5.412   2.458  19.131  0.00  0.00    +0.000 HD
ATOM     19  H   UNL     1       4.780   1.306  20.231  0.00  0.00    +0.000 HD
BRANCH  11  21
ATOM     20  N   UNL     1       5.917   5.080  19.643  0.00  0.00    +0.000 NA
ATOM     21  C   UNL     1       4.747   5.022  19.082  0.00  0.00    +0.000 C 
BRANCH  20  23
ATOM     22  C   UNL     1       7.208   4.847  17.770  0.00  0.00    +0.000 C 
ATOM     23  O   UNL     1       6.791   5.757  18.780  0.00  0.00    +0.000 OA
ENDBRANCH  20  23
ENDBRANCH  11  21
ENDBRANCH   1  17
BRANCH   7  24
ATOM     24  C   UNL     1       1.281  12.597  19.197  0.00  0.00    +0.000 A 
ATOM     25  C   UNL     1       2.352  13.470  19.343  0.00  0.00    +0.000 A 
ATOM     26  C   UNL     1       2.171  14.852  19.223  0.00  0.00    +0.000 A 
ATOM     27  C   UNL     1       0.930  15.428  18.916  0.00  0.00    +0.000 A 
ATOM     28  C   UNL     1      -0.128  14.524  18.729  0.00  0.00    +0.000 A 
ATOM     29  C   UNL     1       0.039  13.132  18.861  0.00  0.00    +0.000 A 
BRANCH  27  30
ATOM     30  N   UNL     1       0.775  16.805  18.861  0.00  0.00    +0.000 N 
ATOM     31  C   UNL     1      -0.415  17.407  18.259  0.00  0.00    +0.000 C 
ATOM     32  C   UNL     1       1.563  17.715  19.685  0.00  0.00    +0.000 C 
ENDBRANCH  27  30
ENDBRANCH   7  24
TORSDOF 5
ENDMDL
MODEL 7
REMARK VINA RESULT:      -6.5      2.589     10.180
REMARK  Name = 
REMARK  8 active torsions:
REMARK  status: ('A' for Active; 'I' for Inactive)
REMARK    1  A    between atoms: C_1  and  O_2
REMARK    2  A    between atoms: O_2  and  N_3
REMARK    3  A    between atoms: C_4  and  C_5
REMARK    4  A    between atoms: C_11  and  N_12
REMARK    5  A    between atoms: N_18  and  C_19
REMARK    6  A    between atoms: C_22  and  N_23
REMARK    7  A    between atoms: N_23  and  C_24
REMARK    8  A    between atoms: N_23  and  C_25
REMARK                            x       y       z     vdW  Elec       q    Type
REMARK                         _______ _______ _______ _____ _____    ______ ____
ROOT
ATOM      1  N   UNL     1      -0.590  11.926  20.437  0.00  0.00    +0.000 N 
ATOM      2  C   UNL     1      -0.569  11.460  19.048  0.00  0.00    +0.000 C 
ATOM      3  C   UNL     1       0.775  10.736  18.832  0.00  0.00    +0.000 C 
ATOM      4  N   UNL     1       1.006   9.679  19.845  0.00  0.00    +0.000 N 
ATOM      5  C   UNL     1       1.602   8.508  19.417  0.00  0.00    +0.000 C 
ATOM      6  O   UNL     1       1.917   8.372  18.235  0.00  0.00    +0.000 OA
ATOM      7  N   UNL     1       1.766   7.535  20.379  0.00  0.00    +0.000 N 
ATOM      8  C   UNL     1       0.828  10.121  21.239  0.00  0.00    +0.000 C 
ATOM      9  C   UNL     1      -0.530  10.827  21.415  0.00  0.00    +0.000 C 
ATOM     10  H   UNL     1       1.185   7.605  21.197  0.00  0.00    +0.000 HD
ENDROOT
BRANCH   1  17
ATOM     11  C   UNL     1      -0.657  14.221  21.184  0.00  0.00    +0.000 A 
ATOM     12  C   UNL     1      -1.430  15.335  21.482  0.00  0.00    +0.000 A 
ATOM     13  N   UNL     1      -0.867  16.571  21.790  0.00  0.00    +0.000 N 
ATOM     14  N   UNL     1      -2.767  15.321  21.359  0.00  0.00    +0.000 NA
ATOM     15  C   UNL     1      -3.306  14.177  20.915  0.00  0.00    +0.000 A 
ATOM     16  N   UNL     1      -2.643  13.050  20.601  0.00  0.00    +0.000 NA
ATOM     17  C   UNL     1      -1.310  13.068  20.758  0.00  0.00    +0.000 A 
ATOM     18  H   UNL     1      -0.073  16.476  22.424  0.00  0.00    +0.000 HD
ATOM     19  H   UNL     1      -1.583  17.216  22.096  0.00  0.00    +0.000 HD
BRANCH  11  21
ATOM     20  N   UNL     1       1.421  14.594  22.363  0.00  0.00    +0.000 NA
ATOM     21  C   UNL     1       0.806  14.259  21.270  0.00  0.00    +0.000 C 
BRANCH  20  23
ATOM     22  C   UNL     1       3.001  13.851  20.886  0.00  0.00    +0.000 C 
ATOM     23  O   UNL     1       2.802  14.463  22.154  0.00  0.00    +0.000 OA
ENDBRANCH  20  23
ENDBRANCH  11  21
ENDBRANCH   1  17
BRANCH   7  24
ATOM     24  C   UNL     1       2.379   6.281  20.180  0.00  0.00    +0.000 A 
ATOM     25  C   UNL     1       3.485   6.097  19.359  0.00  0.00    +0.000 A 
ATOM     26  C   UNL     1       4.006   4.817  19.135  0.00  0.00    +0.000 A 
ATOM     27  C   UNL     1       3.477   3.669  19.741  0.00  0.00    +0.000 A 
ATOM     28  C   UNL     1       2.388   3.885  20.600  0.00  0.00    +0.000 A 
ATOM     29  C   UNL     1       1.847   5.165  20.823  0.00  0.00    +0.000 A 
BRANCH  27  30
ATOM     30  N   UNL     1       3.982   2.411  19.451  0.00  0.00    +0.000 N 
ATOM     31  C   UNL     1       4.790   1.679  20.427  0.00  0.00    +0.000 C 
ATOM     32  C   UNL     1       3.470   1.595  18.355  0.00  0.00    +0.000 C 
ENDBRANCH  27  30
ENDBRANCH   7  24
TORSDOF 5
ENDMDL
MODEL 8
REMARK VINA RESULT:      -6.4      3.559      4.479
REMARK  Name = 
REMARK  8 active torsions:
REMARK  status: ('A' for Active; 'I' for Inactive)
REMARK    1  A    between atoms: C_1  and  O_2
REMARK    2  A    between atoms: O_2  and  N_3
REMARK    3  A    between atoms: C_4  and  C_5
REMARK    4  A    between atoms: C_11  and  N_12
REMARK    5  A    between atoms: N_18  and  C_19
REMARK    6  A    between atoms: C_22  and  N_23
REMARK    7  A    between atoms: N_23  and  C_24
REMARK    8  A    between atoms: N_23  and  C_25
REMARK                            x       y       z     vdW  Elec       q    Type
REMARK                         _______ _______ _______ _____ _____    ______ ____
ROOT
ATOM      1  N   UNL     1       2.466   7.661  18.513  0.00  0.00    +0.000 N 
ATOM      2  C   UNL     1       2.223   8.908  17.783  0.00  0.00    +0.000 C 
ATOM      3  C   UNL     1       0.825   9.412  18.197  0.00  0.00    +0.000 C 
ATOM      4  N   UNL     1       0.686   9.518  19.668  0.00  0.00    +0.000 N 
ATOM      5  C   UNL     1      -0.025  10.593  20.163  0.00  0.00    +0.000 C 
ATOM      6  O   UNL     1      -0.513  11.420  19.392  0.00  0.00    +0.000 OA
ATOM      7  N   UNL     1      -0.102  10.678  21.537  0.00  0.00    +0.000 N 
ATOM      8  C   UNL     1       1.084   8.306  20.407  0.00  0.00    +0.000 C 
ATOM      9  C   UNL     1       2.489   7.843  19.974  0.00  0.00    +0.000 C 
ATOM     10  H   UNL     1       0.593  10.172  22.060  0.00  0.00    +0.000 HD
ENDROOT
BRANCH   1  17
ATOM     11  C   UNL     1       3.162   5.357  18.321  0.00  0.00    +0.000 A 
ATOM     12  C   UNL     1       4.002   4.433  17.714  0.00  0.00    +0.000 A 
ATOM     13  N   UNL     1       3.873   3.062  17.921  0.00  0.00    +0.000 N 
ATOM     14  N   UNL     1       4.902   4.798  16.786  0.00  0.00    +0.000 NA
ATOM     15  C   UNL     1       4.927   6.100  16.469  0.00  0.00    +0.000 A 
ATOM     16  N   UNL     1       4.157   7.067  17.000  0.00  0.00    +0.000 NA
ATOM     17  C   UNL     1       3.283   6.693  17.947  0.00  0.00    +0.000 A 
ATOM     18  H   UNL     1       3.711   2.843  18.905  0.00  0.00    +0.000 HD
ATOM     19  H   UNL     1       4.647   2.569  17.495  0.00  0.00    +0.000 HD
BRANCH  11  21
ATOM     20  N   UNL     1       1.359   3.936  19.079  0.00  0.00    +0.000 NA
ATOM     21  C   UNL     1       2.147   4.946  19.294  0.00  0.00    +0.000 C 
BRANCH  20  23
ATOM     22  C   UNL     1       1.260   2.906  21.118  0.00  0.00    +0.000 C 
ATOM     23  O   UNL     1       0.557   3.748  20.214  0.00  0.00    +0.000 OA
ENDBRANCH  20  23
ENDBRANCH  11  21
ENDBRANCH   1  17
BRANCH   7  24
ATOM     24  C   UNL     1      -0.802  11.666  22.260  0.00  0.00    +0.000 A 
ATOM     25  C   UNL     1      -1.961  11.402  22.980  0.00  0.00    +0.000 A 
ATOM     26  C   UNL     1      -2.660  12.435  23.614  0.00  0.00    +0.000 A 
ATOM     27  C   UNL     1      -2.224  13.768  23.594  0.00  0.00    +0.000 A 
ATOM     28  C   UNL     1      -1.027  14.003  22.897  0.00  0.00    +0.000 A 
ATOM     29  C   UNL     1      -0.323  12.974  22.243  0.00  0.00    +0.000 A 
BRANCH  27  30
ATOM     30  N   UNL     1      -2.972  14.774  24.184  0.00  0.00    +0.000 N 
ATOM     31  C   UNL     1      -2.520  15.429  25.412  0.00  0.00    +0.000 C 
ATOM     32  C   UNL     1      -4.028  15.486  23.472  0.00  0.00    +0.000 C 
ENDBRANCH  27  30
ENDBRANCH   7  24
TORSDOF 5
ENDMDL
MODEL 9
REMARK VINA RESULT:      -6.4      1.392      1.770
REMARK  Name = 
REMARK  8 active torsions:
REMARK  status: ('A' for Active; 'I' for Inactive)
REMARK    1  A    between atoms: C_1  and  O_2
REMARK    2  A    between atoms: O_2  and  N_3
REMARK    3  A    between atoms: C_4  and  C_5
REMARK    4  A    between atoms: C_11  and  N_12
REMARK    5  A    between atoms: N_18  and  C_19
REMARK    6  A    between atoms: C_22  and  N_23
REMARK    7  A    between atoms: N_23  and  C_24
REMARK    8  A    between atoms: N_23  and  C_25
REMARK                            x       y       z     vdW  Elec       q    Type
REMARK                         _______ _______ _______ _____ _____    ______ ____
ROOT
ATOM      1  N   UNL     1       2.220   6.470  19.445  0.00  0.00    +0.000 N 
ATOM      2  C   UNL     1       2.977   7.053  18.334  0.00  0.00    +0.000 C 
ATOM      3  C   UNL     1       2.148   8.235  17.790  0.00  0.00    +0.000 C 
ATOM      4  N   UNL     1       1.779   9.193  18.859  0.00  0.00    +0.000 N 
ATOM      5  C   UNL     1       1.802  10.537  18.543  0.00  0.00    +0.000 C 
ATOM      6  O   UNL     1       2.123  10.901  17.411  0.00  0.00    +0.000 OA
ATOM      7  N   UNL     1       1.489  11.399  19.572  0.00  0.00    +0.000 N 
ATOM      8  C   UNL     1       1.158   8.574  20.044  0.00  0.00    +0.000 C 
ATOM      9  C   UNL     1       2.022   7.409  20.563  0.00  0.00    +0.000 C 
ATOM     10  H   UNL     1       1.578  11.038  20.507  0.00  0.00    +0.000 HD
ENDROOT
BRANCH   1  17
ATOM     11  C   UNL     1       3.582   4.479  19.541  0.00  0.00    +0.000 A 
ATOM     12  C   UNL     1       3.662   3.128  19.845  0.00  0.00    +0.000 A 
ATOM     13  N   UNL     1       4.867   2.429  19.820  0.00  0.00    +0.000 N 
ATOM     14  N   UNL     1       2.605   2.444  20.312  0.00  0.00    +0.000 NA
ATOM     15  C   UNL     1       1.477   3.147  20.483  0.00  0.00    +0.000 A 
ATOM     16  N   UNL     1       1.302   4.455  20.219  0.00  0.00    +0.000 NA
ATOM     17  C   UNL     1       2.359   5.119  19.724  0.00  0.00    +0.000 A 
ATOM     18  H   UNL     1       5.426   2.671  19.001  0.00  0.00    +0.000 HD
ATOM     19  H   UNL     1       4.702   1.440  19.949  0.00  0.00    +0.000 HD
BRANCH  11  21
ATOM     20  N   UNL     1       5.906   5.134  19.670  0.00  0.00    +0.000 NA
ATOM     21  C   UNL     1       4.753   5.232  19.082  0.00  0.00    +0.000 C 
BRANCH  20  23
ATOM     22  C   UNL     1       7.201   5.195  17.787  0.00  0.00    +0.000 C 
ATOM     23  O   UNL     1       6.835   5.909  18.961  0.00  0.00    +0.000 OA
ENDBRANCH  20  23
ENDBRANCH  11  21
ENDBRANCH   1  17
BRANCH   7  24
ATOM     24  C   UNL     1       1.415  12.803  19.471  0.00  0.00    +0.000 A 
ATOM     25  C   UNL     1       0.284  13.475  19.021  0.00  0.00    +0.000 A 
ATOM     26  C   UNL     1       0.292  14.865  18.866  0.00  0.00    +0.000 A 
ATOM     27  C   UNL     1       1.406  15.656  19.184  0.00  0.00    +0.000 A 
ATOM     28  C   UNL     1       2.521  14.960  19.678  0.00  0.00    +0.000 A 
ATOM     29  C   UNL     1       2.530  13.560  19.826  0.00  0.00    +0.000 A 
BRANCH  27  30
ATOM     30  N   UNL     1       1.397  17.024  18.963  0.00  0.00    +0.000 N 
ATOM     31  C   UNL     1       1.812  17.960  20.009  0.00  0.00    +0.000 C 
ATOM     32  C   UNL     1       1.336  17.601  17.625  0.00  0.00    +0.000 C 
ENDBRANCH  27  30
ENDBRANCH   7  24
TORSDOF 5
ENDMDL
