MODEL 1
REMARK VINA RESULT:      -7.4      0.000      0.000
REMARK  Name = 
REMARK  5 active torsions:
REMARK  status: ('A' for Active; 'I' for Inactive)
REMARK    1  A    between atoms: C_1  and  C_2
REMARK    2  A    between atoms: C_2  and  N_3
REMARK    3  A    between atoms: C_7  and  C_9
REMARK    4  A    between atoms: N_11  and  C_12
REMARK    5  A    between atoms: C_12  and  C_13
REMARK                            x       y       z     vdW  Elec       q    Type
REMARK                         _______ _______ _______ _____ _____    ______ ____
ROOT
ATOM      1  C   UNL     1       1.753   8.353  18.575  0.00  0.00    +0.000 A 
ATOM      2  C   UNL     1       0.927   8.959  17.636  0.00  0.00    +0.000 A 
ATOM      3  N   UNL     1      -0.021   9.719  18.228  0.00  0.00    +0.000 N 
ATOM      4  C   UNL     1       0.177   9.584  19.567  0.00  0.00    +0.000 A 
ATOM      5  C   UNL     1      -0.517  10.193  20.618  0.00  0.00    +0.000 A 
ATOM      6  C   UNL     1      -0.095   9.926  21.937  0.00  0.00    +0.000 A 
ATOM      7 CL   UNL     1      -0.914  10.682  23.293  0.00  0.00    +0.000 Cl
ATOM      8  C   UNL     1       0.998   9.064  22.178  0.00  0.00    +0.000 A 
ATOM      9  C   UNL     1       1.682   8.464  21.111  0.00  0.00    +0.000 A 
ATOM     10  C   UNL     1       1.245   8.743  19.810  0.00  0.00    +0.000 A 
ENDROOT
BRANCH   1  15
ATOM     11  N   UNL     1       3.345   3.602  19.901  0.00  0.00    +0.000 NA
ATOM     12  C   UNL     1       4.542   4.277  19.358  0.00  0.00    +0.000 C 
ATOM     13  C   UNL     1       4.205   5.355  18.285  0.00  0.00    +0.000 C 
ATOM     14  N   UNL     1       3.037   6.159  18.648  0.00  0.00    +0.000 N 
ATOM     15  C   UNL     1       2.942   7.497  18.289  0.00  0.00    +0.000 C 
ATOM     16  O   UNL     1       3.841   7.996  17.617  0.00  0.00    +0.000 OA
ATOM     17  C   UNL     1       1.883   5.397  19.135  0.00  0.00    +0.000 C 
ATOM     18  C   UNL     1       2.284   4.531  20.313  0.00  0.00    +0.000 C 
BRANCH  11  20
ATOM     19  C   UNL     1       3.696   1.634  18.301  0.00  0.00    +0.000 C 
ATOM     20  C   UNL     1       2.943   2.233  19.491  0.00  0.00    +0.000 C 
ENDBRANCH  11  20
ENDBRANCH   1  15
BRANCH   3  21
ATOM     21  C   UNL     1      -0.985  10.549  17.477  0.00  0.00    +0.000 C 
BRANCH  21  22
ATOM     22  C   UNL     1      -2.173   9.703  16.931  0.00  0.00    +0.000 C 
ATOM     23  C   UNL     1      -3.357   9.630  17.913  0.00  0.00    +0.000 C 
ATOM     24  C   UNL     1      -4.099  10.976  18.003  0.00  0.00    +0.000 C 
ATOM     25  C   UNL     1      -4.601  11.401  16.612  0.00  0.00    +0.000 C 
ATOM     26  C   UNL     1      -3.435  11.509  15.621  0.00  0.00    +0.000 C 
ATOM     27  C   UNL     1      -2.680  10.176  15.546  0.00  0.00    +0.000 C 
ENDBRANCH  21  22
ENDBRANCH   3  21
TORSDOF 4
ENDMDL
MODEL 2
REMARK VINA RESULT:      -7.1      3.189      7.791
REMARK  Name = 
REMARK  5 active torsions:
REMARK  status: ('A' for Active; 'I' for Inactive)
REMARK    1  A    between atoms: C_1  and  C_2
REMARK    2  A    between atoms: C_2  and  N_3
REMARK    3  A    between atoms: C_7  and  C_9
REMARK    4  A    between atoms: N_11  and  C_12
REMARK    5  A    between atoms: C_12  and  C_13
REMARK                            x       y       z     vdW  Elec       q    Type
REMARK                         _______ _______ _______ _____ _____    ______ ____
ROOT
ATOM      1  C   UNL     1       2.622   7.441  18.572  0.00  0.00    +0.000 A 
ATOM      2  C   UNL     1       2.114   6.511  19.472  0.00  0.00    +0.000 A 
ATOM      3  N   UNL     1       2.954   5.463  19.627  0.00  0.00    +0.000 N 
ATOM      4  C   UNL     1       4.006   5.704  18.798  0.00  0.00    +0.000 A 
ATOM      5  C   UNL     1       5.162   4.939  18.610  0.00  0.00    +0.000 A 
ATOM      6  C   UNL     1       6.141   5.422  17.717  0.00  0.00    +0.000 A 
ATOM      7 CL   UNL     1       7.622   4.515  17.461  0.00  0.00    +0.000 Cl
ATOM      8  C   UNL     1       5.948   6.645  17.036  0.00  0.00    +0.000 A 
ATOM      9  C   UNL     1       4.783   7.398  17.239  0.00  0.00    +0.000 A 
ATOM     10  C   UNL     1       3.823   6.899  18.129  0.00  0.00    +0.000 A 
ENDROOT
BRANCH   1  15
ATOM     11  N   UNL     1      -0.753  10.720  20.744  0.00  0.00    +0.000 NA
ATOM     12  C   UNL     1      -0.678  11.121  19.324  0.00  0.00    +0.000 C 
ATOM     13  C   UNL     1       0.704  10.816  18.672  0.00  0.00    +0.000 C 
ATOM     14  N   UNL     1       1.235   9.513  19.072  0.00  0.00    +0.000 N 
ATOM     15  C   UNL     1       2.002   8.747  18.204  0.00  0.00    +0.000 C 
ATOM     16  O   UNL     1       2.271   9.201  17.094  0.00  0.00    +0.000 OA
ATOM     17  C   UNL     1       1.156   9.222  20.508  0.00  0.00    +0.000 C 
ATOM     18  C   UNL     1      -0.273   9.354  20.994  0.00  0.00    +0.000 C 
BRANCH  11  20
ATOM     19  C   UNL     1      -1.373  11.312  23.157  0.00  0.00    +0.000 C 
ATOM     20  C   UNL     1      -0.663  11.698  21.858  0.00  0.00    +0.000 C 
ENDBRANCH  11  20
ENDBRANCH   1  15
BRANCH   3  21
ATOM     21  C   UNL     1       2.716   4.365  20.585  0.00  0.00    +0.000 C 
BRANCH  21  22
ATOM     22  C   UNL     1       1.655   3.355  20.055  0.00  0.00    +0.000 C 
ATOM     23  C   UNL     1       1.110   3.735  18.664  0.00  0.00    +0.000 C 
ATOM     24  C   UNL     1       2.164   3.508  17.566  0.00  0.00    +0.000 C 
ATOM     25  C   UNL     1       2.624   2.040  17.562  0.00  0.00    +0.000 C 
ATOM     26  C   UNL     1       3.197   1.645  18.930  0.00  0.00    +0.000 C 
ATOM     27  C   UNL     1       2.157   1.890  20.029  0.00  0.00    +0.000 C 
ENDBRANCH  21  22
ENDBRANCH   3  21
TORSDOF 4
ENDMDL
MODEL 3
REMARK VINA RESULT:      -7.0      3.507      7.586
REMARK  Name = 
REMARK  5 active torsions:
REMARK  status: ('A' for Active; 'I' for Inactive)
REMARK    1  A    between atoms: C_1  and  C_2
REMARK    2  A    between atoms: C_2  and  N_3
REMARK    3  A    between atoms: C_7  and  C_9
REMARK    4  A    between atoms: N_11  and  C_12
REMARK    5  A    between atoms: C_12  and  C_13
REMARK                            x       y       z     vdW  Elec       q    Type
REMARK                         _______ _______ _______ _____ _____    ______ ____
ROOT
ATOM      1  C   UNL     1       2.585   7.225  17.942  0.00  0.00    +0.000 A 
ATOM      2  C   UNL     1       1.823   6.064  18.024  0.00  0.00    +0.000 A 
ATOM      3  N   UNL     1       2.594   4.959  17.925  0.00  0.00    +0.000 N 
ATOM      4  C   UNL     1       3.867   5.407  17.752  0.00  0.00    +0.000 A 
ATOM      5  C   UNL     1       5.046   4.663  17.630  0.00  0.00    +0.000 A 
ATOM      6  C   UNL     1       6.264   5.363  17.499  0.00  0.00    +0.000 A 
ATOM      7 CL   UNL     1       7.775   4.482  17.367  0.00  0.00    +0.000 Cl
ATOM      8  C   UNL     1       6.280   6.776  17.491  0.00  0.00    +0.000 A 
ATOM      9  C   UNL     1       5.087   7.504  17.616  0.00  0.00    +0.000 A 
ATOM     10  C   UNL     1       3.890   6.788  17.743  0.00  0.00    +0.000 A 
ENDROOT
BRANCH   1  15
ATOM     11  N   UNL     1      -0.408   9.821  21.282  0.00  0.00    +0.000 NA
ATOM     12  C   UNL     1      -0.328  10.679  20.082  0.00  0.00    +0.000 C 
ATOM     13  C   UNL     1       1.002  10.504  19.290  0.00  0.00    +0.000 C 
ATOM     14  N   UNL     1       1.415   9.104  19.193  0.00  0.00    +0.000 N 
ATOM     15  C   UNL     1       2.084   8.624  18.075  0.00  0.00    +0.000 C 
ATOM     16  O   UNL     1       2.369   9.408  17.173  0.00  0.00    +0.000 OA
ATOM     17  C   UNL     1       1.343   8.345  20.446  0.00  0.00    +0.000 C 
ATOM     18  C   UNL     1      -0.056   8.419  21.026  0.00  0.00    +0.000 C 
BRANCH  11  20
ATOM     19  C   UNL     1      -1.197  11.401  23.137  0.00  0.00    +0.000 C 
ATOM     20  C   UNL     1      -0.199  10.346  22.656  0.00  0.00    +0.000 C 
ENDBRANCH  11  20
ENDBRANCH   1  15
BRANCH   3  21
ATOM     21  C   UNL     1       2.069   3.585  18.064  0.00  0.00    +0.000 C 
BRANCH  21  22
ATOM     22  C   UNL     1       0.987   3.491  19.181  0.00  0.00    +0.000 C 
ATOM     23  C   UNL     1       0.956   2.113  19.870  0.00  0.00    +0.000 C 
ATOM     24  C   UNL     1       2.186   1.906  20.771  0.00  0.00    +0.000 C 
ATOM     25  C   UNL     1       2.264   3.018  21.831  0.00  0.00    +0.000 C 
ATOM     26  C   UNL     1       2.326   4.401  21.169  0.00  0.00    +0.000 C 
ATOM     27  C   UNL     1       1.111   4.601  20.254  0.00  0.00    +0.000 C 
ENDBRANCH  21  22
ENDBRANCH   3  21
TORSDOF 4
ENDMDL
MODEL 4
REMARK VINA RESULT:      -6.9      3.017      8.072
REMARK  Name = 
REMARK  5 active torsions:
REMARK  status: ('A' for Active; 'I' for Inactive)
REMARK    1  A    between atoms: C_1  and  C_2
REMARK    2  A    between atoms: C_2  and  N_3
REMARK    3  A    between atoms: C_7  and  C_9
REMARK    4  A    between atoms: N_11  and  C_12
REMARK    5  A    between atoms: C_12  and  C_13
REMARK                            x       y       z     vdW  Elec       q    Type
REMARK                         _______ _______ _______ _____ _____    ______ ____
ROOT
ATOM      1  C   UNL     1       2.178   7.271  19.734  0.00  0.00    +0.000 A 
ATOM      2  C   UNL     1       3.078   7.513  18.702  0.00  0.00    +0.000 A 
ATOM      3  N   UNL     1       3.440   6.368  18.082  0.00  0.00    +0.000 N 
ATOM      4  C   UNL     1       2.788   5.369  18.735  0.00  0.00    +0.000 A 
ATOM      5  C   UNL     1       2.796   3.996  18.463  0.00  0.00    +0.000 A 
ATOM      6  C   UNL     1       1.997   3.155  19.265  0.00  0.00    +0.000 A 
ATOM      7 CL   UNL     1       1.951   1.428  18.953  0.00  0.00    +0.000 Cl
ATOM      8  C   UNL     1       1.215   3.693  20.311  0.00  0.00    +0.000 A 
ATOM      9  C   UNL     1       1.219   5.072  20.566  0.00  0.00    +0.000 A 
ATOM     10  C   UNL     1       2.020   5.889  19.759  0.00  0.00    +0.000 A 
ENDROOT
BRANCH   1  15
ATOM     11  N   UNL     1       0.537  12.149  19.133  0.00  0.00    +0.000 NA
ATOM     12  C   UNL     1       0.574  11.927  20.593  0.00  0.00    +0.000 C 
ATOM     13  C   UNL     1       0.327  10.442  20.995  0.00  0.00    +0.000 C 
ATOM     14  N   UNL     1       1.021   9.502  20.114  0.00  0.00    +0.000 N 
ATOM     15  C   UNL     1       1.517   8.296  20.592  0.00  0.00    +0.000 C 
ATOM     16  O   UNL     1       1.327   8.003  21.769  0.00  0.00    +0.000 OA
ATOM     17  C   UNL     1       0.890   9.780  18.680  0.00  0.00    +0.000 C 
ATOM     18  C   UNL     1       1.350  11.191  18.373  0.00  0.00    +0.000 C 
BRANCH  11  20
ATOM     19  C   UNL     1      -1.976  12.070  18.649  0.00  0.00    +0.000 C 
ATOM     20  C   UNL     1      -0.628  12.764  18.446  0.00  0.00    +0.000 C 
ENDBRANCH  11  20
ENDBRANCH   1  15
BRANCH   3  21
ATOM     21  C   UNL     1       4.318   6.328  16.894  0.00  0.00    +0.000 C 
BRANCH  21  22
ATOM     22  C   UNL     1       5.777   6.749  17.240  0.00  0.00    +0.000 C 
ATOM     23  C   UNL     1       6.285   6.123  18.553  0.00  0.00    +0.000 C 
ATOM     24  C   UNL     1       6.548   4.615  18.393  0.00  0.00    +0.000 C 
ATOM     25  C   UNL     1       7.569   4.368  17.269  0.00  0.00    +0.000 C 
ATOM     26  C   UNL     1       7.072   4.958  15.942  0.00  0.00    +0.000 C 
ATOM     27  C   UNL     1       6.788   6.456  16.104  0.00  0.00    +0.000 C 
ENDBRANCH  21  22
ENDBRANCH   3  21
TORSDOF 4
ENDMDL
MODEL 5
REMARK VINA RESULT:      -6.8      3.528      7.733
REMARK  Name = 
REMARK  5 active torsions:
REMARK  status: ('A' for Active; 'I' for Inactive)
REMARK    1  A    between atoms: C_1  and  C_2
REMARK    2  A    between atoms: C_2  and  N_3
REMARK    3  A    between atoms: C_7  and  C_9
REMARK    4  A    between atoms: N_11  and  C_12
REMARK    5  A    between atoms: C_12  and  C_13
REMARK                            x       y       z     vdW  Elec       q    Type
REMARK                         _______ _______ _______ _____ _____    ______ ____
ROOT
ATOM      1  C   UNL     1       2.956   7.137  18.386  0.00  0.00    +0.000 A 
ATOM      2  C   UNL     1       2.962   6.196  19.409  0.00  0.00    +0.000 A 
ATOM      3  N   UNL     1       3.861   5.215  19.173  0.00  0.00    +0.000 N 
ATOM      4  C   UNL     1       4.427   5.509  17.971  0.00  0.00    +0.000 A 
ATOM      5  C   UNL     1       5.441   4.825  17.292  0.00  0.00    +0.000 A 
ATOM      6  C   UNL     1       5.894   5.355  16.066  0.00  0.00    +0.000 A 
ATOM      7 CL   UNL     1       7.180   4.550  15.182  0.00  0.00    +0.000 Cl
ATOM      8  C   UNL     1       5.333   6.543  15.548  0.00  0.00    +0.000 A 
ATOM      9  C   UNL     1       4.319   7.215  16.245  0.00  0.00    +0.000 A 
ATOM     10  C   UNL     1       3.883   6.671  17.459  0.00  0.00    +0.000 A 
ENDROOT
BRANCH   1  15
ATOM     11  N   UNL     1      -0.441   9.509  21.499  0.00  0.00    +0.000 NA
ATOM     12  C   UNL     1      -0.614  10.145  20.177  0.00  0.00    +0.000 C 
ATOM     13  C   UNL     1       0.688  10.147  19.321  0.00  0.00    +0.000 C 
ATOM     14  N   UNL     1       1.419   8.883  19.413  0.00  0.00    +0.000 N 
ATOM     15  C   UNL     1       2.141   8.386  18.336  0.00  0.00    +0.000 C 
ATOM     16  O   UNL     1       2.195   9.049  17.303  0.00  0.00    +0.000 OA
ATOM     17  C   UNL     1       1.579   8.354  20.772  0.00  0.00    +0.000 C 
ATOM     18  C   UNL     1       0.227   8.202  21.439  0.00  0.00    +0.000 C 
BRANCH  11  20
ATOM     19  C   UNL     1      -1.197  11.536  22.870  0.00  0.00    +0.000 C 
ATOM     20  C   UNL     1      -0.310  10.295  22.753  0.00  0.00    +0.000 C 
ENDBRANCH  11  20
ENDBRANCH   1  15
BRANCH   3  21
ATOM     21  C   UNL     1       4.148   4.126  20.130  0.00  0.00    +0.000 C 
BRANCH  21  22
ATOM     22  C   UNL     1       3.431   2.803  19.729  0.00  0.00    +0.000 C 
ATOM     23  C   UNL     1       2.546   2.236  20.856  0.00  0.00    +0.000 C 
ATOM     24  C   UNL     1       1.282   3.090  21.061  0.00  0.00    +0.000 C 
ATOM     25  C   UNL     1       0.474   3.170  19.755  0.00  0.00    +0.000 C 
ATOM     26  C   UNL     1       1.326   3.758  18.622  0.00  0.00    +0.000 C 
ATOM     27  C   UNL     1       2.598   2.922  18.430  0.00  0.00    +0.000 C 
ENDBRANCH  21  22
ENDBRANCH   3  21
TORSDOF 4
ENDMDL
MODEL 6
REMARK VINA RESULT:      -6.8      3.090      8.042
REMARK  Name = 
REMARK  5 active torsions:
REMARK  status: ('A' for Active; 'I' for Inactive)
REMARK    1  A    between atoms: C_1  and  C_2
REMARK    2  A    between atoms: C_2  and  N_3
REMARK    3  A    between atoms: C_7  and  C_9
REMARK    4  A    between atoms: N_11  and  C_12
REMARK    5  A    between atoms: C_12  and  C_13
REMARK                            x       y       z     vdW  Elec       q    Type
REMARK                         _______ _______ _______ _____ _____    ______ ____
ROOT
ATOM      1  C   UNL     1       2.146   7.231  19.799  0.00  0.00    +0.000 A 
ATOM      2  C   UNL     1       3.091   7.418  18.796  0.00  0.00    +0.000 A 
ATOM      3  N   UNL     1       3.405   6.253  18.188  0.00  0.00    +0.000 N 
ATOM      4  C   UNL     1       2.674   5.295  18.821  0.00  0.00    +0.000 A 
ATOM      5  C   UNL     1       2.611   3.923  18.550  0.00  0.00    +0.000 A 
ATOM      6  C   UNL     1       1.739   3.132  19.326  0.00  0.00    +0.000 A 
ATOM      7 CL   UNL     1       1.601   1.410  19.014  0.00  0.00    +0.000 Cl
ATOM      8  C   UNL     1       0.956   3.718  20.346  0.00  0.00    +0.000 A 
ATOM      9  C   UNL     1       1.033   5.095  20.601  0.00  0.00    +0.000 A 
ATOM     10  C   UNL     1       1.906   5.861  19.820  0.00  0.00    +0.000 A 
ENDROOT
BRANCH   1  15
ATOM     11  N   UNL     1       0.728  12.169  19.116  0.00  0.00    +0.000 NA
ATOM     12  C   UNL     1       0.736  11.964  20.579  0.00  0.00    +0.000 C 
ATOM     13  C   UNL     1       0.419  10.497  20.996  0.00  0.00    +0.000 C 
ATOM     14  N   UNL     1       1.082   9.516  20.136  0.00  0.00    +0.000 N 
ATOM     15  C   UNL     1       1.519   8.296  20.635  0.00  0.00    +0.000 C 
ATOM     16  O   UNL     1       1.301   8.026  21.814  0.00  0.00    +0.000 OA
ATOM     17  C   UNL     1       0.983   9.781  18.697  0.00  0.00    +0.000 C 
ATOM     18  C   UNL     1       1.509  11.166  18.379  0.00  0.00    +0.000 C 
BRANCH  11  20
ATOM     19  C   UNL     1      -1.732  12.074  18.413  0.00  0.00    +0.000 C 
ATOM     20  C   UNL     1      -0.399  12.825  18.406  0.00  0.00    +0.000 C 
ENDBRANCH  11  20
ENDBRANCH   1  15
BRANCH   3  21
ATOM     21  C   UNL     1       4.316   6.159  17.029  0.00  0.00    +0.000 C 
BRANCH  21  22
ATOM     22  C   UNL     1       5.197   4.877  17.091  0.00  0.00    +0.000 C 
ATOM     23  C   UNL     1       4.999   3.954  15.872  0.00  0.00    +0.000 C 
ATOM     24  C   UNL     1       5.621   4.560  14.601  0.00  0.00    +0.000 C 
ATOM     25  C   UNL     1       7.121   4.825  14.816  0.00  0.00    +0.000 C 
ATOM     26  C   UNL     1       7.344   5.765  16.008  0.00  0.00    +0.000 C 
ATOM     27  C   UNL     1       6.706   5.175  17.272  0.00  0.00    +0.000 C 
ENDBRANCH  21  22
ENDBRANCH   3  21
TORSDOF 4
ENDMDL
MODEL 7
REMARK VINA RESULT:      -6.8      2.676      7.827
REMARK  Name = 
REMARK  5 active torsions:
REMARK  status: ('A' for Active; 'I' for Inactive)
REMARK    1  A    between atoms: C_1  and  C_2
REMARK    2  A    between atoms: C_2  and  N_3
REMARK    3  A    between atoms: C_7  and  C_9
REMARK    4  A    between atoms: N_11  and  C_12
REMARK    5  A    between atoms: C_12  and  C_13
REMARK                            x       y       z     vdW  Elec       q    Type
REMARK                         _______ _______ _______ _____ _____    ______ ____
ROOT
ATOM      1  C   UNL     1       1.369   8.426  20.305  0.00  0.00    +0.000 A 
ATOM      2  C   UNL     1       1.369   7.248  21.043  0.00  0.00    +0.000 A 
ATOM      3  N   UNL     1       2.113   6.290  20.447  0.00  0.00    +0.000 N 
ATOM      4  C   UNL     1       2.580   6.845  19.296  0.00  0.00    +0.000 A 
ATOM      5  C   UNL     1       3.426   6.280  18.334  0.00  0.00    +0.000 A 
ATOM      6  C   UNL     1       3.808   7.077  17.235  0.00  0.00    +0.000 A 
ATOM      7 CL   UNL     1       4.887   6.428  16.012  0.00  0.00    +0.000 Cl
ATOM      8  C   UNL     1       3.343   8.406  17.117  0.00  0.00    +0.000 A 
ATOM      9  C   UNL     1       2.497   8.954  18.092  0.00  0.00    +0.000 A 
ATOM     10  C   UNL     1       2.129   8.145  19.175  0.00  0.00    +0.000 A 
ENDROOT
BRANCH   1  15
ATOM     11  N   UNL     1      -2.170  11.576  18.204  0.00  0.00    +0.000 NA
ATOM     12  C   UNL     1      -1.527  12.368  19.273  0.00  0.00    +0.000 C 
ATOM     13  C   UNL     1      -1.002  11.497  20.453  0.00  0.00    +0.000 C 
ATOM     14  N   UNL     1      -0.359  10.265  19.995  0.00  0.00    +0.000 N 
ATOM     15  C   UNL     1       0.710   9.709  20.685  0.00  0.00    +0.000 C 
ATOM     16  O   UNL     1       1.088  10.246  21.723  0.00  0.00    +0.000 OA
ATOM     17  C   UNL     1      -1.094   9.524  18.964  0.00  0.00    +0.000 C 
ATOM     18  C   UNL     1      -1.375  10.419  17.773  0.00  0.00    +0.000 C 
BRANCH  11  20
ATOM     19  C   UNL     1      -4.152  11.101  16.654  0.00  0.00    +0.000 C 
ATOM     20  C   UNL     1      -3.644  11.500  18.040  0.00  0.00    +0.000 C 
ENDBRANCH  11  20
ENDBRANCH   1  15
BRANCH   3  21
ATOM     21  C   UNL     1       2.365   4.964  21.047  0.00  0.00    +0.000 C 
BRANCH  21  22
ATOM     22  C   UNL     1       1.181   3.984  20.797  0.00  0.00    +0.000 C 
ATOM     23  C   UNL     1       0.739   3.941  19.322  0.00  0.00    +0.000 C 
ATOM     24  C   UNL     1       1.779   3.222  18.443  0.00  0.00    +0.000 C 
ATOM     25  C   UNL     1       2.014   1.791  18.958  0.00  0.00    +0.000 C 
ATOM     26  C   UNL     1       2.482   1.807  20.420  0.00  0.00    +0.000 C 
ATOM     27  C   UNL     1       1.459   2.543  21.294  0.00  0.00    +0.000 C 
ENDBRANCH  21  22
ENDBRANCH   3  21
TORSDOF 4
ENDMDL
MODEL 8
REMARK VINA RESULT:      -6.7      3.039      8.083
REMARK  Name = 
REMARK  5 active torsions:
REMARK  status: ('A' for Active; 'I' for Inactive)
REMARK    1  A    between atoms: C_1  and  C_2
REMARK    2  A    between atoms: C_2  and  N_3
REMARK    3  A    between atoms: C_7  and  C_9
REMARK    4  A    between atoms: N_11  and  C_12
REMARK    5  A    between atoms: C_12  and  C_13
REMARK                            x       y       z     vdW  Elec       q    Type
REMARK                         _______ _______ _______ _____ _____    ______ ____
ROOT
ATOM      1  C   UNL     1       2.214   7.089  19.698  0.00  0.00    +0.000 A 
ATOM      2  C   UNL     1       3.165   7.282  18.701  0.00  0.00    +0.000 A 
ATOM      3  N   UNL     1       3.440   6.129  18.051  0.00  0.00    +0.000 N 
ATOM      4  C   UNL     1       2.680   5.173  18.650  0.00  0.00    +0.000 A 
ATOM      5  C   UNL     1       2.572   3.815  18.331  0.00  0.00    +0.000 A 
ATOM      6  C   UNL     1       1.675   3.025  19.079  0.00  0.00    +0.000 A 
ATOM      7 CL   UNL     1       1.482   1.321  18.706  0.00  0.00    +0.000 Cl
ATOM      8  C   UNL     1       0.913   3.599  20.121  0.00  0.00    +0.000 A 
ATOM      9  C   UNL     1       1.034   4.962  20.425  0.00  0.00    +0.000 A 
ATOM     10  C   UNL     1       1.931   5.728  19.670  0.00  0.00    +0.000 A 
ENDROOT
BRANCH   1  15
ATOM     11  N   UNL     1       0.786  12.040  19.140  0.00  0.00    +0.000 NA
ATOM     12  C   UNL     1       0.848  11.814  20.599  0.00  0.00    +0.000 C 
ATOM     13  C   UNL     1       0.543  10.341  21.006  0.00  0.00    +0.000 C 
ATOM     14  N   UNL     1       1.171   9.372  20.108  0.00  0.00    +0.000 N 
ATOM     15  C   UNL     1       1.622   8.143  20.572  0.00  0.00    +0.000 C 
ATOM     16  O   UNL     1       1.448   7.857  21.754  0.00  0.00    +0.000 OA
ATOM     17  C   UNL     1       1.018   9.657  18.677  0.00  0.00    +0.000 C 
ATOM     18  C   UNL     1       1.535  11.046  18.360  0.00  0.00    +0.000 C 
BRANCH  11  20
ATOM     19  C   UNL     1      -1.730  12.041  18.664  0.00  0.00    +0.000 C 
ATOM     20  C   UNL     1      -0.366  12.709  18.483  0.00  0.00    +0.000 C 
ENDBRANCH  11  20
ENDBRANCH   1  15
BRANCH   3  21
ATOM     21  C   UNL     1       4.347   6.047  16.888  0.00  0.00    +0.000 C 
BRANCH  21  22
ATOM     22  C   UNL     1       5.450   4.966  17.091  0.00  0.00    +0.000 C 
ATOM     23  C   UNL     1       6.785   5.339  16.418  0.00  0.00    +0.000 C 
ATOM     24  C   UNL     1       7.492   6.484  17.165  0.00  0.00    +0.000 C 
ATOM     25  C   UNL     1       7.740   6.090  18.631  0.00  0.00    +0.000 C 
ATOM     26  C   UNL     1       6.421   5.741  19.333  0.00  0.00    +0.000 C 
ATOM     27  C   UNL     1       5.703   4.616  18.578  0.00  0.00    +0.000 C 
ENDBRANCH  21  22
ENDBRANCH   3  21
TORSDOF 4
ENDMDL
MODEL 9
REMARK VINA RESULT:      -6.6      3.543      7.647
REMARK  Name = 
REMARK  5 active torsions:
REMARK  status: ('A' for Active; 'I' for Inactive)
REMARK    1  A    between atoms: C_1  and  C_2
REMARK    2  A    between atoms: C_2  and  N_3
REMARK    3  A    between atoms: C_7  and  C_9
REMARK    4  A    between atoms: N_11  and  C_12
REMARK    5  A    between atoms: C_12  and  C_13
REMARK                            x       y       z     vdW  Elec       q    Type
REMARK                         _______ _______ _______ _____ _____    ______ ____
ROOT
ATOM      1  C   UNL     1       2.684   7.127  17.833  0.00  0.00    +0.000 A 
ATOM      2  C   UNL     1       1.943   5.951  17.857  0.00  0.00    +0.000 A 
ATOM      3  N   UNL     1       2.730   4.866  17.686  0.00  0.00    +0.000 N 
ATOM      4  C   UNL     1       3.993   5.344  17.523  0.00  0.00    +0.000 A 
ATOM      5  C   UNL     1       5.182   4.629  17.344  0.00  0.00    +0.000 A 
ATOM      6  C   UNL     1       6.386   5.356  17.239  0.00  0.00    +0.000 A 
ATOM      7 CL   UNL     1       7.910   4.509  17.038  0.00  0.00    +0.000 Cl
ATOM      8  C   UNL     1       6.380   6.767  17.311  0.00  0.00    +0.000 A 
ATOM      9  C   UNL     1       5.178   7.466  17.492  0.00  0.00    +0.000 A 
ATOM     10  C   UNL     1       3.994   6.724  17.593  0.00  0.00    +0.000 A 
ENDROOT
BRANCH   1  15
ATOM     11  N   UNL     1      -0.323   9.473  21.341  0.00  0.00    +0.000 NA
ATOM     12  C   UNL     1      -0.266  10.401  20.193  0.00  0.00    +0.000 C 
ATOM     13  C   UNL     1       1.060  10.295  19.382  0.00  0.00    +0.000 C 
ATOM     14  N   UNL     1       1.495   8.910  19.201  0.00  0.00    +0.000 N 
ATOM     15  C   UNL     1       2.163   8.507  18.052  0.00  0.00    +0.000 C 
ATOM     16  O   UNL     1       2.428   9.348  17.196  0.00  0.00    +0.000 OA
ATOM     17  C   UNL     1       1.444   8.077  20.407  0.00  0.00    +0.000 C 
ATOM     18  C   UNL     1       0.049   8.094  20.999  0.00  0.00    +0.000 C 
BRANCH  11  20
ATOM     19  C   UNL     1      -1.054  11.010  23.254  0.00  0.00    +0.000 C 
ATOM     20  C   UNL     1      -0.112   9.919  22.741  0.00  0.00    +0.000 C 
ENDBRANCH  11  20
ENDBRANCH   1  15
BRANCH   3  21
ATOM     21  C   UNL     1       2.229   3.478  17.753  0.00  0.00    +0.000 C 
BRANCH  21  22
ATOM     22  C   UNL     1       2.863   2.692  18.939  0.00  0.00    +0.000 C 
ATOM     23  C   UNL     1       3.494   3.614  20.000  0.00  0.00    +0.000 C 
ATOM     24  C   UNL     1       2.417   4.358  20.810  0.00  0.00    +0.000 C 
ATOM     25  C   UNL     1       1.471   3.352  21.490  0.00  0.00    +0.000 C 
ATOM     26  C   UNL     1       0.808   2.438  20.450  0.00  0.00    +0.000 C 
ATOM     27  C   UNL     1       1.879   1.713  19.626  0.00  0.00    +0.000 C 
ENDBRANCH  21  22
ENDBRANCH   3  21
TORSDOF 4
ENDMDL
