MODEL 1
REMARK VINA RESULT:      -8.2      0.000      0.000
REMARK  Name = 
REMARK  0 active torsions:
REMARK  status: ('A' for Active; 'I' for Inactive)
REMARK                            x       y       z     vdW  Elec       q    Type
REMARK                         _______ _______ _______ _____ _____    ______ ____
ROOT
ATOM      1  O   UNL     1       7.833   6.983  16.892  0.00  0.00    +0.000 OA
ATOM      2  C   UNL     1       6.858   6.246  16.934  0.00  0.00    +0.000 A 
ATOM      3  C   UNL     1       5.992   6.211  18.125  0.00  0.00    +0.000 A 
ATOM      4  C   UNL     1       4.919   5.417  18.203  0.00  0.00    +0.000 A 
ATOM      5  O   UNL     1       4.138   5.421  19.351  0.00  0.00    +0.000 OA
ATOM      6  C   UNL     1       3.049   4.580  19.364  0.00  0.00    +0.000 A 
ATOM      7  C   UNL     1       2.257   4.578  20.512  0.00  0.00    +0.000 A 
ATOM      8  C   UNL     1       1.140   3.746  20.578  0.00  0.00    +0.000 A 
ATOM      9  C   UNL     1       0.817   2.920  19.501  0.00  0.00    +0.000 A 
ATOM     10  C   UNL     1       1.615   2.926  18.355  0.00  0.00    +0.000 A 
ATOM     11  C   UNL     1       2.735   3.755  18.276  0.00  0.00    +0.000 A 
ATOM     12  N   UNL     1       3.507   3.731  17.106  0.00  0.00    +0.000 NA
ATOM     13  C   UNL     1       4.540   4.516  17.073  0.00  0.00    +0.000 A 
ATOM     14  C   UNL     1       5.397   4.539  15.869  0.00  0.00    +0.000 A 
ATOM     15  C   UNL     1       5.090   3.716  14.783  0.00  0.00    +0.000 A 
ATOM     16  C   UNL     1       5.916   3.765  13.677  0.00  0.00    +0.000 A 
ATOM     17  N   UNL     1       7.002   4.564  13.593  0.00  0.00    +0.000 NA
ATOM     18  C   UNL     1       7.276   5.352  14.662  0.00  0.00    +0.000 A 
ATOM     19  C   UNL     1       6.506   5.370  15.812  0.00  0.00    +0.000 A 
ENDROOT
TORSDOF 0
ENDMDL
MODEL 2
REMARK VINA RESULT:      -7.9      1.788      5.778
REMARK  Name = 
REMARK  0 active torsions:
REMARK  status: ('A' for Active; 'I' for Inactive)
REMARK                            x       y       z     vdW  Elec       q    Type
REMARK                         _______ _______ _______ _____ _____    ______ ____
ROOT
ATOM      1  O   UNL     1       6.814   5.507  19.967  0.00  0.00    +0.000 OA
ATOM      2  C   UNL     1       6.447   5.095  18.876  0.00  0.00    +0.000 A 
ATOM      3  C   UNL     1       7.212   5.408  17.657  0.00  0.00    +0.000 A 
ATOM      4  C   UNL     1       6.838   4.973  16.449  0.00  0.00    +0.000 A 
ATOM      5  O   UNL     1       7.594   5.300  15.331  0.00  0.00    +0.000 OA
ATOM      6  C   UNL     1       7.152   4.819  14.121  0.00  0.00    +0.000 A 
ATOM      7  C   UNL     1       7.905   5.141  12.992  0.00  0.00    +0.000 A 
ATOM      8  C   UNL     1       7.504   4.679  11.739  0.00  0.00    +0.000 A 
ATOM      9  C   UNL     1       6.353   3.898  11.617  0.00  0.00    +0.000 A 
ATOM     10  C   UNL     1       5.603   3.581  12.750  0.00  0.00    +0.000 A 
ATOM     11  C   UNL     1       5.995   4.037  14.010  0.00  0.00    +0.000 A 
ATOM     12  N   UNL     1       5.213   3.693  15.122  0.00  0.00    +0.000 NA
ATOM     13  C   UNL     1       5.612   4.137  16.274  0.00  0.00    +0.000 A 
ATOM     14  C   UNL     1       4.832   3.812  17.487  0.00  0.00    +0.000 A 
ATOM     15  C   UNL     1       3.677   3.034  17.382  0.00  0.00    +0.000 A 
ATOM     16  C   UNL     1       2.975   2.754  18.538  0.00  0.00    +0.000 A 
ATOM     17  N   UNL     1       3.348   3.191  19.760  0.00  0.00    +0.000 NA
ATOM     18  C   UNL     1       4.473   3.944  19.833  0.00  0.00    +0.000 A 
ATOM     19  C   UNL     1       5.239   4.276  18.729  0.00  0.00    +0.000 A 
ENDROOT
TORSDOF 0
ENDMDL
MODEL 3
REMARK VINA RESULT:      -7.5      3.237      4.099
REMARK  Name = 
REMARK  0 active torsions:
REMARK  status: ('A' for Active; 'I' for Inactive)
REMARK                            x       y       z     vdW  Elec       q    Type
REMARK                         _______ _______ _______ _____ _____    ______ ____
ROOT
ATOM      1  O   UNL     1       5.149   3.119  19.423  0.00  0.00    +0.000 OA
ATOM      2  C   UNL     1       4.704   4.172  18.989  0.00  0.00    +0.000 A 
ATOM      3  C   UNL     1       3.758   4.974  19.784  0.00  0.00    +0.000 A 
ATOM      4  C   UNL     1       3.254   6.130  19.339  0.00  0.00    +0.000 A 
ATOM      5  O   UNL     1       2.363   6.845  20.128  0.00  0.00    +0.000 OA
ATOM      6  C   UNL     1       1.884   8.026  19.610  0.00  0.00    +0.000 A 
ATOM      7  C   UNL     1       0.990   8.752  20.395  0.00  0.00    +0.000 A 
ATOM      8  C   UNL     1       0.474   9.957  19.919  0.00  0.00    +0.000 A 
ATOM      9  C   UNL     1       0.851  10.432  18.662  0.00  0.00    +0.000 A 
ATOM     10  C   UNL     1       1.746   9.699  17.880  0.00  0.00    +0.000 A 
ATOM     11  C   UNL     1       2.270   8.492  18.346  0.00  0.00    +0.000 A 
ATOM     12  N   UNL     1       3.166   7.789  17.529  0.00  0.00    +0.000 NA
ATOM     13  C   UNL     1       3.630   6.672  17.999  0.00  0.00    +0.000 A 
ATOM     14  C   UNL     1       4.579   5.882  17.188  0.00  0.00    +0.000 A 
ATOM     15  C   UNL     1       4.965   6.341  15.926  0.00  0.00    +0.000 A 
ATOM     16  C   UNL     1       5.852   5.572  15.198  0.00  0.00    +0.000 A 
ATOM     17  N   UNL     1       6.364   4.404  15.642  0.00  0.00    +0.000 NA
ATOM     18  C   UNL     1       5.972   3.982  16.870  0.00  0.00    +0.000 A 
ATOM     19  C   UNL     1       5.087   4.684  17.670  0.00  0.00    +0.000 A 
ENDROOT
TORSDOF 0
ENDMDL
MODEL 4
REMARK VINA RESULT:      -7.3      3.718      5.756
REMARK  Name = 
REMARK  0 active torsions:
REMARK  status: ('A' for Active; 'I' for Inactive)
REMARK                            x       y       z     vdW  Elec       q    Type
REMARK                         _______ _______ _______ _____ _____    ______ ____
ROOT
ATOM      1  O   UNL     1       4.713   3.826  17.206  0.00  0.00    +0.000 OA
ATOM      2  C   UNL     1       4.042   4.588  17.887  0.00  0.00    +0.000 A 
ATOM      3  C   UNL     1       3.785   5.968  17.441  0.00  0.00    +0.000 A 
ATOM      4  C   UNL     1       3.055   6.826  18.162  0.00  0.00    +0.000 A 
ATOM      5  O   UNL     1       2.845   8.117  17.696  0.00  0.00    +0.000 OA
ATOM      6  C   UNL     1       2.085   8.947  18.488  0.00  0.00    +0.000 A 
ATOM      7  C   UNL     1       1.868  10.245  18.028  0.00  0.00    +0.000 A 
ATOM      8  C   UNL     1       1.103  11.129  18.790  0.00  0.00    +0.000 A 
ATOM      9  C   UNL     1       0.559  10.713  20.007  0.00  0.00    +0.000 A 
ATOM     10  C   UNL     1       0.782   9.412  20.462  0.00  0.00    +0.000 A 
ATOM     11  C   UNL     1       1.545   8.519  19.708  0.00  0.00    +0.000 A 
ATOM     12  N   UNL     1       1.742   7.222  20.201  0.00  0.00    +0.000 NA
ATOM     13  C   UNL     1       2.457   6.423  19.470  0.00  0.00    +0.000 A 
ATOM     14  C   UNL     1       2.704   5.041  19.933  0.00  0.00    +0.000 A 
ATOM     15  C   UNL     1       2.169   4.610  21.150  0.00  0.00    +0.000 A 
ATOM     16  C   UNL     1       2.424   3.313  21.549  0.00  0.00    +0.000 A 
ATOM     17  N   UNL     1       3.162   2.442  20.825  0.00  0.00    +0.000 NA
ATOM     18  C   UNL     1       3.668   2.887  19.648  0.00  0.00    +0.000 A 
ATOM     19  C   UNL     1       3.466   4.170  19.169  0.00  0.00    +0.000 A 
ENDROOT
TORSDOF 0
ENDMDL
MODEL 5
REMARK VINA RESULT:      -7.3      3.921      5.891
REMARK  Name = 
REMARK  0 active torsions:
REMARK  status: ('A' for Active; 'I' for Inactive)
REMARK                            x       y       z     vdW  Elec       q    Type
REMARK                         _______ _______ _______ _____ _____    ______ ____
ROOT
ATOM      1  O   UNL     1       4.122   5.218  16.964  0.00  0.00    +0.000 OA
ATOM      2  C   UNL     1       3.473   5.642  17.910  0.00  0.00    +0.000 A 
ATOM      3  C   UNL     1       2.997   7.036  17.931  0.00  0.00    +0.000 A 
ATOM      4  C   UNL     1       2.286   7.531  18.949  0.00  0.00    +0.000 A 
ATOM      5  O   UNL     1       1.864   8.853  18.920  0.00  0.00    +0.000 OA
ATOM      6  C   UNL     1       1.135   9.297  19.999  0.00  0.00    +0.000 A 
ATOM      7  C   UNL     1       0.706  10.623  19.979  0.00  0.00    +0.000 A 
ATOM      8  C   UNL     1      -0.037  11.126  21.047  0.00  0.00    +0.000 A 
ATOM      9  C   UNL     1      -0.347  10.303  22.131  0.00  0.00    +0.000 A 
ATOM     10  C   UNL     1       0.087   8.977  22.147  0.00  0.00    +0.000 A 
ATOM     11  C   UNL     1       0.831   8.462  21.083  0.00  0.00    +0.000 A 
ATOM     12  N   UNL     1       1.245   7.125  21.138  0.00  0.00    +0.000 NA
ATOM     13  C   UNL     1       1.934   6.685  20.129  0.00  0.00    +0.000 A 
ATOM     14  C   UNL     1       2.403   5.284  20.126  0.00  0.00    +0.000 A 
ATOM     15  C   UNL     1       2.103   4.448  21.204  0.00  0.00    +0.000 A 
ATOM     16  C   UNL     1       2.561   3.146  21.164  0.00  0.00    +0.000 A 
ATOM     17  N   UNL     1       3.281   2.641  20.138  0.00  0.00    +0.000 NA
ATOM     18  C   UNL     1       3.557   3.474  19.105  0.00  0.00    +0.000 A 
ATOM     19  C   UNL     1       3.141   4.794  19.059  0.00  0.00    +0.000 A 
ENDROOT
TORSDOF 0
ENDMDL
MODEL 6
REMARK VINA RESULT:      -7.3      4.160      6.350
REMARK  Name = 
REMARK  0 active torsions:
REMARK  status: ('A' for Active; 'I' for Inactive)
REMARK                            x       y       z     vdW  Elec       q    Type
REMARK                         _______ _______ _______ _____ _____    ______ ____
ROOT
ATOM      1  O   UNL     1       2.111  10.177  17.408  0.00  0.00    +0.000 OA
ATOM      2  C   UNL     1       2.004   9.258  18.208  0.00  0.00    +0.000 A 
ATOM      3  C   UNL     1       2.649   7.959  17.951  0.00  0.00    +0.000 A 
ATOM      4  C   UNL     1       2.552   6.934  18.804  0.00  0.00    +0.000 A 
ATOM      5  O   UNL     1       3.177   5.729  18.512  0.00  0.00    +0.000 OA
ATOM      6  C   UNL     1       3.037   4.718  19.434  0.00  0.00    +0.000 A 
ATOM      7  C   UNL     1       3.662   3.504  19.150  0.00  0.00    +0.000 A 
ATOM      8  C   UNL     1       3.554   2.444  20.051  0.00  0.00    +0.000 A 
ATOM      9  C   UNL     1       2.822   2.599  21.229  0.00  0.00    +0.000 A 
ATOM     10  C   UNL     1       2.197   3.816  21.506  0.00  0.00    +0.000 A 
ATOM     11  C   UNL     1       2.299   4.884  20.613  0.00  0.00    +0.000 A 
ATOM     12  N   UNL     1       1.657   6.089  20.931  0.00  0.00    +0.000 NA
ATOM     13  C   UNL     1       1.777   7.057  20.075  0.00  0.00    +0.000 A 
ATOM     14  C   UNL     1       1.123   8.354  20.350  0.00  0.00    +0.000 A 
ATOM     15  C   UNL     1       0.384   8.525  21.523  0.00  0.00    +0.000 A 
ATOM     16  C   UNL     1      -0.213   9.751  21.742  0.00  0.00    +0.000 A 
ATOM     17  N   UNL     1      -0.118  10.790  20.883  0.00  0.00    +0.000 NA
ATOM     18  C   UNL     1       0.605  10.596  19.753  0.00  0.00    +0.000 A 
ATOM     19  C   UNL     1       1.237   9.402  19.449  0.00  0.00    +0.000 A 
ENDROOT
TORSDOF 0
ENDMDL
MODEL 7
REMARK VINA RESULT:      -7.1      3.396      5.362
REMARK  Name = 
REMARK  0 active torsions:
REMARK  status: ('A' for Active; 'I' for Inactive)
REMARK                            x       y       z     vdW  Elec       q    Type
REMARK                         _______ _______ _______ _____ _____    ______ ____
ROOT
ATOM      1  O   UNL     1       2.324   2.604  21.760  0.00  0.00    +0.000 OA
ATOM      2  C   UNL     1       2.374   3.525  20.956  0.00  0.00    +0.000 A 
ATOM      3  C   UNL     1       1.885   4.867  21.319  0.00  0.00    +0.000 A 
ATOM      4  C   UNL     1       1.925   5.894  20.464  0.00  0.00    +0.000 A 
ATOM      5  O   UNL     1       1.448   7.138  20.855  0.00  0.00    +0.000 OA
ATOM      6  C   UNL     1       1.521   8.151  19.927  0.00  0.00    +0.000 A 
ATOM      7  C   UNL     1       1.045   9.404  20.310  0.00  0.00    +0.000 A 
ATOM      8  C   UNL     1       1.095  10.468  19.409  0.00  0.00    +0.000 A 
ATOM      9  C   UNL     1       1.618  10.276  18.129  0.00  0.00    +0.000 A 
ATOM     10  C   UNL     1       2.090   9.018  17.751  0.00  0.00    +0.000 A 
ATOM     11  C   UNL     1       2.047   7.946  18.644  0.00  0.00    +0.000 A 
ATOM     12  N   UNL     1       2.533   6.701  18.224  0.00  0.00    +0.000 NA
ATOM     13  C   UNL     1       2.475   5.731  19.084  0.00  0.00    +0.000 A 
ATOM     14  C   UNL     1       2.971   4.392  18.704  0.00  0.00    +0.000 A 
ATOM     15  C   UNL     1       3.494   4.182  17.426  0.00  0.00    +0.000 A 
ATOM     16  C   UNL     1       3.946   2.916  17.108  0.00  0.00    +0.000 A 
ATOM     17  N   UNL     1       3.907   1.874  17.967  0.00  0.00    +0.000 NA
ATOM     18  C   UNL     1       3.394   2.106  19.201  0.00  0.00    +0.000 A 
ATOM     19  C   UNL     1       2.917   3.341  19.607  0.00  0.00    +0.000 A 
ENDROOT
TORSDOF 0
ENDMDL
MODEL 8
REMARK VINA RESULT:      -7.1      5.133      7.502
REMARK  Name = 
REMARK  0 active torsions:
REMARK  status: ('A' for Active; 'I' for Inactive)
REMARK                            x       y       z     vdW  Elec       q    Type
REMARK                         _______ _______ _______ _____ _____    ______ ____
ROOT
ATOM      1  O   UNL     1       0.681  12.021  18.811  0.00  0.00    +0.000 OA
ATOM      2  C   UNL     1       0.894  10.903  19.259  0.00  0.00    +0.000 A 
ATOM      3  C   UNL     1       1.541   9.871  18.430  0.00  0.00    +0.000 A 
ATOM      4  C   UNL     1       1.787   8.640  18.889  0.00  0.00    +0.000 A 
ATOM      5  O   UNL     1       2.398   7.704  18.065  0.00  0.00    +0.000 OA
ATOM      6  C   UNL     1       2.622   6.457  18.601  0.00  0.00    +0.000 A 
ATOM      7  C   UNL     1       3.236   5.510  17.782  0.00  0.00    +0.000 A 
ATOM      8  C   UNL     1       3.489   4.230  18.275  0.00  0.00    +0.000 A 
ATOM      9  C   UNL     1       3.128   3.900  19.582  0.00  0.00    +0.000 A 
ATOM     10  C   UNL     1       2.512   4.852  20.397  0.00  0.00    +0.000 A 
ATOM     11  C   UNL     1       2.255   6.137  19.915  0.00  0.00    +0.000 A 
ATOM     12  N   UNL     1       1.637   7.062  20.767  0.00  0.00    +0.000 NA
ATOM     13  C   UNL     1       1.416   8.245  20.281  0.00  0.00    +0.000 A 
ATOM     14  C   UNL     1       0.766   9.268  21.127  0.00  0.00    +0.000 A 
ATOM     15  C   UNL     1       0.396   8.953  22.437  0.00  0.00    +0.000 A 
ATOM     16  C   UNL     1      -0.210   9.936  23.195  0.00  0.00    +0.000 A 
ATOM     17  N   UNL     1      -0.463  11.181  22.736  0.00  0.00    +0.000 NA
ATOM     18  C   UNL     1      -0.093  11.459  21.461  0.00  0.00    +0.000 A 
ATOM     19  C   UNL     1       0.519  10.538  20.628  0.00  0.00    +0.000 A 
ENDROOT
TORSDOF 0
ENDMDL
MODEL 9
REMARK VINA RESULT:      -7.1      2.096      5.934
REMARK  Name = 
REMARK  0 active torsions:
REMARK  status: ('A' for Active; 'I' for Inactive)
REMARK                            x       y       z     vdW  Elec       q    Type
REMARK                         _______ _______ _______ _____ _____    ______ ____
ROOT
ATOM      1  O   UNL     1       1.473   6.865  20.859  0.00  0.00    +0.000 OA
ATOM      2  C   UNL     1       2.186   6.146  20.172  0.00  0.00    +0.000 A 
ATOM      3  C   UNL     1       2.799   6.657  18.934  0.00  0.00    +0.000 A 
ATOM      4  C   UNL     1       3.583   5.898  18.161  0.00  0.00    +0.000 A 
ATOM      5  O   UNL     1       4.134   6.429  17.003  0.00  0.00    +0.000 OA
ATOM      6  C   UNL     1       4.931   5.593  16.255  0.00  0.00    +0.000 A 
ATOM      7  C   UNL     1       5.490   6.117  15.090  0.00  0.00    +0.000 A 
ATOM      8  C   UNL     1       6.308   5.314  14.294  0.00  0.00    +0.000 A 
ATOM      9  C   UNL     1       6.563   3.992  14.664  0.00  0.00    +0.000 A 
ATOM     10  C   UNL     1       5.998   3.473  15.831  0.00  0.00    +0.000 A 
ATOM     11  C   UNL     1       5.179   4.267  16.635  0.00  0.00    +0.000 A 
ATOM     12  N   UNL     1       4.635   3.707  17.799  0.00  0.00    +0.000 NA
ATOM     13  C   UNL     1       3.879   4.479  18.519  0.00  0.00    +0.000 A 
ATOM     14  C   UNL     1       3.273   3.949  19.758  0.00  0.00    +0.000 A 
ATOM     15  C   UNL     1       3.516   2.627  20.141  0.00  0.00    +0.000 A 
ATOM     16  C   UNL     1       2.929   2.170  21.305  0.00  0.00    +0.000 A 
ATOM     17  N   UNL     1       2.136   2.932  22.089  0.00  0.00    +0.000 NA
ATOM     18  C   UNL     1       1.917   4.210  21.693  0.00  0.00    +0.000 A 
ATOM     19  C   UNL     1       2.462   4.755  20.543  0.00  0.00    +0.000 A 
ENDROOT
TORSDOF 0
ENDMDL
