MODEL 1
REMARK VINA RESULT:      -5.3      0.000      0.000
REMARK  Name = 
REMARK  3 active torsions:
REMARK  status: ('A' for Active; 'I' for Inactive)
REMARK    1  A    between atoms: C_2  and  O_3
REMARK    2  A    between atoms: C_2  and  C_4
REMARK    3  A    between atoms: C_9  and  O_10
REMARK                            x       y       z     vdW  Elec       q    Type
REMARK                         _______ _______ _______ _____ _____    ______ ____
ROOT
ATOM      1  C   UNL     1       7.060   6.054  17.551  0.00  0.00    +0.000 A 
ATOM      2  C   UNL     1       6.033   6.825  16.983  0.00  0.00    +0.000 A 
ATOM      3  C   UNL     1       5.205   6.289  15.994  0.00  0.00    +0.000 A 
ATOM      4  C   UNL     1       5.393   4.977  15.567  0.00  0.00    +0.000 A 
ATOM      5  C   UNL     1       6.417   4.201  16.112  0.00  0.00    +0.000 A 
ATOM      6  C   UNL     1       7.251   4.744  17.093  0.00  0.00    +0.000 A 
ENDROOT
BRANCH   1   8
ATOM      7  O   UNL     1       8.350   7.838  18.460  0.00  0.00    +0.000 OA
ATOM      8  C   UNL     1       7.906   6.706  18.591  0.00  0.00    +0.000 C 
BRANCH   8   9
ATOM      9  O   UNL     1       8.192   5.948  19.670  0.00  0.00    +0.000 OA
ATOM     10  H   UNL     1       7.392   5.498  20.026  0.00  0.00    +0.000 HD
ENDBRANCH   8   9
ENDBRANCH   1   8
BRANCH   6  11
ATOM     11  O   UNL     1       8.272   3.979  17.600  0.00  0.00    +0.000 OA
ATOM     12  H   UNL     1       8.451   3.255  16.969  0.00  0.00    +0.000 HD
ENDBRANCH   6  11
TORSDOF 3
ENDMDL
MODEL 2
REMARK VINA RESULT:      -5.3      5.650      6.140
REMARK  Name = 
REMARK  3 active torsions:
REMARK  status: ('A' for Active; 'I' for Inactive)
REMARK    1  A    between atoms: C_2  and  O_3
REMARK    2  A    between atoms: C_2  and  C_4
REMARK    3  A    between atoms: C_9  and  O_10
REMARK                            x       y       z     vdW  Elec       q    Type
REMARK                         _______ _______ _______ _____ _____    ______ ____
ROOT
ATOM      1  C   UNL     1       3.195   2.561  20.001  0.00  0.00    +0.000 A 
ATOM      2  C   UNL     1       2.534   3.306  20.991  0.00  0.00    +0.000 A 
ATOM      3  C   UNL     1       1.171   3.587  20.878  0.00  0.00    +0.000 A 
ATOM      4  C   UNL     1       0.455   3.124  19.776  0.00  0.00    +0.000 A 
ATOM      5  C   UNL     1       1.099   2.393  18.777  0.00  0.00    +0.000 A 
ATOM      6  C   UNL     1       2.466   2.123  18.888  0.00  0.00    +0.000 A 
ENDROOT
BRANCH   1   8
ATOM      7  O   UNL     1       5.090   1.655  21.123  0.00  0.00    +0.000 OA
ATOM      8  C   UNL     1       4.653   2.316  20.192  0.00  0.00    +0.000 C 
BRANCH   8   9
ATOM      9  O   UNL     1       5.466   2.913  19.296  0.00  0.00    +0.000 OA
ATOM     10  H   UNL     1       6.378   2.545  19.324  0.00  0.00    +0.000 HD
ENDBRANCH   8   9
ENDBRANCH   1   8
BRANCH   6  11
ATOM     11  O   UNL     1       3.093   1.428  17.884  0.00  0.00    +0.000 OA
ATOM     12  H   UNL     1       3.231   0.511  18.190  0.00  0.00    +0.000 HD
ENDBRANCH   6  11
TORSDOF 3
ENDMDL
MODEL 3
REMARK VINA RESULT:      -5.3      0.510      1.104
REMARK  Name = 
REMARK  3 active torsions:
REMARK  status: ('A' for Active; 'I' for Inactive)
REMARK    1  A    between atoms: C_2  and  O_3
REMARK    2  A    between atoms: C_2  and  C_4
REMARK    3  A    between atoms: C_9  and  O_10
REMARK                            x       y       z     vdW  Elec       q    Type
REMARK                         _______ _______ _______ _____ _____    ______ ____
ROOT
ATOM      1  C   UNL     1       6.974   5.868  17.737  0.00  0.00    +0.000 A 
ATOM      2  C   UNL     1       5.963   6.757  17.338  0.00  0.00    +0.000 A 
ATOM      3  C   UNL     1       5.239   6.532  16.166  0.00  0.00    +0.000 A 
ATOM      4  C   UNL     1       5.516   5.415  15.382  0.00  0.00    +0.000 A 
ATOM      5  C   UNL     1       6.526   4.528  15.757  0.00  0.00    +0.000 A 
ATOM      6  C   UNL     1       7.257   4.762  16.924  0.00  0.00    +0.000 A 
ENDROOT
BRANCH   1   8
ATOM      7  O   UNL     1       7.597   5.515  20.008  0.00  0.00    +0.000 OA
ATOM      8  C   UNL     1       7.708   6.189  18.994  0.00  0.00    +0.000 C 
BRANCH   8   9
ATOM      9  O   UNL     1       8.469   7.303  18.957  0.00  0.00    +0.000 OA
ATOM     10  H   UNL     1       9.152   7.258  18.250  0.00  0.00    +0.000 HD
ENDBRANCH   8   9
ENDBRANCH   1   8
BRANCH   6  11
ATOM     11  O   UNL     1       8.267   3.897  17.266  0.00  0.00    +0.000 OA
ATOM     12  H   UNL     1       7.934   3.303  17.965  0.00  0.00    +0.000 HD
ENDBRANCH   6  11
TORSDOF 3
ENDMDL
MODEL 4
REMARK VINA RESULT:      -5.2      5.486      6.069
REMARK  Name = 
REMARK  3 active torsions:
REMARK  status: ('A' for Active; 'I' for Inactive)
REMARK    1  A    between atoms: C_2  and  O_3
REMARK    2  A    between atoms: C_2  and  C_4
REMARK    3  A    between atoms: C_9  and  O_10
REMARK                            x       y       z     vdW  Elec       q    Type
REMARK                         _______ _______ _______ _____ _____    ______ ____
ROOT
ATOM      1  C   UNL     1       3.249   2.791  19.742  0.00  0.00    +0.000 A 
ATOM      2  C   UNL     1       2.755   3.041  18.452  0.00  0.00    +0.000 A 
ATOM      3  C   UNL     1       1.396   3.288  18.246  0.00  0.00    +0.000 A 
ATOM      4  C   UNL     1       0.519   3.292  19.328  0.00  0.00    +0.000 A 
ATOM      5  C   UNL     1       0.991   3.034  20.615  0.00  0.00    +0.000 A 
ATOM      6  C   UNL     1       2.349   2.775  20.816  0.00  0.00    +0.000 A 
ENDROOT
BRANCH   1   8
ATOM      7  O   UNL     1       5.155   1.678  20.635  0.00  0.00    +0.000 OA
ATOM      8  C   UNL     1       4.709   2.524  19.873  0.00  0.00    +0.000 C 
BRANCH   8   9
ATOM      9  O   UNL     1       5.515   3.309  19.128  0.00  0.00    +0.000 OA
ATOM     10  H   UNL     1       6.461   3.052  19.213  0.00  0.00    +0.000 HD
ENDBRANCH   8   9
ENDBRANCH   1   8
BRANCH   6  11
ATOM     11  O   UNL     1       2.796   2.494  22.084  0.00  0.00    +0.000 OA
ATOM     12  H   UNL     1       3.710   2.160  22.016  0.00  0.00    +0.000 HD
ENDBRANCH   6  11
TORSDOF 3
ENDMDL
MODEL 5
REMARK VINA RESULT:      -5.2      3.829      4.148
REMARK  Name = 
REMARK  3 active torsions:
REMARK  status: ('A' for Active; 'I' for Inactive)
REMARK    1  A    between atoms: C_2  and  O_3
REMARK    2  A    between atoms: C_2  and  C_4
REMARK    3  A    between atoms: C_9  and  O_10
REMARK                            x       y       z     vdW  Elec       q    Type
REMARK                         _______ _______ _______ _____ _____    ______ ____
ROOT
ATOM      1  C   UNL     1       4.238   3.850  18.710  0.00  0.00    +0.000 A 
ATOM      2  C   UNL     1       3.234   4.558  18.029  0.00  0.00    +0.000 A 
ATOM      3  C   UNL     1       1.990   3.973  17.788  0.00  0.00    +0.000 A 
ATOM      4  C   UNL     1       1.734   2.677  18.229  0.00  0.00    +0.000 A 
ATOM      5  C   UNL     1       2.724   1.955  18.897  0.00  0.00    +0.000 A 
ATOM      6  C   UNL     1       3.973   2.539  19.125  0.00  0.00    +0.000 A 
ENDROOT
BRANCH   1   8
ATOM      7  O   UNL     1       5.651   5.548  19.601  0.00  0.00    +0.000 OA
ATOM      8  C   UNL     1       5.542   4.543  18.913  0.00  0.00    +0.000 C 
BRANCH   8   9
ATOM      9  O   UNL     1       6.592   4.014  18.250  0.00  0.00    +0.000 OA
ATOM     10  H   UNL     1       6.305   3.463  17.487  0.00  0.00    +0.000 HD
ENDBRANCH   8   9
ENDBRANCH   1   8
BRANCH   6  11
ATOM     11  O   UNL     1       4.947   1.807  19.758  0.00  0.00    +0.000 OA
ATOM     12  H   UNL     1       4.594   0.912  19.925  0.00  0.00    +0.000 HD
ENDBRANCH   6  11
TORSDOF 3
ENDMDL
MODEL 6
REMARK VINA RESULT:      -5.2      5.408      5.798
REMARK  Name = 
REMARK  3 active torsions:
REMARK  status: ('A' for Active; 'I' for Inactive)
REMARK    1  A    between atoms: C_2  and  O_3
REMARK    2  A    between atoms: C_2  and  C_4
REMARK    3  A    between atoms: C_9  and  O_10
REMARK                            x       y       z     vdW  Elec       q    Type
REMARK                         _______ _______ _______ _____ _____    ______ ____
ROOT
ATOM      1  C   UNL     1       3.215   3.052  19.701  0.00  0.00    +0.000 A 
ATOM      2  C   UNL     1       2.682   4.009  20.580  0.00  0.00    +0.000 A 
ATOM      3  C   UNL     1       1.303   4.213  20.657  0.00  0.00    +0.000 A 
ATOM      4  C   UNL     1       0.443   3.461  19.861  0.00  0.00    +0.000 A 
ATOM      5  C   UNL     1       0.957   2.514  18.973  0.00  0.00    +0.000 A 
ATOM      6  C   UNL     1       2.338   2.321  18.889  0.00  0.00    +0.000 A 
ENDROOT
BRANCH   1   8
ATOM      7  O   UNL     1       5.440   3.822  19.345  0.00  0.00    +0.000 OA
ATOM      8  C   UNL     1       4.698   2.906  19.670  0.00  0.00    +0.000 C 
BRANCH   8   9
ATOM      9  O   UNL     1       5.170   1.681  19.980  0.00  0.00    +0.000 OA
ATOM     10  H   UNL     1       5.417   1.168  19.178  0.00  0.00    +0.000 HD
ENDBRANCH   8   9
ENDBRANCH   1   8
BRANCH   6  11
ATOM     11  O   UNL     1       2.831   1.407  17.992  0.00  0.00    +0.000 OA
ATOM     12  H   UNL     1       2.085   0.870  17.664  0.00  0.00    +0.000 HD
ENDBRANCH   6  11
TORSDOF 3
ENDMDL
MODEL 7
REMARK VINA RESULT:      -5.2      5.368      5.812
REMARK  Name = 
REMARK  3 active torsions:
REMARK  status: ('A' for Active; 'I' for Inactive)
REMARK    1  A    between atoms: C_2  and  O_3
REMARK    2  A    between atoms: C_2  and  C_4
REMARK    3  A    between atoms: C_9  and  O_10
REMARK                            x       y       z     vdW  Elec       q    Type
REMARK                         _______ _______ _______ _____ _____    ______ ____
ROOT
ATOM      1  C   UNL     1       2.558   3.064  19.738  0.00  0.00    +0.000 A 
ATOM      2  C   UNL     1       1.577   3.667  18.935  0.00  0.00    +0.000 A 
ATOM      3  C   UNL     1       1.860   4.027  17.616  0.00  0.00    +0.000 A 
ATOM      4  C   UNL     1       3.125   3.785  17.086  0.00  0.00    +0.000 A 
ATOM      5  C   UNL     1       4.116   3.198  17.874  0.00  0.00    +0.000 A 
ATOM      6  C   UNL     1       3.833   2.850  19.197  0.00  0.00    +0.000 A 
ENDROOT
BRANCH   1   8
ATOM      7  O   UNL     1       2.996   2.350  21.967  0.00  0.00    +0.000 OA
ATOM      8  C   UNL     1       2.178   2.723  21.139  0.00  0.00    +0.000 C 
BRANCH   8   9
ATOM      9  O   UNL     1       0.862   2.808  21.422  0.00  0.00    +0.000 OA
ATOM     10  H   UNL     1       0.688   3.398  22.191  0.00  0.00    +0.000 HD
ENDBRANCH   8   9
ENDBRANCH   1   8
BRANCH   6  11
ATOM     11  O   UNL     1       4.825   2.299  19.970  0.00  0.00    +0.000 OA
ATOM     12  H   UNL     1       4.639   1.346  20.069  0.00  0.00    +0.000 HD
ENDBRANCH   6  11
TORSDOF 3
ENDMDL
MODEL 8
REMARK VINA RESULT:      -5.2      2.311      3.056
REMARK  Name = 
REMARK  3 active torsions:
REMARK  status: ('A' for Active; 'I' for Inactive)
REMARK    1  A    between atoms: C_2  and  O_3
REMARK    2  A    between atoms: C_2  and  C_4
REMARK    3  A    between atoms: C_9  and  O_10
REMARK                            x       y       z     vdW  Elec       q    Type
REMARK                         _______ _______ _______ _____ _____    ______ ____
ROOT
ATOM      1  C   UNL     1       5.842   4.671  17.515  0.00  0.00    +0.000 A 
ATOM      2  C   UNL     1       4.790   4.238  16.691  0.00  0.00    +0.000 A 
ATOM      3  C   UNL     1       3.517   4.018  17.220  0.00  0.00    +0.000 A 
ATOM      4  C   UNL     1       3.281   4.232  18.576  0.00  0.00    +0.000 A 
ATOM      5  C   UNL     1       4.318   4.650  19.411  0.00  0.00    +0.000 A 
ATOM      6  C   UNL     1       5.594   4.857  18.882  0.00  0.00    +0.000 A 
ENDROOT
BRANCH   1   8
ATOM      7  O   UNL     1       7.344   5.645  15.945  0.00  0.00    +0.000 OA
ATOM      8  C   UNL     1       7.173   4.869  16.874  0.00  0.00    +0.000 C 
BRANCH   8   9
ATOM      9  O   UNL     1       8.172   4.099  17.355  0.00  0.00    +0.000 OA
ATOM     10  H   UNL     1       8.333   4.261  18.313  0.00  0.00    +0.000 HD
ENDBRANCH   8   9
ENDBRANCH   1   8
BRANCH   6  11
ATOM     11  O   UNL     1       6.612   5.240  19.720  0.00  0.00    +0.000 OA
ATOM     12  H   UNL     1       6.656   4.600  20.456  0.00  0.00    +0.000 HD
ENDBRANCH   6  11
TORSDOF 3
ENDMDL
MODEL 9
REMARK VINA RESULT:      -5.1      2.274      3.172
REMARK  Name = 
REMARK  3 active torsions:
REMARK  status: ('A' for Active; 'I' for Inactive)
REMARK    1  A    between atoms: C_2  and  O_3
REMARK    2  A    between atoms: C_2  and  C_4
REMARK    3  A    between atoms: C_9  and  O_10
REMARK                            x       y       z     vdW  Elec       q    Type
REMARK                         _______ _______ _______ _____ _____    ______ ____
ROOT
ATOM      1  C   UNL     1       5.904   4.673  17.548  0.00  0.00    +0.000 A 
ATOM      2  C   UNL     1       4.853   4.266  16.711  0.00  0.00    +0.000 A 
ATOM      3  C   UNL     1       3.558   4.123  17.213  0.00  0.00    +0.000 A 
ATOM      4  C   UNL     1       3.300   4.390  18.555  0.00  0.00    +0.000 A 
ATOM      5  C   UNL     1       4.336   4.784  19.404  0.00  0.00    +0.000 A 
ATOM      6  C   UNL     1       5.633   4.913  18.902  0.00  0.00    +0.000 A 
ENDROOT
BRANCH   1   8
ATOM      7  O   UNL     1       8.228   4.182  17.371  0.00  0.00    +0.000 OA
ATOM      8  C   UNL     1       7.259   4.787  16.936  0.00  0.00    +0.000 C 
BRANCH   8   9
ATOM      9  O   UNL     1       7.358   5.640  15.895  0.00  0.00    +0.000 OA
ATOM     10  H   UNL     1       8.248   6.056  15.844  0.00  0.00    +0.000 HD
ENDBRANCH   8   9
ENDBRANCH   1   8
BRANCH   6  11
ATOM     11  O   UNL     1       6.647   5.273  19.754  0.00  0.00    +0.000 OA
ATOM     12  H   UNL     1       7.479   4.895  19.412  0.00  0.00    +0.000 HD
ENDBRANCH   6  11
TORSDOF 3
ENDMDL
