MODEL 1
REMARK VINA RESULT:      -8.6      0.000      0.000
REMARK  Name = 
REMARK  5 active torsions:
REMARK  status: ('A' for Active; 'I' for Inactive)
REMARK    1  A    between atoms: C_1  and  C_2
REMARK    2  A    between atoms: C_5  and  C_6
REMARK    3  A    between atoms: C_19  and  C_21
REMARK    4  A    between atoms: C_24  and  S_25
REMARK    5  A    between atoms: S_25  and  C_26
REMARK                            x       y       z     vdW  Elec       q    Type
REMARK                         _______ _______ _______ _____ _____    ______ ____
ROOT
ATOM      1  C   UNL     1      -0.601  12.154  19.382  0.00  0.00    +0.000 C 
ATOM      2  C   UNL     1      -1.172  12.371  20.774  0.00  0.00    +0.000 A 
ATOM      3  C   UNL     1      -0.535  12.709  21.966  0.00  0.00    +0.000 A 
ATOM      4  C   UNL     1      -1.312  13.008  23.089  0.00  0.00    +0.000 A 
ATOM      5  C   UNL     1      -2.714  13.001  23.011  0.00  0.00    +0.000 A 
ATOM      6  C   UNL     1      -3.354  12.701  21.809  0.00  0.00    +0.000 A 
ATOM      7  C   UNL     1      -2.560  12.394  20.718  0.00  0.00    +0.000 A 
ATOM      8  C   UNL     1      -2.966  12.081  19.351  0.00  0.00    +0.000 C 
ATOM      9  O   UNL     1      -4.102  11.839  19.009  0.00  0.00    +0.000 OA
ATOM     10  N   UNL     1      -1.818  12.029  18.578  0.00  0.00    +0.000 N 
ATOM     11  C   UNL     1      -1.689  11.034  17.541  0.00  0.00    +0.000 C 
ATOM     12  C   UNL     1      -0.507  10.195  17.980  0.00  0.00    +0.000 C 
ATOM     13  N   UNL     1       0.060  10.853  19.164  0.00  0.00    +0.000 N 
ATOM     14  C   UNL     1       1.004  10.288  20.016  0.00  0.00    +0.000 C 
ATOM     15  O   UNL     1       1.488  10.868  20.984  0.00  0.00    +0.000 OA
ENDROOT
BRANCH   1  20
ATOM     16  C   UNL     1       2.616  16.861  19.215  0.00  0.00    +0.000 C 
ATOM     17  C   UNL     1       1.730  15.720  18.821  0.00  0.00    +0.000 A 
ATOM     18  C   UNL     1       0.349  15.829  18.953  0.00  0.00    +0.000 A 
ATOM     19  C   UNL     1      -0.424  14.674  18.949  0.00  0.00    +0.000 A 
ATOM     20  C   UNL     1       0.178  13.396  18.891  0.00  0.00    +0.000 A 
ATOM     21  C   UNL     1       1.503  13.338  18.446  0.00  0.00    +0.000 A 
ATOM     22  C   UNL     1       2.276  14.502  18.407  0.00  0.00    +0.000 A 
ENDBRANCH   1  20
BRANCH  14  23
ATOM     23  C   UNL     1       1.440   8.866  19.821  0.00  0.00    +0.000 A 
ATOM     24  C   UNL     1       2.132   8.442  18.688  0.00  0.00    +0.000 A 
ATOM     25  C   UNL     1       2.548   7.104  18.558  0.00  0.00    +0.000 A 
ATOM     26  C   UNL     1       2.342   6.190  19.597  0.00  0.00    +0.000 A 
ATOM     27  C   UNL     1       1.653   6.616  20.745  0.00  0.00    +0.000 A 
ATOM     28  C   UNL     1       1.213   7.944  20.854  0.00  0.00    +0.000 A 
BRANCH  26  29
ATOM     29  S   UNL     1       2.924   4.518  19.428  0.00  0.00    +0.000 S 
BRANCH  29  30
ATOM     30  C   UNL     1       1.460   3.714  18.750  0.00  0.00    +0.000 C 
ATOM     31  F   UNL     1       1.679   2.441  18.344  0.00  0.00    +0.000 F 
ATOM     32  F   UNL     1       0.469   3.670  19.674  0.00  0.00    +0.000 F 
ATOM     33  F   UNL     1       0.978   4.397  17.683  0.00  0.00    +0.000 F 
ENDBRANCH  29  30
ENDBRANCH  26  29
ENDBRANCH  14  23
TORSDOF 4
ENDMDL
MODEL 2
REMARK VINA RESULT:      -8.2      0.583      1.098
REMARK  Name = 
REMARK  5 active torsions:
REMARK  status: ('A' for Active; 'I' for Inactive)
REMARK    1  A    between atoms: C_1  and  C_2
REMARK    2  A    between atoms: C_5  and  C_6
REMARK    3  A    between atoms: C_19  and  C_21
REMARK    4  A    between atoms: C_24  and  S_25
REMARK    5  A    between atoms: S_25  and  C_26
REMARK                            x       y       z     vdW  Elec       q    Type
REMARK                         _______ _______ _______ _____ _____    ______ ____
ROOT
ATOM      1  C   UNL     1      -0.579  12.093  19.402  0.00  0.00    +0.000 C 
ATOM      2  C   UNL     1      -1.186  12.388  20.763  0.00  0.00    +0.000 A 
ATOM      3  C   UNL     1      -0.579  12.784  21.954  0.00  0.00    +0.000 A 
ATOM      4  C   UNL     1      -1.384  13.148  23.037  0.00  0.00    +0.000 A 
ATOM      5  C   UNL     1      -2.783  13.149  22.920  0.00  0.00    +0.000 A 
ATOM      6  C   UNL     1      -3.393  12.790  21.718  0.00  0.00    +0.000 A 
ATOM      7  C   UNL     1      -2.572  12.419  20.668  0.00  0.00    +0.000 A 
ATOM      8  C   UNL     1      -2.943  12.038  19.309  0.00  0.00    +0.000 C 
ATOM      9  O   UNL     1      -4.071  11.787  18.948  0.00  0.00    +0.000 OA
ATOM     10  N   UNL     1      -1.775  11.936  18.571  0.00  0.00    +0.000 N 
ATOM     11  C   UNL     1      -1.627  10.886  17.593  0.00  0.00    +0.000 C 
ATOM     12  C   UNL     1      -0.466  10.062  18.109  0.00  0.00    +0.000 C 
ATOM     13  N   UNL     1       0.075  10.777  19.271  0.00  0.00    +0.000 N 
ATOM     14  C   UNL     1       0.990  10.250  20.178  0.00  0.00    +0.000 C 
ATOM     15  O   UNL     1       1.452  10.877  21.127  0.00  0.00    +0.000 OA
ENDROOT
BRANCH   1  20
ATOM     16  C   UNL     1       2.718  16.736  19.073  0.00  0.00    +0.000 C 
ATOM     17  C   UNL     1       1.816  15.594  18.718  0.00  0.00    +0.000 A 
ATOM     18  C   UNL     1       0.436  15.731  18.831  0.00  0.00    +0.000 A 
ATOM     19  C   UNL     1      -0.356  14.590  18.867  0.00  0.00    +0.000 A 
ATOM     20  C   UNL     1       0.225  13.301  18.867  0.00  0.00    +0.000 A 
ATOM     21  C   UNL     1       1.553  13.203  18.439  0.00  0.00    +0.000 A 
ATOM     22  C   UNL     1       2.346  14.351  18.360  0.00  0.00    +0.000 A 
ENDBRANCH   1  20
BRANCH  14  23
ATOM     23  C   UNL     1       1.417   8.816  20.071  0.00  0.00    +0.000 A 
ATOM     24  C   UNL     1       1.026   7.846  20.991  0.00  0.00    +0.000 A 
ATOM     25  C   UNL     1       1.426   6.506  20.838  0.00  0.00    +0.000 A 
ATOM     26  C   UNL     1       2.163   6.106  19.718  0.00  0.00    +0.000 A 
ATOM     27  C   UNL     1       2.552   7.080  18.783  0.00  0.00    +0.000 A 
ATOM     28  C   UNL     1       2.176   8.421  18.959  0.00  0.00    +0.000 A 
BRANCH  26  29
ATOM     29  S   UNL     1       2.612   4.397  19.522  0.00  0.00    +0.000 S 
BRANCH  29  30
ATOM     30  C   UNL     1       2.263   4.151  17.770  0.00  0.00    +0.000 C 
ATOM     31  F   UNL     1       2.050   2.857  17.435  0.00  0.00    +0.000 F 
ATOM     32  F   UNL     1       1.157   4.843  17.403  0.00  0.00    +0.000 F 
ATOM     33  F   UNL     1       3.286   4.601  17.002  0.00  0.00    +0.000 F 
ENDBRANCH  29  30
ENDBRANCH  26  29
ENDBRANCH  14  23
TORSDOF 4
ENDMDL
MODEL 3
REMARK VINA RESULT:      -8.2      2.270      4.419
REMARK  Name = 
REMARK  5 active torsions:
REMARK  status: ('A' for Active; 'I' for Inactive)
REMARK    1  A    between atoms: C_1  and  C_2
REMARK    2  A    between atoms: C_5  and  C_6
REMARK    3  A    between atoms: C_19  and  C_21
REMARK    4  A    between atoms: C_24  and  S_25
REMARK    5  A    between atoms: S_25  and  C_26
REMARK                            x       y       z     vdW  Elec       q    Type
REMARK                         _______ _______ _______ _____ _____    ______ ____
ROOT
ATOM      1  C   UNL     1       0.299  10.624  19.356  0.00  0.00    +0.000 C 
ATOM      2  C   UNL     1       1.302  11.762  19.263  0.00  0.00    +0.000 A 
ATOM      3  C   UNL     1       2.002  12.259  18.166  0.00  0.00    +0.000 A 
ATOM      4  C   UNL     1       2.756  13.428  18.316  0.00  0.00    +0.000 A 
ATOM      5  C   UNL     1       2.781  14.110  19.542  0.00  0.00    +0.000 A 
ATOM      6  C   UNL     1       2.051  13.636  20.632  0.00  0.00    +0.000 A 
ATOM      7  C   UNL     1       1.327  12.469  20.460  0.00  0.00    +0.000 A 
ATOM      8  C   UNL     1       0.460  11.783  21.412  0.00  0.00    +0.000 C 
ATOM      9  O   UNL     1       0.404  12.032  22.596  0.00  0.00    +0.000 OA
ATOM     10  N   UNL     1      -0.190  10.768  20.728  0.00  0.00    +0.000 N 
ATOM     11  C   UNL     1      -0.412   9.494  21.366  0.00  0.00    +0.000 C 
ATOM     12  C   UNL     1       0.375   8.515  20.520  0.00  0.00    +0.000 C 
ATOM     13  N   UNL     1       0.878   9.267  19.364  0.00  0.00    +0.000 N 
ATOM     14  C   UNL     1       1.840   8.807  18.470  0.00  0.00    +0.000 C 
ATOM     15  O   UNL     1       2.224   9.441  17.491  0.00  0.00    +0.000 OA
ENDROOT
BRANCH   1  20
ATOM     16  C   UNL     1      -4.914  10.621  17.039  0.00  0.00    +0.000 C 
ATOM     17  C   UNL     1      -3.443  10.808  17.250  0.00  0.00    +0.000 A 
ATOM     18  C   UNL     1      -2.558   9.775  16.965  0.00  0.00    +0.000 A 
ATOM     19  C   UNL     1      -1.277   9.812  17.504  0.00  0.00    +0.000 A 
ATOM     20  C   UNL     1      -0.892  10.841  18.393  0.00  0.00    +0.000 A 
ATOM     21  C   UNL     1      -1.676  12.000  18.400  0.00  0.00    +0.000 A 
ATOM     22  C   UNL     1      -2.949  11.984  17.825  0.00  0.00    +0.000 A 
ENDBRANCH   1  20
BRANCH  14  23
ATOM     23  C   UNL     1       2.525   7.494  18.708  0.00  0.00    +0.000 A 
ATOM     24  C   UNL     1       2.218   6.673  19.791  0.00  0.00    +0.000 A 
ATOM     25  C   UNL     1       2.865   5.436  19.962  0.00  0.00    +0.000 A 
ATOM     26  C   UNL     1       3.774   4.969  19.007  0.00  0.00    +0.000 A 
ATOM     27  C   UNL     1       4.080   5.790  17.908  0.00  0.00    +0.000 A 
ATOM     28  C   UNL     1       3.454   7.038  17.761  0.00  0.00    +0.000 A 
BRANCH  26  29
ATOM     29  S   UNL     1       4.538   3.378  19.220  0.00  0.00    +0.000 S 
BRANCH  29  30
ATOM     30  C   UNL     1       3.262   2.294  18.552  0.00  0.00    +0.000 C 
ATOM     31  F   UNL     1       2.678   2.772  17.428  0.00  0.00    +0.000 F 
ATOM     32  F   UNL     1       3.781   1.080  18.243  0.00  0.00    +0.000 F 
ATOM     33  F   UNL     1       2.276   2.085  19.458  0.00  0.00    +0.000 F 
ENDBRANCH  29  30
ENDBRANCH  26  29
ENDBRANCH  14  23
TORSDOF 4
ENDMDL
MODEL 4
REMARK VINA RESULT:      -8.2      0.668      1.246
REMARK  Name = 
REMARK  5 active torsions:
REMARK  status: ('A' for Active; 'I' for Inactive)
REMARK    1  A    between atoms: C_1  and  C_2
REMARK    2  A    between atoms: C_5  and  C_6
REMARK    3  A    between atoms: C_19  and  C_21
REMARK    4  A    between atoms: C_24  and  S_25
REMARK    5  A    between atoms: S_25  and  C_26
REMARK                            x       y       z     vdW  Elec       q    Type
REMARK                         _______ _______ _______ _____ _____    ______ ____
ROOT
ATOM      1  C   UNL     1      -0.592  12.121  19.397  0.00  0.00    +0.000 C 
ATOM      2  C   UNL     1      -1.184  12.392  20.770  0.00  0.00    +0.000 A 
ATOM      3  C   UNL     1      -0.567  12.781  21.958  0.00  0.00    +0.000 A 
ATOM      4  C   UNL     1      -1.363  13.121  23.056  0.00  0.00    +0.000 A 
ATOM      5  C   UNL     1      -2.763  13.105  22.957  0.00  0.00    +0.000 A 
ATOM      6  C   UNL     1      -3.384  12.752  21.759  0.00  0.00    +0.000 A 
ATOM      7  C   UNL     1      -2.572  12.405  20.693  0.00  0.00    +0.000 A 
ATOM      8  C   UNL     1      -2.956  12.035  19.334  0.00  0.00    +0.000 C 
ATOM      9  O   UNL     1      -4.085  11.774  18.985  0.00  0.00    +0.000 OA
ATOM     10  N   UNL     1      -1.796  11.958  18.581  0.00  0.00    +0.000 N 
ATOM     11  C   UNL     1      -1.647  10.922  17.588  0.00  0.00    +0.000 C 
ATOM     12  C   UNL     1      -0.468  10.107  18.078  0.00  0.00    +0.000 C 
ATOM     13  N   UNL     1       0.078  10.816  19.242  0.00  0.00    +0.000 N 
ATOM     14  C   UNL     1       1.012  10.290  20.131  0.00  0.00    +0.000 C 
ATOM     15  O   UNL     1       1.478  10.912  21.081  0.00  0.00    +0.000 OA
ENDROOT
BRANCH   1  20
ATOM     16  C   UNL     1       2.659  16.797  19.080  0.00  0.00    +0.000 C 
ATOM     17  C   UNL     1       1.758  15.655  18.724  0.00  0.00    +0.000 A 
ATOM     18  C   UNL     1       0.381  15.778  18.874  0.00  0.00    +0.000 A 
ATOM     19  C   UNL     1      -0.402  14.630  18.907  0.00  0.00    +0.000 A 
ATOM     20  C   UNL     1       0.190  13.346  18.868  0.00  0.00    +0.000 A 
ATOM     21  C   UNL     1       1.507  13.268  18.404  0.00  0.00    +0.000 A 
ATOM     22  C   UNL     1       2.289  14.424  18.329  0.00  0.00    +0.000 A 
ENDBRANCH   1  20
BRANCH  14  23
ATOM     23  C   UNL     1       1.457   8.863  20.001  0.00  0.00    +0.000 A 
ATOM     24  C   UNL     1       1.200   7.905  20.979  0.00  0.00    +0.000 A 
ATOM     25  C   UNL     1       1.610   6.571  20.805  0.00  0.00    +0.000 A 
ATOM     26  C   UNL     1       2.218   6.162  19.613  0.00  0.00    +0.000 A 
ATOM     27  C   UNL     1       2.470   7.124  18.620  0.00  0.00    +0.000 A 
ATOM     28  C   UNL     1       2.087   8.460  18.814  0.00  0.00    +0.000 A 
BRANCH  26  29
ATOM     29  S   UNL     1       2.680   4.459  19.397  0.00  0.00    +0.000 S 
BRANCH  29  30
ATOM     30  C   UNL     1       1.473   3.641  20.459  0.00  0.00    +0.000 C 
ATOM     31  F   UNL     1       1.761   3.733  21.778  0.00  0.00    +0.000 F 
ATOM     32  F   UNL     1       0.242   4.179  20.283  0.00  0.00    +0.000 F 
ATOM     33  F   UNL     1       1.376   2.322  20.160  0.00  0.00    +0.000 F 
ENDBRANCH  29  30
ENDBRANCH  26  29
ENDBRANCH  14  23
TORSDOF 4
ENDMDL
MODEL 5
REMARK VINA RESULT:      -8.2      4.964      7.302
REMARK  Name = 
REMARK  5 active torsions:
REMARK  status: ('A' for Active; 'I' for Inactive)
REMARK    1  A    between atoms: C_1  and  C_2
REMARK    2  A    between atoms: C_5  and  C_6
REMARK    3  A    between atoms: C_19  and  C_21
REMARK    4  A    between atoms: C_24  and  S_25
REMARK    5  A    between atoms: S_25  and  C_26
REMARK                            x       y       z     vdW  Elec       q    Type
REMARK                         _______ _______ _______ _____ _____    ______ ____
ROOT
ATOM      1  C   UNL     1       0.221  10.826  19.293  0.00  0.00    +0.000 C 
ATOM      2  C   UNL     1      -0.076  10.674  20.776  0.00  0.00    +0.000 A 
ATOM      3  C   UNL     1      -0.862  11.453  21.622  0.00  0.00    +0.000 A 
ATOM      4  C   UNL     1      -1.103  11.007  22.925  0.00  0.00    +0.000 A 
ATOM      5  C   UNL     1      -0.591   9.778  23.367  0.00  0.00    +0.000 A 
ATOM      6  C   UNL     1       0.164   8.977  22.510  0.00  0.00    +0.000 A 
ATOM      7  C   UNL     1       0.400   9.450  21.231  0.00  0.00    +0.000 A 
ATOM      8  C   UNL     1       1.120   8.806  20.136  0.00  0.00    +0.000 C 
ATOM      9  O   UNL     1       1.811   7.819  20.253  0.00  0.00    +0.000 OA
ATOM     10  N   UNL     1       0.932   9.580  19.003  0.00  0.00    +0.000 N 
ATOM     11  C   UNL     1       2.016   9.773  18.071  0.00  0.00    +0.000 C 
ATOM     12  C   UNL     1       2.275  11.265  18.110  0.00  0.00    +0.000 C 
ATOM     13  N   UNL     1       1.223  11.852  18.949  0.00  0.00    +0.000 N 
ATOM     14  C   UNL     1       1.227  13.156  19.437  0.00  0.00    +0.000 C 
ATOM     15  O   UNL     1       0.321  13.636  20.113  0.00  0.00    +0.000 OA
ENDROOT
BRANCH   1  20
ATOM     16  C   UNL     1      -3.533  10.291  15.032  0.00  0.00    +0.000 C 
ATOM     17  C   UNL     1      -2.906  10.612  16.354  0.00  0.00    +0.000 A 
ATOM     18  C   UNL     1      -2.229  11.813  16.534  0.00  0.00    +0.000 A 
ATOM     19  C   UNL     1      -1.350  11.942  17.602  0.00  0.00    +0.000 A 
ATOM     20  C   UNL     1      -1.079  10.848  18.456  0.00  0.00    +0.000 A 
ATOM     21  C   UNL     1      -1.993   9.789  18.440  0.00  0.00    +0.000 A 
ATOM     22  C   UNL     1      -2.909   9.675  17.391  0.00  0.00    +0.000 A 
ENDBRANCH   1  20
BRANCH  14  23
ATOM     23  C   UNL     1       2.414  14.044  19.207  0.00  0.00    +0.000 A 
ATOM     24  C   UNL     1       2.552  14.830  18.065  0.00  0.00    +0.000 A 
ATOM     25  C   UNL     1       3.667  15.671  17.901  0.00  0.00    +0.000 A 
ATOM     26  C   UNL     1       4.623  15.793  18.916  0.00  0.00    +0.000 A 
ATOM     27  C   UNL     1       4.483  15.009  20.073  0.00  0.00    +0.000 A 
ATOM     28  C   UNL     1       3.383  14.147  20.216  0.00  0.00    +0.000 A 
BRANCH  26  29
ATOM     29  S   UNL     1       5.996  16.903  18.706  0.00  0.00    +0.000 S 
BRANCH  29  30
ATOM     30  C   UNL     1       7.294  15.751  18.217  0.00  0.00    +0.000 C 
ATOM     31  F   UNL     1       8.341  16.345  17.598  0.00  0.00    +0.000 F 
ATOM     32  F   UNL     1       7.790  15.104  19.300  0.00  0.00    +0.000 F 
ATOM     33  F   UNL     1       6.814  14.804  17.375  0.00  0.00    +0.000 F 
ENDBRANCH  29  30
ENDBRANCH  26  29
ENDBRANCH  14  23
TORSDOF 4
ENDMDL
MODEL 6
REMARK VINA RESULT:      -8.2      4.959      7.381
REMARK  Name = 
REMARK  5 active torsions:
REMARK  status: ('A' for Active; 'I' for Inactive)
REMARK    1  A    between atoms: C_1  and  C_2
REMARK    2  A    between atoms: C_5  and  C_6
REMARK    3  A    between atoms: C_19  and  C_21
REMARK    4  A    between atoms: C_24  and  S_25
REMARK    5  A    between atoms: S_25  and  C_26
REMARK                            x       y       z     vdW  Elec       q    Type
REMARK                         _______ _______ _______ _____ _____    ______ ____
ROOT
ATOM      1  C   UNL     1       0.296  10.978  19.359  0.00  0.00    +0.000 C 
ATOM      2  C   UNL     1       0.066  10.663  20.828  0.00  0.00    +0.000 A 
ATOM      3  C   UNL     1      -0.679  11.343  21.790  0.00  0.00    +0.000 A 
ATOM      4  C   UNL     1      -0.862  10.757  23.046  0.00  0.00    +0.000 A 
ATOM      5  C   UNL     1      -0.331   9.489  23.327  0.00  0.00    +0.000 A 
ATOM      6  C   UNL     1       0.383   8.788  22.354  0.00  0.00    +0.000 A 
ATOM      7  C   UNL     1       0.561   9.399  21.126  0.00  0.00    +0.000 A 
ATOM      8  C   UNL     1       1.230   8.881  19.936  0.00  0.00    +0.000 C 
ATOM      9  O   UNL     1       1.924   7.890  19.913  0.00  0.00    +0.000 OA
ATOM     10  N   UNL     1       0.991   9.773  18.903  0.00  0.00    +0.000 N 
ATOM     11  C   UNL     1       2.032  10.070  17.950  0.00  0.00    +0.000 C 
ATOM     12  C   UNL     1       2.295  11.550  18.140  0.00  0.00    +0.000 C 
ATOM     13  N   UNL     1       1.283  12.039  19.084  0.00  0.00    +0.000 N 
ATOM     14  C   UNL     1       1.311  13.281  19.711  0.00  0.00    +0.000 C 
ATOM     15  O   UNL     1       0.437  13.682  20.475  0.00  0.00    +0.000 OA
ENDROOT
BRANCH   1  20
ATOM     16  C   UNL     1      -5.187  10.511  17.857  0.00  0.00    +0.000 C 
ATOM     17  C   UNL     1      -3.723  10.825  17.845  0.00  0.00    +0.000 A 
ATOM     18  C   UNL     1      -2.805   9.869  17.424  0.00  0.00    +0.000 A 
ATOM     19  C   UNL     1      -1.466  10.020  17.762  0.00  0.00    +0.000 A 
ATOM     20  C   UNL     1      -1.041  11.085  18.589  0.00  0.00    +0.000 A 
ATOM     21  C   UNL     1      -1.911  12.173  18.721  0.00  0.00    +0.000 A 
ATOM     22  C   UNL     1      -3.251  12.042  18.345  0.00  0.00    +0.000 A 
ENDBRANCH   1  20
BRANCH  14  23
ATOM     23  C   UNL     1       2.486  14.194  19.525  0.00  0.00    +0.000 A 
ATOM     24  C   UNL     1       3.554  14.233  20.419  0.00  0.00    +0.000 A 
ATOM     25  C   UNL     1       4.652  15.083  20.193  0.00  0.00    +0.000 A 
ATOM     26  C   UNL     1       4.728  15.852  19.027  0.00  0.00    +0.000 A 
ATOM     27  C   UNL     1       3.658  15.809  18.118  0.00  0.00    +0.000 A 
ATOM     28  C   UNL     1       2.551  14.982  18.366  0.00  0.00    +0.000 A 
BRANCH  26  29
ATOM     29  S   UNL     1       6.151  16.880  18.740  0.00  0.00    +0.000 S 
BRANCH  29  30
ATOM     30  C   UNL     1       7.354  15.652  18.196  0.00  0.00    +0.000 C 
ATOM     31  F   UNL     1       7.890  14.932  19.209  0.00  0.00    +0.000 F 
ATOM     32  F   UNL     1       6.782  14.769  17.342  0.00  0.00    +0.000 F 
ATOM     33  F   UNL     1       8.382  16.236  17.532  0.00  0.00    +0.000 F 
ENDBRANCH  29  30
ENDBRANCH  26  29
ENDBRANCH  14  23
TORSDOF 4
ENDMDL
MODEL 7
REMARK VINA RESULT:      -8.2      0.747      1.308
REMARK  Name = 
REMARK  5 active torsions:
REMARK  status: ('A' for Active; 'I' for Inactive)
REMARK    1  A    between atoms: C_1  and  C_2
REMARK    2  A    between atoms: C_5  and  C_6
REMARK    3  A    between atoms: C_19  and  C_21
REMARK    4  A    between atoms: C_24  and  S_25
REMARK    5  A    between atoms: S_25  and  C_26
REMARK                            x       y       z     vdW  Elec       q    Type
REMARK                         _______ _______ _______ _____ _____    ______ ____
ROOT
ATOM      1  C   UNL     1      -0.809  12.466  19.927  0.00  0.00    +0.000 C 
ATOM      2  C   UNL     1      -1.520  12.387  21.268  0.00  0.00    +0.000 A 
ATOM      3  C   UNL     1      -1.017  12.494  22.563  0.00  0.00    +0.000 A 
ATOM      4  C   UNL     1      -1.911  12.543  23.636  0.00  0.00    +0.000 A 
ATOM      5  C   UNL     1      -3.296  12.520  23.414  0.00  0.00    +0.000 A 
ATOM      6  C   UNL     1      -3.805  12.451  22.117  0.00  0.00    +0.000 A 
ATOM      7  C   UNL     1      -2.896  12.387  21.075  0.00  0.00    +0.000 A 
ATOM      8  C   UNL     1      -3.154  12.345  19.639  0.00  0.00    +0.000 C 
ATOM      9  O   UNL     1      -4.240  12.150  19.140  0.00  0.00    +0.000 OA
ATOM     10  N   UNL     1      -1.936  12.476  18.993  0.00  0.00    +0.000 N 
ATOM     11  C   UNL     1      -1.665  11.712  17.800  0.00  0.00    +0.000 C 
ATOM     12  C   UNL     1      -0.495  10.830  18.184  0.00  0.00    +0.000 C 
ATOM     13  N   UNL     1      -0.074  11.251  19.526  0.00  0.00    +0.000 N 
ATOM     14  C   UNL     1       0.807  10.548  20.343  0.00  0.00    +0.000 C 
ATOM     15  O   UNL     1       1.169  10.935  21.451  0.00  0.00    +0.000 OA
ENDROOT
BRANCH   1  20
ATOM     16  C   UNL     1       1.506  17.210  17.765  0.00  0.00    +0.000 C 
ATOM     17  C   UNL     1       1.117  16.106  18.699  0.00  0.00    +0.000 A 
ATOM     18  C   UNL     1       1.858  14.929  18.739  0.00  0.00    +0.000 A 
ATOM     19  C   UNL     1       1.295  13.793  19.308  0.00  0.00    +0.000 A 
ATOM     20  C   UNL     1      -0.041  13.799  19.773  0.00  0.00    +0.000 A 
ATOM     21  C   UNL     1      -0.626  15.048  20.005  0.00  0.00    +0.000 A 
ATOM     22  C   UNL     1      -0.044  16.201  19.471  0.00  0.00    +0.000 A 
ENDBRANCH   1  20
BRANCH  14  23
ATOM     23  C   UNL     1       1.321   9.205  19.919  0.00  0.00    +0.000 A 
ATOM     24  C   UNL     1       1.857   8.972  18.654  0.00  0.00    +0.000 A 
ATOM     25  C   UNL     1       2.354   7.703  18.305  0.00  0.00    +0.000 A 
ATOM     26  C   UNL     1       2.391   6.669  19.247  0.00  0.00    +0.000 A 
ATOM     27  C   UNL     1       1.860   6.902  20.527  0.00  0.00    +0.000 A 
ATOM     28  C   UNL     1       1.336   8.162  20.857  0.00  0.00    +0.000 A 
BRANCH  26  29
ATOM     29  S   UNL     1       3.073   5.090  18.797  0.00  0.00    +0.000 S 
BRANCH  29  30
ATOM     30  C   UNL     1       1.585   4.209  18.286  0.00  0.00    +0.000 C 
ATOM     31  F   UNL     1       0.898   4.831  17.300  0.00  0.00    +0.000 F 
ATOM     32  F   UNL     1       1.898   2.971  17.830  0.00  0.00    +0.000 F 
ATOM     33  F   UNL     1       0.733   4.046  19.327  0.00  0.00    +0.000 F 
ENDBRANCH  29  30
ENDBRANCH  26  29
ENDBRANCH  14  23
TORSDOF 4
ENDMDL
MODEL 8
REMARK VINA RESULT:      -8.2      1.344      1.482
REMARK  Name = 
REMARK  5 active torsions:
REMARK  status: ('A' for Active; 'I' for Inactive)
REMARK    1  A    between atoms: C_1  and  C_2
REMARK    2  A    between atoms: C_5  and  C_6
REMARK    3  A    between atoms: C_19  and  C_21
REMARK    4  A    between atoms: C_24  and  S_25
REMARK    5  A    between atoms: S_25  and  C_26
REMARK                            x       y       z     vdW  Elec       q    Type
REMARK                         _______ _______ _______ _____ _____    ______ ____
ROOT
ATOM      1  C   UNL     1      -0.622  12.203  19.446  0.00  0.00    +0.000 C 
ATOM      2  C   UNL     1      -1.176  12.422  20.844  0.00  0.00    +0.000 A 
ATOM      3  C   UNL     1      -0.523  12.740  22.033  0.00  0.00    +0.000 A 
ATOM      4  C   UNL     1      -1.285  13.045  23.165  0.00  0.00    +0.000 A 
ATOM      5  C   UNL     1      -2.687  13.063  23.100  0.00  0.00    +0.000 A 
ATOM      6  C   UNL     1      -3.344  12.782  21.901  0.00  0.00    +0.000 A 
ATOM      7  C   UNL     1      -2.565  12.468  20.802  0.00  0.00    +0.000 A 
ATOM      8  C   UNL     1      -2.988  12.172  19.436  0.00  0.00    +0.000 C 
ATOM      9  O   UNL     1      -4.131  11.952  19.103  0.00  0.00    +0.000 OA
ATOM     10  N   UNL     1      -1.848  12.105  18.652  0.00  0.00    +0.000 N 
ATOM     11  C   UNL     1      -1.746  11.115  17.608  0.00  0.00    +0.000 C 
ATOM     12  C   UNL     1      -0.575  10.253  18.031  0.00  0.00    +0.000 C 
ATOM     13  N   UNL     1       0.014  10.893  19.213  0.00  0.00    +0.000 N 
ATOM     14  C   UNL     1       0.956  10.305  20.054  0.00  0.00    +0.000 C 
ATOM     15  O   UNL     1       1.458  10.871  21.021  0.00  0.00    +0.000 OA
ENDROOT
BRANCH   1  20
ATOM     16  C   UNL     1       2.667  16.861  19.282  0.00  0.00    +0.000 C 
ATOM     17  C   UNL     1       1.761  15.736  18.888  0.00  0.00    +0.000 A 
ATOM     18  C   UNL     1       0.383  15.865  19.025  0.00  0.00    +0.000 A 
ATOM     19  C   UNL     1      -0.408  14.722  19.021  0.00  0.00    +0.000 A 
ATOM     20  C   UNL     1       0.174  13.435  18.956  0.00  0.00    +0.000 A 
ATOM     21  C   UNL     1       1.496  13.358  18.506  0.00  0.00    +0.000 A 
ATOM     22  C   UNL     1       2.288  14.510  18.469  0.00  0.00    +0.000 A 
ENDBRANCH   1  20
BRANCH  14  23
ATOM     23  C   UNL     1       1.366   8.878  19.846  0.00  0.00    +0.000 A 
ATOM     24  C   UNL     1       2.011   8.443  18.690  0.00  0.00    +0.000 A 
ATOM     25  C   UNL     1       2.403   7.100  18.547  0.00  0.00    +0.000 A 
ATOM     26  C   UNL     1       2.222   6.189  19.594  0.00  0.00    +0.000 A 
ATOM     27  C   UNL     1       1.580   6.626  20.765  0.00  0.00    +0.000 A 
ATOM     28  C   UNL     1       1.162   7.960  20.888  0.00  0.00    +0.000 A 
BRANCH  26  29
ATOM     29  S   UNL     1       2.775   4.509  19.408  0.00  0.00    +0.000 S 
BRANCH  29  30
ATOM     30  C   UNL     1       4.518   4.764  19.023  0.00  0.00    +0.000 C 
ATOM     31  F   UNL     1       5.092   5.758  19.741  0.00  0.00    +0.000 F 
ATOM     32  F   UNL     1       5.230   3.637  19.268  0.00  0.00    +0.000 F 
ATOM     33  F   UNL     1       4.690   5.066  17.713  0.00  0.00    +0.000 F 
ENDBRANCH  29  30
ENDBRANCH  26  29
ENDBRANCH  14  23
TORSDOF 4
ENDMDL
MODEL 9
REMARK VINA RESULT:      -8.1      5.011      7.413
REMARK  Name = 
REMARK  5 active torsions:
REMARK  status: ('A' for Active; 'I' for Inactive)
REMARK    1  A    between atoms: C_1  and  C_2
REMARK    2  A    between atoms: C_5  and  C_6
REMARK    3  A    between atoms: C_19  and  C_21
REMARK    4  A    between atoms: C_24  and  S_25
REMARK    5  A    between atoms: S_25  and  C_26
REMARK                            x       y       z     vdW  Elec       q    Type
REMARK                         _______ _______ _______ _____ _____    ______ ____
ROOT
ATOM      1  C   UNL     1       0.296  10.967  19.329  0.00  0.00    +0.000 C 
ATOM      2  C   UNL     1       0.082  10.689  20.807  0.00  0.00    +0.000 A 
ATOM      3  C   UNL     1      -0.635  11.403  21.765  0.00  0.00    +0.000 A 
ATOM      4  C   UNL     1      -0.811  10.848  23.036  0.00  0.00    +0.000 A 
ATOM      5  C   UNL     1      -0.302   9.575  23.336  0.00  0.00    +0.000 A 
ATOM      6  C   UNL     1       0.384   8.840  22.368  0.00  0.00    +0.000 A 
ATOM      7  C   UNL     1       0.556   9.421  21.124  0.00  0.00    +0.000 A 
ATOM      8  C   UNL     1       1.196   8.865  19.936  0.00  0.00    +0.000 C 
ATOM      9  O   UNL     1       1.870   7.859  19.925  0.00  0.00    +0.000 OA
ATOM     10  N   UNL     1       0.960   9.739  18.888  0.00  0.00    +0.000 N 
ATOM     11  C   UNL     1       1.992   9.995  17.914  0.00  0.00    +0.000 C 
ATOM     12  C   UNL     1       2.287  11.473  18.068  0.00  0.00    +0.000 C 
ATOM     13  N   UNL     1       1.300  12.002  19.017  0.00  0.00    +0.000 N 
ATOM     14  C   UNL     1       1.362  13.257  19.617  0.00  0.00    +0.000 C 
ATOM     15  O   UNL     1       0.508  13.691  20.385  0.00  0.00    +0.000 OA
ENDROOT
BRANCH   1  20
ATOM     16  C   UNL     1      -5.194  10.479  17.859  0.00  0.00    +0.000 C 
ATOM     17  C   UNL     1      -3.735  10.816  17.847  0.00  0.00    +0.000 A 
ATOM     18  C   UNL     1      -2.807   9.892  17.378  0.00  0.00    +0.000 A 
ATOM     19  C   UNL     1      -1.467  10.049  17.710  0.00  0.00    +0.000 A 
ATOM     20  C   UNL     1      -1.050  11.086  18.576  0.00  0.00    +0.000 A 
ATOM     21  C   UNL     1      -1.934  12.154  18.760  0.00  0.00    +0.000 A 
ATOM     22  C   UNL     1      -3.276  12.019  18.391  0.00  0.00    +0.000 A 
ENDBRANCH   1  20
BRANCH  14  23
ATOM     23  C   UNL     1       2.553  14.141  19.395  0.00  0.00    +0.000 A 
ATOM     24  C   UNL     1       2.692  14.941  18.263  0.00  0.00    +0.000 A 
ATOM     25  C   UNL     1       3.812  15.778  18.107  0.00  0.00    +0.000 A 
ATOM     26  C   UNL     1       4.772  15.880  19.120  0.00  0.00    +0.000 A 
ATOM     27  C   UNL     1       4.630  15.081  20.267  0.00  0.00    +0.000 A 
ATOM     28  C   UNL     1       3.526  14.225  20.402  0.00  0.00    +0.000 A 
BRANCH  26  29
ATOM     29  S   UNL     1       6.151  16.985  18.921  0.00  0.00    +0.000 S 
BRANCH  29  30
ATOM     30  C   UNL     1       7.410  15.850  18.304  0.00  0.00    +0.000 C 
ATOM     31  F   UNL     1       6.924  14.904  17.467  0.00  0.00    +0.000 F 
ATOM     32  F   UNL     1       8.368  16.526  17.624  0.00  0.00    +0.000 F 
ATOM     33  F   UNL     1       8.027  15.205  19.323  0.00  0.00    +0.000 F 
ENDBRANCH  29  30
ENDBRANCH  26  29
ENDBRANCH  14  23
TORSDOF 4
ENDMDL
