MODEL 1
REMARK VINA RESULT:      -6.6      0.000      0.000
REMARK  Name = 
REMARK  7 active torsions:
REMARK  status: ('A' for Active; 'I' for Inactive)
REMARK    1  A    between atoms: C_1  and  C_2
REMARK    2  A    between atoms: C_2  and  C_14
REMARK    3  A    between atoms: N_3  and  N_4
REMARK    4  A    between atoms: N_4  and  C_5
REMARK    5  A    between atoms: C_5  and  C_6
REMARK    6  A    between atoms: C_6  and  C_7
REMARK    7  A    between atoms: C_11  and  C_12
REMARK                            x       y       z     vdW  Elec       q    Type
REMARK                         _______ _______ _______ _____ _____    ______ ____
ROOT
ATOM      1  C   UNL     1       3.324   7.087  17.737  0.00  0.00    +0.000 C 
ENDROOT
BRANCH   1   2
ATOM      2  N   UNL     1       4.675   7.265  17.195  0.00  0.00    +0.000 N 
ATOM      3  H   UNL     1       4.603   7.705  16.281  0.00  0.00    +0.000 HD
BRANCH   2   6
ATOM      4  C   UNL     1       7.500   7.674  17.526  0.00  0.00    +0.000 C 
ATOM      5  C   UNL     1       6.754   6.367  17.409  0.00  0.00    +0.000 C 
ATOM      6  N   UNL     1       5.477   6.185  17.240  0.00  0.00    +0.000 NA
BRANCH   5   7
ATOM      7  C   UNL     1       7.553   5.106  17.691  0.00  0.00    +0.000 C 
ATOM      8  O   UNL     1       7.550   4.644  18.885  0.00  0.00    +0.000 OA
ATOM      9  O   UNL     1       7.944   4.347  16.743  0.00  0.00    +0.000 OA
ENDBRANCH   5   7
ENDBRANCH   2   6
ENDBRANCH   1   2
BRANCH   1  10
ATOM     10  C   UNL     1       3.361   6.382  19.102  0.00  0.00    +0.000 C 
BRANCH  10  11
ATOM     11  C   UNL     1       2.500   5.140  19.183  0.00  0.00    +0.000 A 
ATOM     12  C   UNL     1       1.946   4.591  18.021  0.00  0.00    +0.000 A 
ATOM     13  C   UNL     1       1.196   3.414  18.077  0.00  0.00    +0.000 A 
ATOM     14  C   UNL     1       0.996   2.778  19.300  0.00  0.00    +0.000 A 
ATOM     15  C   UNL     1       1.528   3.311  20.480  0.00  0.00    +0.000 A 
ATOM     16  C   UNL     1       1.338   2.623  21.793  0.00  0.00    +0.000 C 
ATOM     17  C   UNL     1       2.276   4.498  20.409  0.00  0.00    +0.000 A 
ENDBRANCH  10  11
ENDBRANCH   1  10
TORSDOF 5
ENDMDL
MODEL 2
REMARK VINA RESULT:      -6.6      2.320      2.648
REMARK  Name = 
REMARK  7 active torsions:
REMARK  status: ('A' for Active; 'I' for Inactive)
REMARK    1  A    between atoms: C_1  and  C_2
REMARK    2  A    between atoms: C_2  and  C_14
REMARK    3  A    between atoms: N_3  and  N_4
REMARK    4  A    between atoms: N_4  and  C_5
REMARK    5  A    between atoms: C_5  and  C_6
REMARK    6  A    between atoms: C_6  and  C_7
REMARK    7  A    between atoms: C_11  and  C_12
REMARK                            x       y       z     vdW  Elec       q    Type
REMARK                         _______ _______ _______ _____ _____    ______ ____
ROOT
ATOM      1  C   UNL     1       6.104   4.477  18.485  0.00  0.00    +0.000 C 
ENDROOT
BRANCH   1   2
ATOM      2  N   UNL     1       7.060   5.286  17.720  0.00  0.00    +0.000 N 
ATOM      3  H   UNL     1       6.762   6.257  17.752  0.00  0.00    +0.000 HD
BRANCH   2   6
ATOM      4  C   UNL     1       5.392   6.065  15.513  0.00  0.00    +0.000 C 
ATOM      5  C   UNL     1       6.627   5.198  15.488  0.00  0.00    +0.000 C 
ATOM      6  N   UNL     1       7.370   4.830  16.492  0.00  0.00    +0.000 NA
BRANCH   5   7
ATOM      7  C   UNL     1       7.178   4.844  14.117  0.00  0.00    +0.000 C 
ATOM      8  O   UNL     1       6.496   4.051  13.379  0.00  0.00    +0.000 OA
ATOM      9  O   UNL     1       8.101   5.541  13.577  0.00  0.00    +0.000 OA
ENDBRANCH   5   7
ENDBRANCH   2   6
ENDBRANCH   1   2
BRANCH   1  10
ATOM     10  C   UNL     1       5.026   5.359  19.134  0.00  0.00    +0.000 C 
BRANCH  10  11
ATOM     11  C   UNL     1       3.640   4.751  19.128  0.00  0.00    +0.000 A 
ATOM     12  C   UNL     1       2.860   4.789  17.966  0.00  0.00    +0.000 A 
ATOM     13  C   UNL     1       1.602   4.182  17.932  0.00  0.00    +0.000 A 
ATOM     14  C   UNL     1       1.116   3.532  19.065  0.00  0.00    +0.000 A 
ATOM     15  C   UNL     1       1.870   3.489  20.244  0.00  0.00    +0.000 A 
ATOM     16  C   UNL     1       1.366   2.773  21.456  0.00  0.00    +0.000 C 
ATOM     17  C   UNL     1       3.131   4.107  20.265  0.00  0.00    +0.000 A 
ENDBRANCH  10  11
ENDBRANCH   1  10
TORSDOF 5
ENDMDL
MODEL 3
REMARK VINA RESULT:      -6.4      2.246      3.746
REMARK  Name = 
REMARK  7 active torsions:
REMARK  status: ('A' for Active; 'I' for Inactive)
REMARK    1  A    between atoms: C_1  and  C_2
REMARK    2  A    between atoms: C_2  and  C_14
REMARK    3  A    between atoms: N_3  and  N_4
REMARK    4  A    between atoms: N_4  and  C_5
REMARK    5  A    between atoms: C_5  and  C_6
REMARK    6  A    between atoms: C_6  and  C_7
REMARK    7  A    between atoms: C_11  and  C_12
REMARK                            x       y       z     vdW  Elec       q    Type
REMARK                         _______ _______ _______ _____ _____    ______ ____
ROOT
ATOM      1  C   UNL     1       3.754   2.921  18.325  0.00  0.00    +0.000 C 
ENDROOT
BRANCH   1   2
ATOM      2  N   UNL     1       5.031   3.616  18.135  0.00  0.00    +0.000 N 
ATOM      3  H   UNL     1       5.085   4.384  18.799  0.00  0.00    +0.000 HD
BRANCH   2   6
ATOM      4  C   UNL     1       7.665   4.631  17.593  0.00  0.00    +0.000 C 
ATOM      5  C   UNL     1       6.541   4.386  16.616  0.00  0.00    +0.000 C 
ATOM      6  N   UNL     1       5.343   3.945  16.866  0.00  0.00    +0.000 NA
BRANCH   5   7
ATOM      7  C   UNL     1       6.889   4.503  15.142  0.00  0.00    +0.000 C 
ATOM      8  O   UNL     1       6.215   3.805  14.306  0.00  0.00    +0.000 OA
ATOM      9  O   UNL     1       7.587   5.476  14.703  0.00  0.00    +0.000 OA
ENDBRANCH   5   7
ENDBRANCH   2   6
ENDBRANCH   1   2
BRANCH   1  10
ATOM     10  C   UNL     1       2.583   3.751  17.777  0.00  0.00    +0.000 C 
BRANCH  10  11
ATOM     11  C   UNL     1       2.334   5.043  18.526  0.00  0.00    +0.000 A 
ATOM     12  C   UNL     1       2.039   5.018  19.893  0.00  0.00    +0.000 A 
ATOM     13  C   UNL     1       1.862   6.207  20.606  0.00  0.00    +0.000 A 
ATOM     14  C   UNL     1       1.981   7.431  19.950  0.00  0.00    +0.000 A 
ATOM     15  C   UNL     1       2.265   7.485  18.581  0.00  0.00    +0.000 A 
ATOM     16  C   UNL     1       2.418   8.794  17.875  0.00  0.00    +0.000 C 
ATOM     17  C   UNL     1       2.435   6.282  17.876  0.00  0.00    +0.000 A 
ENDBRANCH  10  11
ENDBRANCH   1  10
TORSDOF 5
ENDMDL
MODEL 4
REMARK VINA RESULT:      -6.4      1.984      3.524
REMARK  Name = 
REMARK  7 active torsions:
REMARK  status: ('A' for Active; 'I' for Inactive)
REMARK    1  A    between atoms: C_1  and  C_2
REMARK    2  A    between atoms: C_2  and  C_14
REMARK    3  A    between atoms: N_3  and  N_4
REMARK    4  A    between atoms: N_4  and  C_5
REMARK    5  A    between atoms: C_5  and  C_6
REMARK    6  A    between atoms: C_6  and  C_7
REMARK    7  A    between atoms: C_11  and  C_12
REMARK                            x       y       z     vdW  Elec       q    Type
REMARK                         _______ _______ _______ _____ _____    ______ ____
ROOT
ATOM      1  C   UNL     1       4.361   3.064  19.001  0.00  0.00    +0.000 C 
ENDROOT
BRANCH   1   2
ATOM      2  N   UNL     1       5.679   3.706  18.973  0.00  0.00    +0.000 N 
ATOM      3  H   UNL     1       5.845   4.146  19.874  0.00  0.00    +0.000 HD
BRANCH   2   6
ATOM      4  C   UNL     1       7.691   5.743  19.223  0.00  0.00    +0.000 C 
ATOM      5  C   UNL     1       6.858   5.398  18.013  0.00  0.00    +0.000 C 
ATOM      6  N   UNL     1       5.934   4.489  17.907  0.00  0.00    +0.000 NA
BRANCH   5   7
ATOM      7  C   UNL     1       7.251   6.070  16.708  0.00  0.00    +0.000 C 
ATOM      8  O   UNL     1       7.728   7.257  16.760  0.00  0.00    +0.000 OA
ATOM      9  O   UNL     1       7.415   5.393  15.639  0.00  0.00    +0.000 OA
ENDBRANCH   5   7
ENDBRANCH   2   6
ENDBRANCH   1   2
BRANCH   1  10
ATOM     10  C   UNL     1       3.357   3.820  18.117  0.00  0.00    +0.000 C 
BRANCH  10  11
ATOM     11  C   UNL     1       2.810   5.086  18.741  0.00  0.00    +0.000 A 
ATOM     12  C   UNL     1       2.338   5.073  20.058  0.00  0.00    +0.000 A 
ATOM     13  C   UNL     1       1.882   6.247  20.664  0.00  0.00    +0.000 A 
ATOM     14  C   UNL     1       1.897   7.444  19.951  0.00  0.00    +0.000 A 
ATOM     15  C   UNL     1       2.353   7.484  18.628  0.00  0.00    +0.000 A 
ATOM     16  C   UNL     1       2.394   8.768  17.864  0.00  0.00    +0.000 C 
ATOM     17  C   UNL     1       2.804   6.295  18.031  0.00  0.00    +0.000 A 
ENDBRANCH  10  11
ENDBRANCH   1  10
TORSDOF 5
ENDMDL
MODEL 5
REMARK VINA RESULT:      -6.4      1.731      2.052
REMARK  Name = 
REMARK  7 active torsions:
REMARK  status: ('A' for Active; 'I' for Inactive)
REMARK    1  A    between atoms: C_1  and  C_2
REMARK    2  A    between atoms: C_2  and  C_14
REMARK    3  A    between atoms: N_3  and  N_4
REMARK    4  A    between atoms: N_4  and  C_5
REMARK    5  A    between atoms: C_5  and  C_6
REMARK    6  A    between atoms: C_6  and  C_7
REMARK    7  A    between atoms: C_11  and  C_12
REMARK                            x       y       z     vdW  Elec       q    Type
REMARK                         _______ _______ _______ _____ _____    ______ ____
ROOT
ATOM      1  C   UNL     1       3.504   7.134  17.596  0.00  0.00    +0.000 C 
ENDROOT
BRANCH   1   2
ATOM      2  N   UNL     1       4.911   6.742  17.723  0.00  0.00    +0.000 N 
ATOM      3  H   UNL     1       5.382   7.413  18.325  0.00  0.00    +0.000 HD
BRANCH   2   6
ATOM      4  C   UNL     1       5.295   3.989  16.994  0.00  0.00    +0.000 C 
ATOM      5  C   UNL     1       5.712   5.222  16.231  0.00  0.00    +0.000 C 
ATOM      6  N   UNL     1       5.555   6.468  16.572  0.00  0.00    +0.000 NA
BRANCH   5   7
ATOM      7  C   UNL     1       6.225   5.002  14.818  0.00  0.00    +0.000 C 
ATOM      8  O   UNL     1       7.439   5.317  14.561  0.00  0.00    +0.000 OA
ATOM      9  O   UNL     1       5.604   4.244  14.001  0.00  0.00    +0.000 OA
ENDBRANCH   5   7
ENDBRANCH   2   6
ENDBRANCH   1   2
BRANCH   1  10
ATOM     10  C   UNL     1       2.729   6.848  18.893  0.00  0.00    +0.000 C 
BRANCH  10  11
ATOM     11  C   UNL     1       2.190   5.437  18.995  0.00  0.00    +0.000 A 
ATOM     12  C   UNL     1       1.862   4.724  17.837  0.00  0.00    +0.000 A 
ATOM     13  C   UNL     1       1.416   3.402  17.916  0.00  0.00    +0.000 A 
ATOM     14  C   UNL     1       1.296   2.785  19.160  0.00  0.00    +0.000 A 
ATOM     15  C   UNL     1       1.607   3.479  20.336  0.00  0.00    +0.000 A 
ATOM     16  C   UNL     1       1.504   2.817  21.672  0.00  0.00    +0.000 C 
ATOM     17  C   UNL     1       2.049   4.809  20.241  0.00  0.00    +0.000 A 
ENDBRANCH  10  11
ENDBRANCH   1  10
TORSDOF 5
ENDMDL
MODEL 6
REMARK VINA RESULT:      -6.3      2.365      3.360
REMARK  Name = 
REMARK  7 active torsions:
REMARK  status: ('A' for Active; 'I' for Inactive)
REMARK    1  A    between atoms: C_1  and  C_2
REMARK    2  A    between atoms: C_2  and  C_14
REMARK    3  A    between atoms: N_3  and  N_4
REMARK    4  A    between atoms: N_4  and  C_5
REMARK    5  A    between atoms: C_5  and  C_6
REMARK    6  A    between atoms: C_6  and  C_7
REMARK    7  A    between atoms: C_11  and  C_12
REMARK                            x       y       z     vdW  Elec       q    Type
REMARK                         _______ _______ _______ _____ _____    ______ ____
ROOT
ATOM      1  C   UNL     1       6.198   5.082  15.324  0.00  0.00    +0.000 C 
ENDROOT
BRANCH   1   2
ATOM      2  N   UNL     1       7.386   5.446  16.103  0.00  0.00    +0.000 N 
ATOM      3  H   UNL     1       7.492   4.779  16.864  0.00  0.00    +0.000 HD
BRANCH   2   6
ATOM      4  C   UNL     1       7.780   6.056  18.884  0.00  0.00    +0.000 C 
ATOM      5  C   UNL     1       7.680   7.015  17.723  0.00  0.00    +0.000 C 
ATOM      6  N   UNL     1       7.482   6.738  16.467  0.00  0.00    +0.000 NA
BRANCH   5   7
ATOM      7  C   UNL     1       8.017   8.468  18.016  0.00  0.00    +0.000 C 
ATOM      8  O   UNL     1       8.890   8.714  18.920  0.00  0.00    +0.000 OA
ATOM      9  O   UNL     1       7.707   9.396  17.197  0.00  0.00    +0.000 OA
ENDBRANCH   5   7
ENDBRANCH   2   6
ENDBRANCH   1   2
BRANCH   1  10
ATOM     10  C   UNL     1       5.433   3.924  15.984  0.00  0.00    +0.000 C 
BRANCH  10  11
ATOM     11  C   UNL     1       4.281   4.362  16.863  0.00  0.00    +0.000 A 
ATOM     12  C   UNL     1       4.137   5.709  17.214  0.00  0.00    +0.000 A 
ATOM     13  C   UNL     1       3.047   6.133  17.979  0.00  0.00    +0.000 A 
ATOM     14  C   UNL     1       2.093   5.208  18.397  0.00  0.00    +0.000 A 
ATOM     15  C   UNL     1       2.218   3.853  18.070  0.00  0.00    +0.000 A 
ATOM     16  C   UNL     1       1.187   2.857  18.494  0.00  0.00    +0.000 C 
ATOM     17  C   UNL     1       3.322   3.440  17.305  0.00  0.00    +0.000 A 
ENDBRANCH  10  11
ENDBRANCH   1  10
TORSDOF 5
ENDMDL
MODEL 7
REMARK VINA RESULT:      -6.3      1.292      1.548
REMARK  Name = 
REMARK  7 active torsions:
REMARK  status: ('A' for Active; 'I' for Inactive)
REMARK    1  A    between atoms: C_1  and  C_2
REMARK    2  A    between atoms: C_2  and  C_14
REMARK    3  A    between atoms: N_3  and  N_4
REMARK    4  A    between atoms: N_4  and  C_5
REMARK    5  A    between atoms: C_5  and  C_6
REMARK    6  A    between atoms: C_6  and  C_7
REMARK    7  A    between atoms: C_11  and  C_12
REMARK                            x       y       z     vdW  Elec       q    Type
REMARK                         _______ _______ _______ _____ _____    ______ ____
ROOT
ATOM      1  C   UNL     1       3.838   6.521  18.363  0.00  0.00    +0.000 C 
ENDROOT
BRANCH   1   2
ATOM      2  N   UNL     1       4.313   7.151  17.126  0.00  0.00    +0.000 N 
ATOM      3  H   UNL     1       3.557   7.706  16.733  0.00  0.00    +0.000 HD
BRANCH   2   6
ATOM      4  C   UNL     1       7.157   6.806  17.356  0.00  0.00    +0.000 C 
ATOM      5  C   UNL     1       6.217   6.167  16.364  0.00  0.00    +0.000 C 
ATOM      6  N   UNL     1       4.933   6.339  16.249  0.00  0.00    +0.000 NA
BRANCH   5   7
ATOM      7  C   UNL     1       6.797   5.059  15.500  0.00  0.00    +0.000 C 
ATOM      8  O   UNL     1       7.796   5.340  14.750  0.00  0.00    +0.000 OA
ATOM      9  O   UNL     1       6.534   3.833  15.733  0.00  0.00    +0.000 OA
ENDBRANCH   5   7
ENDBRANCH   2   6
ENDBRANCH   1   2
BRANCH   1  10
ATOM     10  C   UNL     1       2.365   6.102  18.241  0.00  0.00    +0.000 C 
BRANCH  10  11
ATOM     11  C   UNL     1       2.098   4.657  18.609  0.00  0.00    +0.000 A 
ATOM     12  C   UNL     1       2.174   3.658  17.632  0.00  0.00    +0.000 A 
ATOM     13  C   UNL     1       1.985   2.316  17.970  0.00  0.00    +0.000 A 
ATOM     14  C   UNL     1       1.718   1.966  19.292  0.00  0.00    +0.000 A 
ATOM     15  C   UNL     1       1.626   2.946  20.287  0.00  0.00    +0.000 A 
ATOM     16  C   UNL     1       1.364   2.577  21.712  0.00  0.00    +0.000 C 
ATOM     17  C   UNL     1       1.814   4.292  19.932  0.00  0.00    +0.000 A 
ENDBRANCH  10  11
ENDBRANCH   1  10
TORSDOF 5
ENDMDL
MODEL 8
REMARK VINA RESULT:      -6.3      2.082      3.651
REMARK  Name = 
REMARK  7 active torsions:
REMARK  status: ('A' for Active; 'I' for Inactive)
REMARK    1  A    between atoms: C_1  and  C_2
REMARK    2  A    between atoms: C_2  and  C_14
REMARK    3  A    between atoms: N_3  and  N_4
REMARK    4  A    between atoms: N_4  and  C_5
REMARK    5  A    between atoms: C_5  and  C_6
REMARK    6  A    between atoms: C_6  and  C_7
REMARK    7  A    between atoms: C_11  and  C_12
REMARK                            x       y       z     vdW  Elec       q    Type
REMARK                         _______ _______ _______ _____ _____    ______ ____
ROOT
ATOM      1  C   UNL     1       3.342   2.558  18.012  0.00  0.00    +0.000 C 
ENDROOT
BRANCH   1   2
ATOM      2  N   UNL     1       4.753   2.950  17.929  0.00  0.00    +0.000 N 
ATOM      3  H   UNL     1       5.066   3.233  18.854  0.00  0.00    +0.000 HD
BRANCH   2   6
ATOM      4  C   UNL     1       6.183   5.350  18.603  0.00  0.00    +0.000 C 
ATOM      5  C   UNL     1       5.737   4.882  17.240  0.00  0.00    +0.000 C 
ATOM      6  N   UNL     1       5.073   3.804  16.939  0.00  0.00    +0.000 NA
BRANCH   5   7
ATOM      7  C   UNL     1       6.266   5.665  16.050  0.00  0.00    +0.000 C 
ATOM      8  O   UNL     1       5.420   6.250  15.288  0.00  0.00    +0.000 OA
ATOM      9  O   UNL     1       7.493   6.009  15.978  0.00  0.00    +0.000 OA
ENDBRANCH   5   7
ENDBRANCH   2   6
ENDBRANCH   1   2
BRANCH   1  10
ATOM     10  C   UNL     1       2.428   3.650  17.434  0.00  0.00    +0.000 C 
BRANCH  10  11
ATOM     11  C   UNL     1       2.260   4.858  18.330  0.00  0.00    +0.000 A 
ATOM     12  C   UNL     1       2.032   4.691  19.700  0.00  0.00    +0.000 A 
ATOM     13  C   UNL     1       1.931   5.798  20.547  0.00  0.00    +0.000 A 
ATOM     14  C   UNL     1       2.058   7.083  20.023  0.00  0.00    +0.000 A 
ATOM     15  C   UNL     1       2.275   7.280  18.654  0.00  0.00    +0.000 A 
ATOM     16  C   UNL     1       2.437   8.654  18.089  0.00  0.00    +0.000 C 
ATOM     17  C   UNL     1       2.370   6.158  17.815  0.00  0.00    +0.000 A 
ENDBRANCH  10  11
ENDBRANCH   1  10
TORSDOF 5
ENDMDL
MODEL 9
REMARK VINA RESULT:      -6.3      2.023      3.429
REMARK  Name = 
REMARK  7 active torsions:
REMARK  status: ('A' for Active; 'I' for Inactive)
REMARK    1  A    between atoms: C_1  and  C_2
REMARK    2  A    between atoms: C_2  and  C_14
REMARK    3  A    between atoms: N_3  and  N_4
REMARK    4  A    between atoms: N_4  and  C_5
REMARK    5  A    between atoms: C_5  and  C_6
REMARK    6  A    between atoms: C_6  and  C_7
REMARK    7  A    between atoms: C_11  and  C_12
REMARK                            x       y       z     vdW  Elec       q    Type
REMARK                         _______ _______ _______ _____ _____    ______ ____
ROOT
ATOM      1  C   UNL     1       4.342   3.417  19.668  0.00  0.00    +0.000 C 
ENDROOT
BRANCH   1   2
ATOM      2  N   UNL     1       5.385   3.383  18.639  0.00  0.00    +0.000 N 
ATOM      3  H   UNL     1       5.787   2.449  18.615  0.00  0.00    +0.000 HD
BRANCH   2   6
ATOM      4  C   UNL     1       6.477   4.330  16.155  0.00  0.00    +0.000 C 
ATOM      5  C   UNL     1       6.766   4.827  17.550  0.00  0.00    +0.000 C 
ATOM      6  N   UNL     1       6.285   4.384  18.675  0.00  0.00    +0.000 NA
BRANCH   5   7
ATOM      7  C   UNL     1       7.581   6.105  17.657  0.00  0.00    +0.000 C 
ATOM      8  O   UNL     1       7.656   6.861  16.627  0.00  0.00    +0.000 OA
ATOM      9  O   UNL     1       7.910   6.585  18.793  0.00  0.00    +0.000 OA
ENDBRANCH   5   7
ENDBRANCH   2   6
ENDBRANCH   1   2
BRANCH   1  10
ATOM     10  C   UNL     1       2.989   3.840  19.074  0.00  0.00    +0.000 C 
BRANCH  10  11
ATOM     11  C   UNL     1       2.776   5.338  19.018  0.00  0.00    +0.000 A 
ATOM     12  C   UNL     1       3.159   6.061  17.883  0.00  0.00    +0.000 A 
ATOM     13  C   UNL     1       2.917   7.434  17.797  0.00  0.00    +0.000 A 
ATOM     14  C   UNL     1       2.288   8.093  18.851  0.00  0.00    +0.000 A 
ATOM     15  C   UNL     1       1.904   7.397  20.004  0.00  0.00    +0.000 A 
ATOM     16  C   UNL     1       1.208   8.091  21.129  0.00  0.00    +0.000 C 
ATOM     17  C   UNL     1       2.159   6.017  20.078  0.00  0.00    +0.000 A 
ENDBRANCH  10  11
ENDBRANCH   1  10
TORSDOF 5
ENDMDL
