MODEL 1
REMARK VINA RESULT:      -6.9      0.000      0.000
REMARK  Name = 
REMARK  4 active torsions:
REMARK  status: ('A' for Active; 'I' for Inactive)
REMARK    1  A    between atoms: C_4  and  C_5
REMARK    2  A    between atoms: N_14  and  C_15
REMARK    3  A    between atoms: C_15  and  N_16
REMARK    4  A    between atoms: N_19  and  C_20
REMARK                            x       y       z     vdW  Elec       q    Type
REMARK                         _______ _______ _______ _____ _____    ______ ____
ROOT
ATOM      1  O   UNL     1       1.465  14.190  21.244  0.00  0.00    +0.000 OA
ATOM      2  C   UNL     1       0.385  13.717  21.559  0.00  0.00    +0.000 C 
ATOM      3  C   UNL     1      -0.825  14.510  21.941  0.00  0.00    +0.000 C 
ATOM      4  C   UNL     1      -1.520  13.578  22.930  0.00  0.00    +0.000 C 
ATOM      5  C   UNL     1      -0.830  12.241  22.685  0.00  0.00    +0.000 C 
ATOM      6  O   UNL     1      -0.988  11.245  23.376  0.00  0.00    +0.000 OA
ATOM      7  N   UNL     1       0.051  12.398  21.653  0.00  0.00    +0.000 N 
ENDROOT
BRANCH   4   8
ATOM      8  C   UNL     1      -3.025  13.530  22.719  0.00  0.00    +0.000 A 
ATOM      9  C   UNL     1      -3.542  12.728  21.676  0.00  0.00    +0.000 A 
ATOM     10  C   UNL     1      -4.893  12.672  21.384  0.00  0.00    +0.000 A 
ATOM     11  C   UNL     1      -5.793  13.417  22.137  0.00  0.00    +0.000 A 
ATOM     12  C   UNL     1      -5.322  14.210  23.183  0.00  0.00    +0.000 A 
ATOM     13  C   UNL     1      -3.953  14.272  23.475  0.00  0.00    +0.000 A 
ATOM     14 BR   UNL     1      -3.443  15.424  24.897  0.00  0.00    +0.000 Br
ENDBRANCH   4   8
BRANCH   7  15
ATOM     15  C   UNL     1       0.894  11.341  21.119  0.00  0.00    +0.000 C 
BRANCH  15  16
ATOM     16  N   UNL     1       0.048  10.296  20.535  0.00  0.00    +0.000 NA
ATOM     17  C   UNL     1       0.199  10.082  19.088  0.00  0.00    +0.000 C 
ATOM     18  C   UNL     1       1.480   9.366  18.618  0.00  0.00    +0.000 C 
ATOM     19  N   UNL     1       1.745   8.118  19.348  0.00  0.00    +0.000 N 
ATOM     20  C   UNL     1       1.387   8.063  20.780  0.00  0.00    +0.000 C 
ATOM     21  C   UNL     1       0.208   8.989  21.199  0.00  0.00    +0.000 C 
BRANCH  19  22
ATOM     22  C   UNL     1       2.659   7.196  18.817  0.00  0.00    +0.000 A 
ATOM     23  C   UNL     1       2.930   5.955  19.432  0.00  0.00    +0.000 A 
ATOM     24  C   UNL     1       3.936   5.090  18.973  0.00  0.00    +0.000 A 
ATOM     25  C   UNL     1       4.694   5.448  17.873  0.00  0.00    +0.000 A 
ATOM     26  F   UNL     1       5.678   4.645  17.450  0.00  0.00    +0.000 F 
ATOM     27  C   UNL     1       4.441   6.635  17.209  0.00  0.00    +0.000 A 
ATOM     28  C   UNL     1       3.428   7.490  17.672  0.00  0.00    +0.000 A 
ENDBRANCH  19  22
ENDBRANCH  15  16
ENDBRANCH   7  15
TORSDOF 4
ENDMDL
MODEL 2
REMARK VINA RESULT:      -6.9      5.832     11.298
REMARK  Name = 
REMARK  4 active torsions:
REMARK  status: ('A' for Active; 'I' for Inactive)
REMARK    1  A    between atoms: C_4  and  C_5
REMARK    2  A    between atoms: N_14  and  C_15
REMARK    3  A    between atoms: C_15  and  N_16
REMARK    4  A    between atoms: N_19  and  C_20
REMARK                            x       y       z     vdW  Elec       q    Type
REMARK                         _______ _______ _______ _____ _____    ______ ____
ROOT
ATOM      1  O   UNL     1       7.285   4.890  19.303  0.00  0.00    +0.000 OA
ATOM      2  C   UNL     1       6.868   5.037  18.165  0.00  0.00    +0.000 C 
ATOM      3  C   UNL     1       7.430   4.371  16.949  0.00  0.00    +0.000 C 
ATOM      4  C   UNL     1       7.158   5.406  15.862  0.00  0.00    +0.000 C 
ATOM      5  C   UNL     1       6.146   6.337  16.518  0.00  0.00    +0.000 C 
ATOM      6  O   UNL     1       5.767   7.396  16.039  0.00  0.00    +0.000 OA
ATOM      7  N   UNL     1       5.842   5.835  17.753  0.00  0.00    +0.000 N 
ENDROOT
BRANCH   4   8
ATOM      8  C   UNL     1       6.652   4.774  14.574  0.00  0.00    +0.000 A 
ATOM      9  C   UNL     1       5.457   4.018  14.609  0.00  0.00    +0.000 A 
ATOM     10  C   UNL     1       4.959   3.367  13.496  0.00  0.00    +0.000 A 
ATOM     11  C   UNL     1       5.638   3.452  12.285  0.00  0.00    +0.000 A 
ATOM     12  C   UNL     1       6.813   4.199  12.208  0.00  0.00    +0.000 A 
ATOM     13  C   UNL     1       7.321   4.854  13.338  0.00  0.00    +0.000 A 
ATOM     14 BR   UNL     1       8.952   5.801  13.104  0.00  0.00    +0.000 Br
ENDBRANCH   4   8
BRANCH   7  15
ATOM     15  C   UNL     1       4.904   6.441  18.683  0.00  0.00    +0.000 C 
BRANCH  15  16
ATOM     16  N   UNL     1       3.540   6.266  18.177  0.00  0.00    +0.000 NA
ATOM     17  C   UNL     1       2.561   5.741  19.140  0.00  0.00    +0.000 C 
ATOM     18  C   UNL     1       2.074   6.706  20.238  0.00  0.00    +0.000 C 
ATOM     19  N   UNL     1       1.624   8.002  19.710  0.00  0.00    +0.000 N 
ATOM     20  C   UNL     1       2.335   8.558  18.540  0.00  0.00    +0.000 C 
ATOM     21  C   UNL     1       2.979   7.500  17.597  0.00  0.00    +0.000 C 
BRANCH  19  22
ATOM     22  C   UNL     1       0.848   8.840  20.524  0.00  0.00    +0.000 A 
ATOM     23  C   UNL     1       0.652  10.209  20.236  0.00  0.00    +0.000 A 
ATOM     24  C   UNL     1      -0.015  11.075  21.116  0.00  0.00    +0.000 A 
ATOM     25  C   UNL     1      -0.513  10.584  22.310  0.00  0.00    +0.000 A 
ATOM     26  F   UNL     1      -1.121  11.412  23.170  0.00  0.00    +0.000 F 
ATOM     27  C   UNL     1      -0.383   9.243  22.620  0.00  0.00    +0.000 A 
ATOM     28  C   UNL     1       0.280   8.383  21.731  0.00  0.00    +0.000 A 
ENDBRANCH  19  22
ENDBRANCH  15  16
ENDBRANCH   7  15
TORSDOF 4
ENDMDL
MODEL 3
REMARK VINA RESULT:      -6.9      5.186     10.671
REMARK  Name = 
REMARK  4 active torsions:
REMARK  status: ('A' for Active; 'I' for Inactive)
REMARK    1  A    between atoms: C_4  and  C_5
REMARK    2  A    between atoms: N_14  and  C_15
REMARK    3  A    between atoms: C_15  and  N_16
REMARK    4  A    between atoms: N_19  and  C_20
REMARK                            x       y       z     vdW  Elec       q    Type
REMARK                         _______ _______ _______ _____ _____    ______ ____
ROOT
ATOM      1  O   UNL     1       1.091   3.228  18.183  0.00  0.00    +0.000 OA
ATOM      2  C   UNL     1       2.127   3.776  17.841  0.00  0.00    +0.000 C 
ATOM      3  C   UNL     1       3.192   3.154  16.994  0.00  0.00    +0.000 C 
ATOM      4  C   UNL     1       4.453   3.836  17.514  0.00  0.00    +0.000 C 
ATOM      5  C   UNL     1       3.905   5.020  18.302  0.00  0.00    +0.000 C 
ATOM      6  O   UNL     1       4.581   5.753  19.010  0.00  0.00    +0.000 OA
ATOM      7  N   UNL     1       2.546   5.034  18.161  0.00  0.00    +0.000 N 
ENDROOT
BRANCH   4   8
ATOM      8  C   UNL     1       5.396   4.242  16.392  0.00  0.00    +0.000 A 
ATOM      9  C   UNL     1       4.939   4.166  15.056  0.00  0.00    +0.000 A 
ATOM     10  C   UNL     1       5.751   4.465  13.977  0.00  0.00    +0.000 A 
ATOM     11  C   UNL     1       7.065   4.864  14.191  0.00  0.00    +0.000 A 
ATOM     12  C   UNL     1       7.548   4.963  15.496  0.00  0.00    +0.000 A 
ATOM     13  C   UNL     1       6.728   4.655  16.589  0.00  0.00    +0.000 A 
ATOM     14 BR   UNL     1       7.525   4.791  18.308  0.00  0.00    +0.000 Br
ENDBRANCH   4   8
BRANCH   7  15
ATOM     15  C   UNL     1       1.663   6.020  18.761  0.00  0.00    +0.000 C 
BRANCH  15  16
ATOM     16  N   UNL     1       2.423   7.242  19.041  0.00  0.00    +0.000 NA
ATOM     17  C   UNL     1       2.282   8.325  18.056  0.00  0.00    +0.000 C 
ATOM     18  C   UNL     1       0.952   9.102  18.057  0.00  0.00    +0.000 C 
ATOM     19  N   UNL     1       0.560   9.575  19.393  0.00  0.00    +0.000 N 
ATOM     20  C   UNL     1       0.883   8.719  20.552  0.00  0.00    +0.000 C 
ATOM     21  C   UNL     1       2.132   7.808  20.371  0.00  0.00    +0.000 C 
BRANCH  19  22
ATOM     22  C   UNL     1      -0.423  10.569  19.505  0.00  0.00    +0.000 A 
ATOM     23  C   UNL     1      -0.573  11.360  20.665  0.00  0.00    +0.000 A 
ATOM     24  C   UNL     1      -1.634  12.264  20.827  0.00  0.00    +0.000 A 
ATOM     25  C   UNL     1      -2.573  12.403  19.821  0.00  0.00    +0.000 A 
ATOM     26  F   UNL     1      -3.607  13.238  19.983  0.00  0.00    +0.000 F 
ATOM     27  C   UNL     1      -2.448  11.681  18.648  0.00  0.00    +0.000 A 
ATOM     28  C   UNL     1      -1.379  10.784  18.492  0.00  0.00    +0.000 A 
ENDBRANCH  19  22
ENDBRANCH  15  16
ENDBRANCH   7  15
TORSDOF 4
ENDMDL
MODEL 4
REMARK VINA RESULT:      -6.9      1.529      2.112
REMARK  Name = 
REMARK  4 active torsions:
REMARK  status: ('A' for Active; 'I' for Inactive)
REMARK    1  A    between atoms: C_4  and  C_5
REMARK    2  A    between atoms: N_14  and  C_15
REMARK    3  A    between atoms: C_15  and  N_16
REMARK    4  A    between atoms: N_19  and  C_20
REMARK                            x       y       z     vdW  Elec       q    Type
REMARK                         _______ _______ _______ _____ _____    ______ ____
ROOT
ATOM      1  O   UNL     1      -0.655  12.897  18.623  0.00  0.00    +0.000 OA
ATOM      2  C   UNL     1      -1.404  12.658  19.557  0.00  0.00    +0.000 C 
ATOM      3  C   UNL     1      -2.427  13.602  20.104  0.00  0.00    +0.000 C 
ATOM      4  C   UNL     1      -2.472  13.209  21.577  0.00  0.00    +0.000 C 
ATOM      5  C   UNL     1      -1.767  11.858  21.594  0.00  0.00    +0.000 C 
ATOM      6  O   UNL     1      -1.456  11.253  22.610  0.00  0.00    +0.000 OA
ATOM      7  N   UNL     1      -1.461  11.519  20.306  0.00  0.00    +0.000 N 
ENDROOT
BRANCH   4   8
ATOM      8  C   UNL     1      -3.891  13.158  22.121  0.00  0.00    +0.000 A 
ATOM      9  C   UNL     1      -4.921  12.654  21.293  0.00  0.00    +0.000 A 
ATOM     10  C   UNL     1      -6.245  12.624  21.691  0.00  0.00    +0.000 A 
ATOM     11  C   UNL     1      -6.597  13.095  22.951  0.00  0.00    +0.000 A 
ATOM     12  C   UNL     1      -5.607  13.588  23.801  0.00  0.00    +0.000 A 
ATOM     13  C   UNL     1      -4.267  13.624  23.395  0.00  0.00    +0.000 A 
ATOM     14 BR   UNL     1      -3.028  14.360  24.634  0.00  0.00    +0.000 Br
ENDBRANCH   4   8
BRANCH   7  15
ATOM     15  C   UNL     1      -0.789  10.293  19.912  0.00  0.00    +0.000 C 
BRANCH  15  16
ATOM     16  N   UNL     1       0.648  10.426  20.165  0.00  0.00    +0.000 NA
ATOM     17  C   UNL     1       1.202   9.544  21.204  0.00  0.00    +0.000 C 
ATOM     18  C   UNL     1       1.361   8.054  20.844  0.00  0.00    +0.000 C 
ATOM     19  N   UNL     1       2.060   7.840  19.569  0.00  0.00    +0.000 N 
ATOM     20  C   UNL     1       1.831   8.813  18.481  0.00  0.00    +0.000 C 
ATOM     21  C   UNL     1       1.465  10.251  18.950  0.00  0.00    +0.000 C 
BRANCH  19  22
ATOM     22  C   UNL     1       2.577   6.569  19.277  0.00  0.00    +0.000 A 
ATOM     23  C   UNL     1       3.274   6.289  18.082  0.00  0.00    +0.000 A 
ATOM     24  C   UNL     1       3.678   4.991  17.733  0.00  0.00    +0.000 A 
ATOM     25  C   UNL     1       3.398   3.937  18.584  0.00  0.00    +0.000 A 
ATOM     26  F   UNL     1       3.749   2.690  18.241  0.00  0.00    +0.000 F 
ATOM     27  C   UNL     1       2.752   4.164  19.785  0.00  0.00    +0.000 A 
ATOM     28  C   UNL     1       2.359   5.467  20.129  0.00  0.00    +0.000 A 
ENDBRANCH  19  22
ENDBRANCH  15  16
ENDBRANCH   7  15
TORSDOF 4
ENDMDL
MODEL 5
REMARK VINA RESULT:      -6.8      4.666      9.883
REMARK  Name = 
REMARK  4 active torsions:
REMARK  status: ('A' for Active; 'I' for Inactive)
REMARK    1  A    between atoms: C_4  and  C_5
REMARK    2  A    between atoms: N_14  and  C_15
REMARK    3  A    between atoms: C_15  and  N_16
REMARK    4  A    between atoms: N_19  and  C_20
REMARK                            x       y       z     vdW  Elec       q    Type
REMARK                         _______ _______ _______ _____ _____    ______ ____
ROOT
ATOM      1  O   UNL     1       1.301   9.833  17.801  0.00  0.00    +0.000 OA
ATOM      2  C   UNL     1       1.934   8.882  18.232  0.00  0.00    +0.000 C 
ATOM      3  C   UNL     1       2.796   7.977  17.411  0.00  0.00    +0.000 C 
ATOM      4  C   UNL     1       2.672   6.652  18.157  0.00  0.00    +0.000 C 
ATOM      5  C   UNL     1       2.082   7.068  19.500  0.00  0.00    +0.000 C 
ATOM      6  O   UNL     1       1.686   6.286  20.353  0.00  0.00    +0.000 OA
ATOM      7  N   UNL     1       1.981   8.430  19.518  0.00  0.00    +0.000 N 
ENDROOT
BRANCH   4   8
ATOM      8  C   UNL     1       4.005   5.930  18.280  0.00  0.00    +0.000 A 
ATOM      9  C   UNL     1       5.199   6.673  18.136  0.00  0.00    +0.000 A 
ATOM     10  C   UNL     1       6.449   6.083  18.180  0.00  0.00    +0.000 A 
ATOM     11  C   UNL     1       6.559   4.712  18.380  0.00  0.00    +0.000 A 
ATOM     12  C   UNL     1       5.403   3.947  18.540  0.00  0.00    +0.000 A 
ATOM     13  C   UNL     1       4.137   4.544  18.489  0.00  0.00    +0.000 A 
ATOM     14 BR   UNL     1       2.646   3.381  18.679  0.00  0.00    +0.000 Br
ENDBRANCH   4   8
BRANCH   7  15
ATOM     15  C   UNL     1       1.468   9.205  20.636  0.00  0.00    +0.000 C 
BRANCH  15  16
ATOM     16  N   UNL     1       0.030   8.959  20.776  0.00  0.00    +0.000 NA
ATOM     17  C   UNL     1      -0.465   8.814  22.153  0.00  0.00    +0.000 C 
ATOM     18  C   UNL     1      -0.560  10.097  23.000  0.00  0.00    +0.000 C 
ATOM     19  N   UNL     1      -1.268  11.190  22.317  0.00  0.00    +0.000 N 
ATOM     20  C   UNL     1      -1.102  11.315  20.854  0.00  0.00    +0.000 C 
ATOM     21  C   UNL     1      -0.796   9.983  20.109  0.00  0.00    +0.000 C 
BRANCH  19  22
ATOM     22  C   UNL     1      -1.730  12.281  23.068  0.00  0.00    +0.000 A 
ATOM     23  C   UNL     1      -3.019  12.316  23.642  0.00  0.00    +0.000 A 
ATOM     24  C   UNL     1      -3.527  13.457  24.282  0.00  0.00    +0.000 A 
ATOM     25  C   UNL     1      -2.745  14.595  24.370  0.00  0.00    +0.000 A 
ATOM     26  F   UNL     1      -3.236  15.699  24.948  0.00  0.00    +0.000 F 
ATOM     27  C   UNL     1      -1.460  14.599  23.859  0.00  0.00    +0.000 A 
ATOM     28  C   UNL     1      -0.959  13.450  23.226  0.00  0.00    +0.000 A 
ENDBRANCH  19  22
ENDBRANCH  15  16
ENDBRANCH   7  15
TORSDOF 4
ENDMDL
MODEL 6
REMARK VINA RESULT:      -6.8      5.414     11.039
REMARK  Name = 
REMARK  4 active torsions:
REMARK  status: ('A' for Active; 'I' for Inactive)
REMARK    1  A    between atoms: C_4  and  C_5
REMARK    2  A    between atoms: N_14  and  C_15
REMARK    3  A    between atoms: C_15  and  N_16
REMARK    4  A    between atoms: N_19  and  C_20
REMARK                            x       y       z     vdW  Elec       q    Type
REMARK                         _______ _______ _______ _____ _____    ______ ____
ROOT
ATOM      1  O   UNL     1       7.197   5.129  19.739  0.00  0.00    +0.000 OA
ATOM      2  C   UNL     1       6.832   5.227  18.578  0.00  0.00    +0.000 C 
ATOM      3  C   UNL     1       7.441   4.503  17.420  0.00  0.00    +0.000 C 
ATOM      4  C   UNL     1       7.225   5.489  16.276  0.00  0.00    +0.000 C 
ATOM      5  C   UNL     1       6.193   6.455  16.844  0.00  0.00    +0.000 C 
ATOM      6  O   UNL     1       5.844   7.494  16.301  0.00  0.00    +0.000 OA
ATOM      7  N   UNL     1       5.831   6.012  18.085  0.00  0.00    +0.000 N 
ENDROOT
BRANCH   4   8
ATOM      8  C   UNL     1       6.770   4.802  14.997  0.00  0.00    +0.000 A 
ATOM      9  C   UNL     1       7.523   4.993  13.816  0.00  0.00    +0.000 A 
ATOM     10  C   UNL     1       7.148   4.449  12.601  0.00  0.00    +0.000 A 
ATOM     11  C   UNL     1       5.994   3.676  12.518  0.00  0.00    +0.000 A 
ATOM     12  C   UNL     1       5.232   3.455  13.666  0.00  0.00    +0.000 A 
ATOM     13  C   UNL     1       5.610   4.011  14.894  0.00  0.00    +0.000 A 
ATOM     14 BR   UNL     1       4.460   3.667  16.368  0.00  0.00    +0.000 Br
ENDBRANCH   4   8
BRANCH   7  15
ATOM     15  C   UNL     1       4.858   6.665  18.945  0.00  0.00    +0.000 C 
BRANCH  15  16
ATOM     16  N   UNL     1       3.514   6.462  18.396  0.00  0.00    +0.000 NA
ATOM     17  C   UNL     1       2.518   5.911  19.327  0.00  0.00    +0.000 C 
ATOM     18  C   UNL     1       1.976   6.860  20.413  0.00  0.00    +0.000 C 
ATOM     19  N   UNL     1       1.513   8.148  19.876  0.00  0.00    +0.000 N 
ATOM     20  C   UNL     1       2.247   8.724  18.731  0.00  0.00    +0.000 C 
ATOM     21  C   UNL     1       2.943   7.685  17.804  0.00  0.00    +0.000 C 
BRANCH  19  22
ATOM     22  C   UNL     1       0.694   8.965  20.668  0.00  0.00    +0.000 A 
ATOM     23  C   UNL     1      -0.037  10.050  20.138  0.00  0.00    +0.000 A 
ATOM     24  C   UNL     1      -0.753  10.944  20.949  0.00  0.00    +0.000 A 
ATOM     25  C   UNL     1      -0.761  10.765  22.320  0.00  0.00    +0.000 A 
ATOM     26  F   UNL     1      -1.413  11.634  23.104  0.00  0.00    +0.000 F 
ATOM     27  C   UNL     1      -0.094   9.694  22.886  0.00  0.00    +0.000 A 
ATOM     28  C   UNL     1       0.614   8.801  22.066  0.00  0.00    +0.000 A 
ENDBRANCH  19  22
ENDBRANCH  15  16
ENDBRANCH   7  15
TORSDOF 4
ENDMDL
MODEL 7
REMARK VINA RESULT:      -6.7      5.399     10.501
REMARK  Name = 
REMARK  4 active torsions:
REMARK  status: ('A' for Active; 'I' for Inactive)
REMARK    1  A    between atoms: C_4  and  C_5
REMARK    2  A    between atoms: N_14  and  C_15
REMARK    3  A    between atoms: C_15  and  N_16
REMARK    4  A    between atoms: N_19  and  C_20
REMARK                            x       y       z     vdW  Elec       q    Type
REMARK                         _______ _______ _______ _____ _____    ______ ____
ROOT
ATOM      1  O   UNL     1       1.559   3.079  19.317  0.00  0.00    +0.000 OA
ATOM      2  C   UNL     1       2.487   3.683  18.804  0.00  0.00    +0.000 C 
ATOM      3  C   UNL     1       3.503   3.082  17.885  0.00  0.00    +0.000 C 
ATOM      4  C   UNL     1       4.742   3.920  18.185  0.00  0.00    +0.000 C 
ATOM      5  C   UNL     1       4.174   5.118  18.936  0.00  0.00    +0.000 C 
ATOM      6  O   UNL     1       4.851   5.972  19.491  0.00  0.00    +0.000 OA
ATOM      7  N   UNL     1       2.813   4.998  18.965  0.00  0.00    +0.000 N 
ENDROOT
BRANCH   4   8
ATOM      8  C   UNL     1       5.502   4.301  16.924  0.00  0.00    +0.000 A 
ATOM      9  C   UNL     1       4.863   4.154  15.672  0.00  0.00    +0.000 A 
ATOM     10  C   UNL     1       5.503   4.427  14.476  0.00  0.00    +0.000 A 
ATOM     11  C   UNL     1       6.821   4.870  14.484  0.00  0.00    +0.000 A 
ATOM     12  C   UNL     1       7.481   5.040  15.702  0.00  0.00    +0.000 A 
ATOM     13  C   UNL     1       6.835   4.758  16.912  0.00  0.00    +0.000 A 
ATOM     14 BR   UNL     1       7.862   4.991  18.493  0.00  0.00    +0.000 Br
ENDBRANCH   4   8
BRANCH   7  15
ATOM     15  C   UNL     1       1.912   5.953  19.587  0.00  0.00    +0.000 C 
BRANCH  15  16
ATOM     16  N   UNL     1       2.494   7.296  19.497  0.00  0.00    +0.000 NA
ATOM     17  C   UNL     1       2.370   7.963  18.193  0.00  0.00    +0.000 C 
ATOM     18  C   UNL     1       0.976   8.496  17.810  0.00  0.00    +0.000 C 
ATOM     19  N   UNL     1       0.363   9.319  18.863  0.00  0.00    +0.000 N 
ATOM     20  C   UNL     1       0.620   8.948  20.269  0.00  0.00    +0.000 C 
ATOM     21  C   UNL     1       1.972   8.218  20.522  0.00  0.00    +0.000 C 
BRANCH  19  22
ATOM     22  C   UNL     1      -0.726  10.141  18.541  0.00  0.00    +0.000 A 
ATOM     23  C   UNL     1      -1.145  11.205  19.370  0.00  0.00    +0.000 A 
ATOM     24  C   UNL     1      -2.310  11.945  19.114  0.00  0.00    +0.000 A 
ATOM     25  C   UNL     1      -3.083  11.640  18.008  0.00  0.00    +0.000 A 
ATOM     26  F   UNL     1      -4.214  12.318  17.776  0.00  0.00    +0.000 F 
ATOM     27  C   UNL     1      -2.694  10.633  17.142  0.00  0.00    +0.000 A 
ATOM     28  C   UNL     1      -1.524   9.904  17.404  0.00  0.00    +0.000 A 
ENDBRANCH  19  22
ENDBRANCH  15  16
ENDBRANCH   7  15
TORSDOF 4
ENDMDL
MODEL 8
REMARK VINA RESULT:      -6.7      1.369      1.789
REMARK  Name = 
REMARK  4 active torsions:
REMARK  status: ('A' for Active; 'I' for Inactive)
REMARK    1  A    between atoms: C_4  and  C_5
REMARK    2  A    between atoms: N_14  and  C_15
REMARK    3  A    between atoms: C_15  and  N_16
REMARK    4  A    between atoms: N_19  and  C_20
REMARK                            x       y       z     vdW  Elec       q    Type
REMARK                         _______ _______ _______ _____ _____    ______ ____
ROOT
ATOM      1  O   UNL     1      -0.715  13.796  19.251  0.00  0.00    +0.000 OA
ATOM      2  C   UNL     1      -1.546  13.442  20.072  0.00  0.00    +0.000 C 
ATOM      3  C   UNL     1      -2.575  14.331  20.694  0.00  0.00    +0.000 C 
ATOM      4  C   UNL     1      -2.754  13.701  22.072  0.00  0.00    +0.000 C 
ATOM      5  C   UNL     1      -2.103  12.332  21.911  0.00  0.00    +0.000 C 
ATOM      6  O   UNL     1      -1.897  11.551  22.829  0.00  0.00    +0.000 OA
ATOM      7  N   UNL     1      -1.705  12.199  20.610  0.00  0.00    +0.000 N 
ENDROOT
BRANCH   4   8
ATOM      8  C   UNL     1      -4.214  13.630  22.492  0.00  0.00    +0.000 A 
ATOM      9  C   UNL     1      -5.082  12.756  21.797  0.00  0.00    +0.000 A 
ATOM     10  C   UNL     1      -6.433  12.673  22.081  0.00  0.00    +0.000 A 
ATOM     11  C   UNL     1      -6.977  13.463  23.087  0.00  0.00    +0.000 A 
ATOM     12  C   UNL     1      -6.149  14.328  23.804  0.00  0.00    +0.000 A 
ATOM     13  C   UNL     1      -4.782  14.417  23.512  0.00  0.00    +0.000 A 
ATOM     14 BR   UNL     1      -3.779  15.666  24.534  0.00  0.00    +0.000 Br
ENDBRANCH   4   8
BRANCH   7  15
ATOM     15  C   UNL     1      -1.048  11.023  20.064  0.00  0.00    +0.000 C 
BRANCH  15  16
ATOM     16  N   UNL     1       0.392  11.109  20.323  0.00  0.00    +0.000 NA
ATOM     17  C   UNL     1       0.918  10.184  21.337  0.00  0.00    +0.000 C 
ATOM     18  C   UNL     1       1.037   8.701  20.935  0.00  0.00    +0.000 C 
ATOM     19  N   UNL     1       1.733   8.504  19.656  0.00  0.00    +0.000 N 
ATOM     20  C   UNL     1       1.534   9.513  18.596  0.00  0.00    +0.000 C 
ATOM     21  C   UNL     1       1.206  10.947  19.104  0.00  0.00    +0.000 C 
BRANCH  19  22
ATOM     22  C   UNL     1       2.216   7.228  19.329  0.00  0.00    +0.000 A 
ATOM     23  C   UNL     1       2.050   6.113  20.179  0.00  0.00    +0.000 A 
ATOM     24  C   UNL     1       2.643   4.869  19.913  0.00  0.00    +0.000 A 
ATOM     25  C   UNL     1       3.415   4.710  18.777  0.00  0.00    +0.000 A 
ATOM     26  F   UNL     1       4.012   3.535  18.534  0.00  0.00    +0.000 F 
ATOM     27  C   UNL     1       3.575   5.760  17.891  0.00  0.00    +0.000 A 
ATOM     28  C   UNL     1       2.973   6.998  18.162  0.00  0.00    +0.000 A 
ENDBRANCH  19  22
ENDBRANCH  15  16
ENDBRANCH   7  15
TORSDOF 4
ENDMDL
MODEL 9
REMARK VINA RESULT:      -6.7      1.205      1.720
REMARK  Name = 
REMARK  4 active torsions:
REMARK  status: ('A' for Active; 'I' for Inactive)
REMARK    1  A    between atoms: C_4  and  C_5
REMARK    2  A    between atoms: N_14  and  C_15
REMARK    3  A    between atoms: C_15  and  N_16
REMARK    4  A    between atoms: N_19  and  C_20
REMARK                            x       y       z     vdW  Elec       q    Type
REMARK                         _______ _______ _______ _____ _____    ______ ____
ROOT
ATOM      1  O   UNL     1       1.357  13.915  21.520  0.00  0.00    +0.000 OA
ATOM      2  C   UNL     1       0.287  13.393  21.792  0.00  0.00    +0.000 C 
ATOM      3  C   UNL     1      -0.949  14.127  22.204  0.00  0.00    +0.000 C 
ATOM      4  C   UNL     1      -1.628  13.120  23.126  0.00  0.00    +0.000 C 
ATOM      5  C   UNL     1      -0.897  11.820  22.814  0.00  0.00    +0.000 C 
ATOM      6  O   UNL     1      -1.033  10.780  23.443  0.00  0.00    +0.000 OA
ATOM      7  N   UNL     1      -0.008  12.062  21.804  0.00  0.00    +0.000 N 
ENDROOT
BRANCH   4   8
ATOM      8  C   UNL     1      -3.129  13.040  22.893  0.00  0.00    +0.000 A 
ATOM      9  C   UNL     1      -3.999  13.161  24.001  0.00  0.00    +0.000 A 
ATOM     10  C   UNL     1      -5.372  13.046  23.881  0.00  0.00    +0.000 A 
ATOM     11  C   UNL     1      -5.939  12.809  22.634  0.00  0.00    +0.000 A 
ATOM     12  C   UNL     1      -5.113  12.697  21.515  0.00  0.00    +0.000 A 
ATOM     13  C   UNL     1      -3.722  12.808  21.637  0.00  0.00    +0.000 A 
ATOM     14 BR   UNL     1      -2.714  12.592  20.041  0.00  0.00    +0.000 Br
ENDBRANCH   4   8
BRANCH   7  15
ATOM     15  C   UNL     1       0.872  11.063  21.221  0.00  0.00    +0.000 C 
BRANCH  15  16
ATOM     16  N   UNL     1       0.067  10.058  20.522  0.00  0.00    +0.000 NA
ATOM     17  C   UNL     1       0.257   9.983  19.066  0.00  0.00    +0.000 C 
ATOM     18  C   UNL     1       1.566   9.344  18.564  0.00  0.00    +0.000 C 
ATOM     19  N   UNL     1       1.846   8.040  19.181  0.00  0.00    +0.000 N 
ATOM     20  C   UNL     1       1.455   7.843  20.592  0.00  0.00    +0.000 C 
ATOM     21  C   UNL     1       0.244   8.699  21.066  0.00  0.00    +0.000 C 
BRANCH  19  22
ATOM     22  C   UNL     1       2.795   7.193  18.591  0.00  0.00    +0.000 A 
ATOM     23  C   UNL     1       3.622   7.606  17.524  0.00  0.00    +0.000 A 
ATOM     24  C   UNL     1       4.479   6.722  16.849  0.00  0.00    +0.000 A 
ATOM     25  C   UNL     1       4.534   5.396  17.237  0.00  0.00    +0.000 A 
ATOM     26  F   UNL     1       5.323   4.539  16.576  0.00  0.00    +0.000 F 
ATOM     27  C   UNL     1       3.773   4.950  18.302  0.00  0.00    +0.000 A 
ATOM     28  C   UNL     1       2.924   5.843  18.975  0.00  0.00    +0.000 A 
ENDBRANCH  19  22
ENDBRANCH  15  16
ENDBRANCH   7  15
TORSDOF 4
ENDMDL
