MODEL 1
REMARK VINA RESULT:      -7.7      0.000      0.000
REMARK  Name = 
REMARK  9 active torsions:
REMARK  status: ('A' for Active; 'I' for Inactive)
REMARK    1  A    between atoms: C_1  and  C_2
REMARK    2  A    between atoms: C_2  and  C_3
REMARK    3  A    between atoms: C_3  and  C_4
REMARK    4  A    between atoms: C_4  and  C_5
REMARK    5  A    between atoms: C_5  and  N_6
REMARK    6  A    between atoms: N_9  and  O_10
REMARK    7  A    between atoms: N_9  and  C_11
REMARK    8  A    between atoms: C_11  and  C_12
REMARK    9  A    between atoms: C_11  and  C_13
REMARK                            x       y       z     vdW  Elec       q    Type
REMARK                         _______ _______ _______ _____ _____    ______ ____
ROOT
ATOM      1  N   UNL     1       7.617   4.895  14.485  0.00  0.00    +0.000 N 
ATOM      2  C   UNL     1       6.655   5.294  15.383  0.00  0.00    +0.000 C 
ATOM      3  O   UNL     1       5.660   5.952  15.037  0.00  0.00    +0.000 OA
ATOM      4  N   UNL     1       6.852   4.855  16.675  0.00  0.00    +0.000 N 
ATOM      5  H   UNL     1       8.471   4.492  14.843  0.00  0.00    +0.000 HD
ENDROOT
BRANCH   4   6
ATOM      6  O   UNL     1       8.052   4.115  16.862  0.00  0.00    +0.000 OA
ATOM      7  H   UNL     1       8.067   3.576  16.052  0.00  0.00    +0.000 HD
ENDBRANCH   4   6
BRANCH   4   8
ATOM      8  C   UNL     1       6.335   5.612  17.852  0.00  0.00    +0.000 C 
ATOM      9  C   UNL     1       6.104   7.088  17.507  0.00  0.00    +0.000 C 
BRANCH   8  10
ATOM     10  C   UNL     1       5.043   5.015  18.409  0.00  0.00    +0.000 A 
ATOM     11  C   UNL     1       4.899   4.134  19.467  0.00  0.00    +0.000 A 
ATOM     12  C   UNL     1       3.552   3.709  19.709  0.00  0.00    +0.000 A 
ATOM     13  C   UNL     1       3.015   2.851  20.701  0.00  0.00    +0.000 A 
ATOM     14  C   UNL     1       1.649   2.548  20.710  0.00  0.00    +0.000 A 
ATOM     15  C   UNL     1       0.807   3.080  19.744  0.00  0.00    +0.000 A 
ATOM     16  C   UNL     1       1.307   3.945  18.768  0.00  0.00    +0.000 A 
ATOM     17  C   UNL     1       2.680   4.268  18.774  0.00  0.00    +0.000 A 
ATOM     18  S   UNL     1       3.508   5.359  17.721  0.00  0.00    +0.000 S 
ENDBRANCH   8  10
ENDBRANCH   4   8
BRANCH   1  19
ATOM     19  C   UNL     1       7.523   5.245  13.090  0.00  0.00    +0.000 C 
BRANCH  19  20
ATOM     20  C   UNL     1       7.166   4.049  12.213  0.00  0.00    +0.000 C 
BRANCH  20  21
ATOM     21  C   UNL     1       5.813   3.464  12.622  0.00  0.00    +0.000 C 
BRANCH  21  23
ATOM     22  C   UNL     1       3.881   3.151  11.044  0.00  0.00    +0.000 C 
ATOM     23  C   UNL     1       5.218   2.599  11.512  0.00  0.00    +0.000 C 
ENDBRANCH  21  23
ENDBRANCH  20  21
ENDBRANCH  19  20
ENDBRANCH   1  19
TORSDOF 7
ENDMDL
MODEL 2
REMARK VINA RESULT:      -7.6      1.126      1.254
REMARK  Name = 
REMARK  9 active torsions:
REMARK  status: ('A' for Active; 'I' for Inactive)
REMARK    1  A    between atoms: C_1  and  C_2
REMARK    2  A    between atoms: C_2  and  C_3
REMARK    3  A    between atoms: C_3  and  C_4
REMARK    4  A    between atoms: C_4  and  C_5
REMARK    5  A    between atoms: C_5  and  N_6
REMARK    6  A    between atoms: N_9  and  O_10
REMARK    7  A    between atoms: N_9  and  C_11
REMARK    8  A    between atoms: C_11  and  C_12
REMARK    9  A    between atoms: C_11  and  C_13
REMARK                            x       y       z     vdW  Elec       q    Type
REMARK                         _______ _______ _______ _____ _____    ______ ____
ROOT
ATOM      1  N   UNL     1       6.268   4.092  14.486  0.00  0.00    +0.000 N 
ATOM      2  C   UNL     1       5.741   4.369  15.726  0.00  0.00    +0.000 C 
ATOM      3  O   UNL     1       4.518   4.472  15.917  0.00  0.00    +0.000 OA
ATOM      4  N   UNL     1       6.670   4.461  16.742  0.00  0.00    +0.000 N 
ATOM      5  H   UNL     1       7.267   4.164  14.363  0.00  0.00    +0.000 HD
ENDROOT
BRANCH   4   6
ATOM      6  O   UNL     1       8.017   4.311  16.314  0.00  0.00    +0.000 OA
ATOM      7  H   UNL     1       8.312   3.576  16.881  0.00  0.00    +0.000 HD
ENDBRANCH   4   6
BRANCH   4   8
ATOM      8  C   UNL     1       6.434   5.302  17.951  0.00  0.00    +0.000 C 
ATOM      9  C   UNL     1       6.326   6.786  17.584  0.00  0.00    +0.000 C 
BRANCH   8  10
ATOM     10  C   UNL     1       5.184   4.880  18.723  0.00  0.00    +0.000 A 
ATOM     11  C   UNL     1       4.897   3.638  19.265  0.00  0.00    +0.000 A 
ATOM     12  C   UNL     1       3.607   3.542  19.881  0.00  0.00    +0.000 A 
ATOM     13  C   UNL     1       2.980   2.464  20.554  0.00  0.00    +0.000 A 
ATOM     14  C   UNL     1       1.676   2.598  21.044  0.00  0.00    +0.000 A 
ATOM     15  C   UNL     1       0.981   3.786  20.870  0.00  0.00    +0.000 A 
ATOM     16  C   UNL     1       1.583   4.871  20.228  0.00  0.00    +0.000 A 
ATOM     17  C   UNL     1       2.906   4.742  19.755  0.00  0.00    +0.000 A 
ATOM     18  S   UNL     1       3.875   5.955  18.999  0.00  0.00    +0.000 S 
ENDBRANCH   8  10
ENDBRANCH   4   8
BRANCH   1  19
ATOM     19  C   UNL     1       5.415   3.928  13.336  0.00  0.00    +0.000 C 
BRANCH  19  20
ATOM     20  C   UNL     1       6.157   3.339  12.141  0.00  0.00    +0.000 C 
BRANCH  20  21
ATOM     21  C   UNL     1       5.223   2.470  11.299  0.00  0.00    +0.000 C 
BRANCH  21  23
ATOM     22  C   UNL     1       3.515   3.833  10.056  0.00  0.00    +0.000 C 
ATOM     23  C   UNL     1       3.795   3.011  11.305  0.00  0.00    +0.000 C 
ENDBRANCH  21  23
ENDBRANCH  20  21
ENDBRANCH  19  20
ENDBRANCH   1  19
TORSDOF 7
ENDMDL
MODEL 3
REMARK VINA RESULT:      -7.6      1.093      1.675
REMARK  Name = 
REMARK  9 active torsions:
REMARK  status: ('A' for Active; 'I' for Inactive)
REMARK    1  A    between atoms: C_1  and  C_2
REMARK    2  A    between atoms: C_2  and  C_3
REMARK    3  A    between atoms: C_3  and  C_4
REMARK    4  A    between atoms: C_4  and  C_5
REMARK    5  A    between atoms: C_5  and  N_6
REMARK    6  A    between atoms: N_9  and  O_10
REMARK    7  A    between atoms: N_9  and  C_11
REMARK    8  A    between atoms: C_11  and  C_12
REMARK    9  A    between atoms: C_11  and  C_13
REMARK                            x       y       z     vdW  Elec       q    Type
REMARK                         _______ _______ _______ _____ _____    ______ ____
ROOT
ATOM      1  N   UNL     1       6.955   4.228  13.766  0.00  0.00    +0.000 N 
ATOM      2  C   UNL     1       6.007   4.541  14.711  0.00  0.00    +0.000 C 
ATOM      3  O   UNL     1       4.804   4.662  14.425  0.00  0.00    +0.000 OA
ATOM      4  N   UNL     1       6.486   4.645  16.000  0.00  0.00    +0.000 N 
ATOM      5  H   UNL     1       7.929   4.286  14.027  0.00  0.00    +0.000 HD
ENDROOT
BRANCH   4   6
ATOM      6  O   UNL     1       7.892   4.471  16.115  0.00  0.00    +0.000 OA
ATOM      7  H   UNL     1       8.103   4.082  15.247  0.00  0.00    +0.000 HD
ENDBRANCH   4   6
BRANCH   4   8
ATOM      8  C   UNL     1       5.828   5.517  17.016  0.00  0.00    +0.000 C 
ATOM      9  C   UNL     1       5.221   6.767  16.369  0.00  0.00    +0.000 C 
BRANCH   8  10
ATOM     10  C   UNL     1       4.746   4.781  17.807  0.00  0.00    +0.000 A 
ATOM     11  C   UNL     1       3.401   4.663  17.502  0.00  0.00    +0.000 A 
ATOM     12  C   UNL     1       2.629   3.955  18.480  0.00  0.00    +0.000 A 
ATOM     13  C   UNL     1       1.254   3.615  18.505  0.00  0.00    +0.000 A 
ATOM     14  C   UNL     1       0.711   2.944  19.607  0.00  0.00    +0.000 A 
ATOM     15  C   UNL     1       1.513   2.612  20.690  0.00  0.00    +0.000 A 
ATOM     16  C   UNL     1       2.876   2.918  20.682  0.00  0.00    +0.000 A 
ATOM     17  C   UNL     1       3.427   3.573  19.560  0.00  0.00    +0.000 A 
ATOM     18  S   UNL     1       5.082   3.988  19.292  0.00  0.00    +0.000 S 
ENDBRANCH   8  10
ENDBRANCH   4   8
BRANCH   1  19
ATOM     19  C   UNL     1       6.595   4.047  12.383  0.00  0.00    +0.000 C 
BRANCH  19  20
ATOM     20  C   UNL     1       6.569   2.577  11.976  0.00  0.00    +0.000 C 
BRANCH  20  21
ATOM     21  C   UNL     1       5.211   2.206  11.379  0.00  0.00    +0.000 C 
BRANCH  21  23
ATOM     22  C   UNL     1       3.330   3.426  10.241  0.00  0.00    +0.000 C 
ATOM     23  C   UNL     1       4.221   3.365  11.472  0.00  0.00    +0.000 C 
ENDBRANCH  21  23
ENDBRANCH  20  21
ENDBRANCH  19  20
ENDBRANCH   1  19
TORSDOF 7
ENDMDL
MODEL 4
REMARK VINA RESULT:      -7.6      3.490      5.475
REMARK  Name = 
REMARK  9 active torsions:
REMARK  status: ('A' for Active; 'I' for Inactive)
REMARK    1  A    between atoms: C_1  and  C_2
REMARK    2  A    between atoms: C_2  and  C_3
REMARK    3  A    between atoms: C_3  and  C_4
REMARK    4  A    between atoms: C_4  and  C_5
REMARK    5  A    between atoms: C_5  and  N_6
REMARK    6  A    between atoms: N_9  and  O_10
REMARK    7  A    between atoms: N_9  and  C_11
REMARK    8  A    between atoms: C_11  and  C_12
REMARK    9  A    between atoms: C_11  and  C_13
REMARK                            x       y       z     vdW  Elec       q    Type
REMARK                         _______ _______ _______ _____ _____    ______ ____
ROOT
ATOM      1  N   UNL     1       6.741   4.284  18.590  0.00  0.00    +0.000 N 
ATOM      2  C   UNL     1       5.588   4.151  17.853  0.00  0.00    +0.000 C 
ATOM      3  O   UNL     1       5.458   4.668  16.731  0.00  0.00    +0.000 OA
ATOM      4  N   UNL     1       4.622   3.352  18.428  0.00  0.00    +0.000 N 
ATOM      5  H   UNL     1       6.736   3.968  19.549  0.00  0.00    +0.000 HD
ENDROOT
BRANCH   4   6
ATOM      6  O   UNL     1       4.968   2.855  19.714  0.00  0.00    +0.000 OA
ATOM      7  H   UNL     1       5.690   3.461  19.960  0.00  0.00    +0.000 HD
ENDBRANCH   4   6
BRANCH   4   8
ATOM      8  C   UNL     1       3.170   3.545  18.145  0.00  0.00    +0.000 C 
ATOM      9  C   UNL     1       2.325   2.445  18.798  0.00  0.00    +0.000 C 
BRANCH   8  10
ATOM     10  C   UNL     1       2.661   4.911  18.604  0.00  0.00    +0.000 A 
ATOM     11  C   UNL     1       2.557   6.074  17.860  0.00  0.00    +0.000 A 
ATOM     12  C   UNL     1       2.096   7.213  18.598  0.00  0.00    +0.000 A 
ATOM     13  C   UNL     1       1.841   8.544  18.183  0.00  0.00    +0.000 A 
ATOM     14  C   UNL     1       1.429   9.507  19.111  0.00  0.00    +0.000 A 
ATOM     15  C   UNL     1       1.273   9.171  20.448  0.00  0.00    +0.000 A 
ATOM     16  C   UNL     1       1.499   7.861  20.880  0.00  0.00    +0.000 A 
ATOM     17  C   UNL     1       1.891   6.886  19.939  0.00  0.00    +0.000 A 
ATOM     18  S   UNL     1       2.158   5.202  20.219  0.00  0.00    +0.000 S 
ENDBRANCH   8  10
ENDBRANCH   4   8
BRANCH   1  19
ATOM     19  C   UNL     1       7.854   5.057  18.098  0.00  0.00    +0.000 C 
BRANCH  19  20
ATOM     20  C   UNL     1       7.793   6.514  18.545  0.00  0.00    +0.000 C 
BRANCH  20  21
ATOM     21  C   UNL     1       7.629   7.443  17.342  0.00  0.00    +0.000 C 
BRANCH  21  23
ATOM     22  C   UNL     1       8.831   9.127  18.770  0.00  0.00    +0.000 C 
ATOM     23  C   UNL     1       7.724   8.912  17.750  0.00  0.00    +0.000 C 
ENDBRANCH  21  23
ENDBRANCH  20  21
ENDBRANCH  19  20
ENDBRANCH   1  19
TORSDOF 7
ENDMDL
MODEL 5
REMARK VINA RESULT:      -7.5      1.561      2.009
REMARK  Name = 
REMARK  9 active torsions:
REMARK  status: ('A' for Active; 'I' for Inactive)
REMARK    1  A    between atoms: C_1  and  C_2
REMARK    2  A    between atoms: C_2  and  C_3
REMARK    3  A    between atoms: C_3  and  C_4
REMARK    4  A    between atoms: C_4  and  C_5
REMARK    5  A    between atoms: C_5  and  N_6
REMARK    6  A    between atoms: N_9  and  O_10
REMARK    7  A    between atoms: N_9  and  C_11
REMARK    8  A    between atoms: C_11  and  C_12
REMARK    9  A    between atoms: C_11  and  C_13
REMARK                            x       y       z     vdW  Elec       q    Type
REMARK                         _______ _______ _______ _____ _____    ______ ____
ROOT
ATOM      1  N   UNL     1       6.166   5.096  14.649  0.00  0.00    +0.000 N 
ATOM      2  C   UNL     1       6.456   4.405  15.802  0.00  0.00    +0.000 C 
ATOM      3  O   UNL     1       6.114   3.223  15.968  0.00  0.00    +0.000 OA
ATOM      4  N   UNL     1       7.204   5.106  16.725  0.00  0.00    +0.000 N 
ATOM      5  H   UNL     1       6.339   6.091  14.630  0.00  0.00    +0.000 HD
ENDROOT
BRANCH   4   6
ATOM      6  O   UNL     1       7.492   6.445  16.343  0.00  0.00    +0.000 OA
ATOM      7  H   UNL     1       8.211   6.665  16.962  0.00  0.00    +0.000 HD
ENDBRANCH   4   6
BRANCH   4   8
ATOM      8  C   UNL     1       7.119   4.824  18.187  0.00  0.00    +0.000 C 
ATOM      9  C   UNL     1       7.933   5.838  18.998  0.00  0.00    +0.000 C 
BRANCH   8  10
ATOM     10  C   UNL     1       5.678   4.810  18.696  0.00  0.00    +0.000 A 
ATOM     11  C   UNL     1       4.833   5.889  18.891  0.00  0.00    +0.000 A 
ATOM     12  C   UNL     1       3.553   5.552  19.440  0.00  0.00    +0.000 A 
ATOM     13  C   UNL     1       2.433   6.365  19.747  0.00  0.00    +0.000 A 
ATOM     14  C   UNL     1       1.289   5.803  20.325  0.00  0.00    +0.000 A 
ATOM     15  C   UNL     1       1.242   4.446  20.610  0.00  0.00    +0.000 A 
ATOM     16  C   UNL     1       2.324   3.619  20.298  0.00  0.00    +0.000 A 
ATOM     17  C   UNL     1       3.467   4.182  19.694  0.00  0.00    +0.000 A 
ATOM     18  S   UNL     1       4.888   3.358  19.158  0.00  0.00    +0.000 S 
ENDBRANCH   8  10
ENDBRANCH   4   8
BRANCH   1  19
ATOM     19  C   UNL     1       5.425   4.478  13.578  0.00  0.00    +0.000 C 
BRANCH  19  20
ATOM     20  C   UNL     1       6.310   3.622  12.678  0.00  0.00    +0.000 C 
BRANCH  20  21
ATOM     21  C   UNL     1       5.472   2.914  11.612  0.00  0.00    +0.000 C 
BRANCH  21  23
ATOM     22  C   UNL     1       3.432   3.569  10.297  0.00  0.00    +0.000 C 
ATOM     23  C   UNL     1       4.004   3.329  11.685  0.00  0.00    +0.000 C 
ENDBRANCH  21  23
ENDBRANCH  20  21
ENDBRANCH  19  20
ENDBRANCH   1  19
TORSDOF 7
ENDMDL
MODEL 6
REMARK VINA RESULT:      -7.5      1.175      2.078
REMARK  Name = 
REMARK  9 active torsions:
REMARK  status: ('A' for Active; 'I' for Inactive)
REMARK    1  A    between atoms: C_1  and  C_2
REMARK    2  A    between atoms: C_2  and  C_3
REMARK    3  A    between atoms: C_3  and  C_4
REMARK    4  A    between atoms: C_4  and  C_5
REMARK    5  A    between atoms: C_5  and  N_6
REMARK    6  A    between atoms: N_9  and  O_10
REMARK    7  A    between atoms: N_9  and  C_11
REMARK    8  A    between atoms: C_11  and  C_12
REMARK    9  A    between atoms: C_11  and  C_13
REMARK                            x       y       z     vdW  Elec       q    Type
REMARK                         _______ _______ _______ _____ _____    ______ ____
ROOT
ATOM      1  N   UNL     1       6.125   4.662  13.791  0.00  0.00    +0.000 N 
ATOM      2  C   UNL     1       6.632   4.876  15.051  0.00  0.00    +0.000 C 
ATOM      3  O   UNL     1       7.536   4.170  15.529  0.00  0.00    +0.000 OA
ATOM      4  N   UNL     1       6.104   5.966  15.710  0.00  0.00    +0.000 N 
ATOM      5  H   UNL     1       5.298   5.170  13.514  0.00  0.00    +0.000 HD
ENDROOT
BRANCH   4   6
ATOM      6  O   UNL     1       5.082   6.643  14.990  0.00  0.00    +0.000 OA
ATOM      7  H   UNL     1       5.188   6.252  14.104  0.00  0.00    +0.000 HD
ENDBRANCH   4   6
BRANCH   4   8
ATOM      8  C   UNL     1       6.038   6.031  17.199  0.00  0.00    +0.000 C 
ATOM      9  C   UNL     1       5.826   7.469  17.685  0.00  0.00    +0.000 C 
BRANCH   8  10
ATOM     10  C   UNL     1       4.941   5.135  17.775  0.00  0.00    +0.000 A 
ATOM     11  C   UNL     1       3.612   5.065  17.394  0.00  0.00    +0.000 A 
ATOM     12  C   UNL     1       2.817   4.163  18.173  0.00  0.00    +0.000 A 
ATOM     13  C   UNL     1       1.449   3.808  18.069  0.00  0.00    +0.000 A 
ATOM     14  C   UNL     1       0.877   2.919  18.986  0.00  0.00    +0.000 A 
ATOM     15  C   UNL     1       1.641   2.383  20.012  0.00  0.00    +0.000 A 
ATOM     16  C   UNL     1       2.997   2.701  20.126  0.00  0.00    +0.000 A 
ATOM     17  C   UNL     1       3.578   3.578  19.186  0.00  0.00    +0.000 A 
ATOM     18  S   UNL     1       5.234   4.060  19.080  0.00  0.00    +0.000 S 
ENDBRANCH   8  10
ENDBRANCH   4   8
BRANCH   1  19
ATOM     19  C   UNL     1       6.610   3.583  12.968  0.00  0.00    +0.000 C 
BRANCH  19  20
ATOM     20  C   UNL     1       5.487   2.871  12.221  0.00  0.00    +0.000 C 
BRANCH  20  21
ATOM     21  C   UNL     1       4.524   3.884  11.601  0.00  0.00    +0.000 C 
BRANCH  21  23
ATOM     22  C   UNL     1       2.946   4.157   9.663  0.00  0.00    +0.000 C 
ATOM     23  C   UNL     1       3.484   3.200  10.715  0.00  0.00    +0.000 C 
ENDBRANCH  21  23
ENDBRANCH  20  21
ENDBRANCH  19  20
ENDBRANCH   1  19
TORSDOF 7
ENDMDL
MODEL 7
REMARK VINA RESULT:      -7.5      1.150      1.588
REMARK  Name = 
REMARK  9 active torsions:
REMARK  status: ('A' for Active; 'I' for Inactive)
REMARK    1  A    between atoms: C_1  and  C_2
REMARK    2  A    between atoms: C_2  and  C_3
REMARK    3  A    between atoms: C_3  and  C_4
REMARK    4  A    between atoms: C_4  and  C_5
REMARK    5  A    between atoms: C_5  and  N_6
REMARK    6  A    between atoms: N_9  and  O_10
REMARK    7  A    between atoms: N_9  and  C_11
REMARK    8  A    between atoms: C_11  and  C_12
REMARK    9  A    between atoms: C_11  and  C_13
REMARK                            x       y       z     vdW  Elec       q    Type
REMARK                         _______ _______ _______ _____ _____    ______ ____
ROOT
ATOM      1  N   UNL     1       6.362   5.270  14.198  0.00  0.00    +0.000 N 
ATOM      2  C   UNL     1       6.937   4.982  15.413  0.00  0.00    +0.000 C 
ATOM      3  O   UNL     1       7.890   4.192  15.523  0.00  0.00    +0.000 OA
ATOM      4  N   UNL     1       6.417   5.682  16.481  0.00  0.00    +0.000 N 
ATOM      5  H   UNL     1       5.504   5.802  14.188  0.00  0.00    +0.000 HD
ENDROOT
BRANCH   4   6
ATOM      6  O   UNL     1       5.332   6.537  16.143  0.00  0.00    +0.000 OA
ATOM      7  H   UNL     1       5.236   6.350  15.192  0.00  0.00    +0.000 HD
ENDBRANCH   4   6
BRANCH   4   8
ATOM      8  C   UNL     1       6.439   5.135  17.868  0.00  0.00    +0.000 C 
ATOM      9  C   UNL     1       7.041   6.141  18.855  0.00  0.00    +0.000 C 
BRANCH   8  10
ATOM     10  C   UNL     1       5.051   4.719  18.355  0.00  0.00    +0.000 A 
ATOM     11  C   UNL     1       4.340   5.223  19.431  0.00  0.00    +0.000 A 
ATOM     12  C   UNL     1       3.082   4.580  19.668  0.00  0.00    +0.000 A 
ATOM     13  C   UNL     1       2.081   4.830  20.639  0.00  0.00    +0.000 A 
ATOM     14  C   UNL     1       0.936   4.028  20.699  0.00  0.00    +0.000 A 
ATOM     15  C   UNL     1       0.773   2.973  19.812  0.00  0.00    +0.000 A 
ATOM     16  C   UNL     1       1.735   2.716  18.831  0.00  0.00    +0.000 A 
ATOM     17  C   UNL     1       2.877   3.541  18.757  0.00  0.00    +0.000 A 
ATOM     18  S   UNL     1       4.156   3.465  17.599  0.00  0.00    +0.000 S 
ENDBRANCH   8  10
ENDBRANCH   4   8
BRANCH   1  19
ATOM     19  C   UNL     1       6.830   4.644  12.987  0.00  0.00    +0.000 C 
BRANCH  19  20
ATOM     20  C   UNL     1       6.177   3.288  12.743  0.00  0.00    +0.000 C 
BRANCH  20  21
ATOM     21  C   UNL     1       5.503   3.250  11.372  0.00  0.00    +0.000 C 
BRANCH  21  23
ATOM     22  C   UNL     1       3.344   3.701  10.164  0.00  0.00    +0.000 C 
ATOM     23  C   UNL     1       3.982   3.322  11.492  0.00  0.00    +0.000 C 
ENDBRANCH  21  23
ENDBRANCH  20  21
ENDBRANCH  19  20
ENDBRANCH   1  19
TORSDOF 7
ENDMDL
MODEL 8
REMARK VINA RESULT:      -7.5      2.713      5.454
REMARK  Name = 
REMARK  9 active torsions:
REMARK  status: ('A' for Active; 'I' for Inactive)
REMARK    1  A    between atoms: C_1  and  C_2
REMARK    2  A    between atoms: C_2  and  C_3
REMARK    3  A    between atoms: C_3  and  C_4
REMARK    4  A    between atoms: C_4  and  C_5
REMARK    5  A    between atoms: C_5  and  N_6
REMARK    6  A    between atoms: N_9  and  O_10
REMARK    7  A    between atoms: N_9  and  C_11
REMARK    8  A    between atoms: C_11  and  C_12
REMARK    9  A    between atoms: C_11  and  C_13
REMARK                            x       y       z     vdW  Elec       q    Type
REMARK                         _______ _______ _______ _____ _____    ______ ____
ROOT
ATOM      1  N   UNL     1       7.126   7.643  17.151  0.00  0.00    +0.000 N 
ATOM      2  C   UNL     1       6.364   6.533  17.427  0.00  0.00    +0.000 C 
ATOM      3  O   UNL     1       6.532   5.854  18.454  0.00  0.00    +0.000 OA
ATOM      4  N   UNL     1       5.365   6.273  16.512  0.00  0.00    +0.000 N 
ATOM      5  H   UNL     1       7.042   8.067  16.238  0.00  0.00    +0.000 HD
ENDROOT
BRANCH   4   6
ATOM      6  O   UNL     1       5.340   7.169  15.408  0.00  0.00    +0.000 OA
ATOM      7  H   UNL     1       4.995   6.590  14.705  0.00  0.00    +0.000 HD
ENDBRANCH   4   6
BRANCH   4   8
ATOM      8  C   UNL     1       4.855   4.892  16.273  0.00  0.00    +0.000 C 
ATOM      9  C   UNL     1       5.997   3.928  15.931  0.00  0.00    +0.000 C 
BRANCH   8  10
ATOM     10  C   UNL     1       4.071   4.343  17.465  0.00  0.00    +0.000 A 
ATOM     11  C   UNL     1       2.786   4.672  17.862  0.00  0.00    +0.000 A 
ATOM     12  C   UNL     1       2.351   4.025  19.065  0.00  0.00    +0.000 A 
ATOM     13  C   UNL     1       1.115   4.086  19.755  0.00  0.00    +0.000 A 
ATOM     14  C   UNL     1       0.938   3.384  20.952  0.00  0.00    +0.000 A 
ATOM     15  C   UNL     1       1.973   2.626  21.480  0.00  0.00    +0.000 A 
ATOM     16  C   UNL     1       3.195   2.532  20.810  0.00  0.00    +0.000 A 
ATOM     17  C   UNL     1       3.365   3.222  19.590  0.00  0.00    +0.000 A 
ATOM     18  S   UNL     1       4.747   3.202  18.554  0.00  0.00    +0.000 S 
ENDBRANCH   8  10
ENDBRANCH   4   8
BRANCH   1  19
ATOM     19  C   UNL     1       8.181   8.061  18.039  0.00  0.00    +0.000 C 
BRANCH  19  20
ATOM     20  C   UNL     1       8.454   9.559  17.954  0.00  0.00    +0.000 C 
BRANCH  20  21
ATOM     21  C   UNL     1       9.147  10.056  19.223  0.00  0.00    +0.000 C 
BRANCH  21  23
ATOM     22  C   UNL     1      10.435  11.548  17.663  0.00  0.00    +0.000 C 
ATOM     23  C   UNL     1       9.762  11.439  19.022  0.00  0.00    +0.000 C 
ENDBRANCH  21  23
ENDBRANCH  20  21
ENDBRANCH  19  20
ENDBRANCH   1  19
TORSDOF 7
ENDMDL
MODEL 9
REMARK VINA RESULT:      -7.3      1.224      1.716
REMARK  Name = 
REMARK  9 active torsions:
REMARK  status: ('A' for Active; 'I' for Inactive)
REMARK    1  A    between atoms: C_1  and  C_2
REMARK    2  A    between atoms: C_2  and  C_3
REMARK    3  A    between atoms: C_3  and  C_4
REMARK    4  A    between atoms: C_4  and  C_5
REMARK    5  A    between atoms: C_5  and  N_6
REMARK    6  A    between atoms: N_9  and  O_10
REMARK    7  A    between atoms: N_9  and  C_11
REMARK    8  A    between atoms: C_11  and  C_12
REMARK    9  A    between atoms: C_11  and  C_13
REMARK                            x       y       z     vdW  Elec       q    Type
REMARK                         _______ _______ _______ _____ _____    ______ ____
ROOT
ATOM      1  N   UNL     1       6.390   5.100  14.435  0.00  0.00    +0.000 N 
ATOM      2  C   UNL     1       6.940   4.771  15.652  0.00  0.00    +0.000 C 
ATOM      3  O   UNL     1       7.883   3.970  15.756  0.00  0.00    +0.000 OA
ATOM      4  N   UNL     1       6.405   5.445  16.730  0.00  0.00    +0.000 N 
ATOM      5  H   UNL     1       5.537   5.640  14.425  0.00  0.00    +0.000 HD
ENDROOT
BRANCH   4   6
ATOM      6  O   UNL     1       5.334   6.319  16.397  0.00  0.00    +0.000 OA
ATOM      7  H   UNL     1       4.585   5.697  16.379  0.00  0.00    +0.000 HD
ENDBRANCH   4   6
BRANCH   4   8
ATOM      8  C   UNL     1       6.396   4.857  18.101  0.00  0.00    +0.000 C 
ATOM      9  C   UNL     1       6.950   5.844  19.134  0.00  0.00    +0.000 C 
BRANCH   8  10
ATOM     10  C   UNL     1       5.002   4.402  18.533  0.00  0.00    +0.000 A 
ATOM     11  C   UNL     1       4.262   3.341  18.039  0.00  0.00    +0.000 A 
ATOM     12  C   UNL     1       2.956   3.208  18.614  0.00  0.00    +0.000 A 
ATOM     13  C   UNL     1       1.938   2.249  18.388  0.00  0.00    +0.000 A 
ATOM     14  C   UNL     1       0.709   2.352  19.050  0.00  0.00    +0.000 A 
ATOM     15  C   UNL     1       0.473   3.399  19.929  0.00  0.00    +0.000 A 
ATOM     16  C   UNL     1       1.467   4.348  20.185  0.00  0.00    +0.000 A 
ATOM     17  C   UNL     1       2.713   4.229  19.535  0.00  0.00    +0.000 A 
ATOM     18  S   UNL     1       4.107   5.228  19.741  0.00  0.00    +0.000 S 
ENDBRANCH   8  10
ENDBRANCH   4   8
BRANCH   1  19
ATOM     19  C   UNL     1       6.876   4.506  13.215  0.00  0.00    +0.000 C 
BRANCH  19  20
ATOM     20  C   UNL     1       5.933   3.435  12.675  0.00  0.00    +0.000 C 
BRANCH  20  21
ATOM     21  C   UNL     1       4.942   4.038  11.679  0.00  0.00    +0.000 C 
BRANCH  21  23
ATOM     22  C   UNL     1       3.112   3.560  10.024  0.00  0.00    +0.000 C 
ATOM     23  C   UNL     1       4.003   2.978  11.110  0.00  0.00    +0.000 C 
ENDBRANCH  21  23
ENDBRANCH  20  21
ENDBRANCH  19  20
ENDBRANCH   1  19
TORSDOF 7
ENDMDL
