MODEL 1
REMARK VINA RESULT:      -7.9      0.000      0.000
REMARK  Name = 
REMARK  10 active torsions:
REMARK  status: ('A' for Active; 'I' for Inactive)
REMARK    1  A    between atoms: C_2  and  C_3
REMARK    2  A    between atoms: C_2  and  C_24
REMARK    3  A    between atoms: C_3  and  C_4
REMARK    4  A    between atoms: C_4  and  C_5
REMARK    5  A    between atoms: C_5  and  C_6
REMARK    6  A    between atoms: C_9  and  C_10
REMARK    7  A    between atoms: C_10  and  C_11
REMARK    8  A    between atoms: C_11  and  C_12
REMARK    9  A    between atoms: C_12  and  C_13
REMARK   10  A    between atoms: C_13  and  C_15
REMARK                            x       y       z     vdW  Elec       q    Type
REMARK                         _______ _______ _______ _____ _____    ______ ____
ROOT
ATOM      1  C   UNL     1       7.577   5.591  17.418  0.00  0.00    +0.000 C 
ATOM      2  O   UNL     1       7.284   6.458  16.314  0.00  0.00    +0.000 OA
ATOM      3  O   UNL     1       8.156   7.619  16.475  0.00  0.00    +0.000 OA
ATOM      4  C   UNL     1       7.728   8.268  17.678  0.00  0.00    +0.000 C 
ATOM      5  O   UNL     1       8.007   7.419  18.802  0.00  0.00    +0.000 OA
ATOM      6  O   UNL     1       7.162   6.219  18.640  0.00  0.00    +0.000 OA
ENDROOT
BRANCH   1   7
ATOM      7  C   UNL     1       6.795   4.293  17.234  0.00  0.00    +0.000 C 
BRANCH   7   8
ATOM      8  C   UNL     1       5.455   4.356  17.967  0.00  0.00    +0.000 C 
BRANCH   8   9
ATOM      9  C   UNL     1       4.326   4.890  17.088  0.00  0.00    +0.000 C 
BRANCH   9  11
ATOM     10  O   UNL     1       2.893   6.691  17.808  0.00  0.00    +0.000 OA
ATOM     11  C   UNL     1       3.238   5.518  17.944  0.00  0.00    +0.000 C 
BRANCH  11  12
ATOM     12  C   UNL     1       2.555   4.685  18.976  0.00  0.00    +0.000 A 
ATOM     13  C   UNL     1       2.809   4.972  20.328  0.00  0.00    +0.000 A 
ATOM     14  C   UNL     1       2.196   4.227  21.336  0.00  0.00    +0.000 A 
ATOM     15  C   UNL     1       1.332   3.195  20.992  0.00  0.00    +0.000 A 
ATOM     16  F   UNL     1       0.743   2.478  21.955  0.00  0.00    +0.000 F 
ATOM     17  C   UNL     1       1.071   2.896  19.659  0.00  0.00    +0.000 A 
ATOM     18  C   UNL     1       1.683   3.641  18.645  0.00  0.00    +0.000 A 
ENDBRANCH  11  12
ENDBRANCH   9  11
ENDBRANCH   8   9
ENDBRANCH   7   8
ENDBRANCH   1   7
BRANCH   4  19
ATOM     19  C   UNL     1       8.511   9.571  17.828  0.00  0.00    +0.000 C 
BRANCH  19  20
ATOM     20  C   UNL     1       9.200   9.628  19.190  0.00  0.00    +0.000 C 
BRANCH  20  21
ATOM     21  C   UNL     1       9.311  11.048  19.742  0.00  0.00    +0.000 C 
BRANCH  21  22
ATOM     22  C   UNL     1      10.571  11.719  19.220  0.00  0.00    +0.000 C 
ATOM     23  O   UNL     1      11.680  11.192  19.308  0.00  0.00    +0.000 OA
BRANCH  22  24
ATOM     24  C   UNL     1      10.466  13.060  18.576  0.00  0.00    +0.000 A 
ATOM     25  C   UNL     1      11.319  13.465  17.541  0.00  0.00    +0.000 A 
ATOM     26  C   UNL     1      11.177  14.738  16.981  0.00  0.00    +0.000 A 
ATOM     27  C   UNL     1      10.190  15.596  17.454  0.00  0.00    +0.000 A 
ATOM     28  F   UNL     1      10.061  16.814  16.914  0.00  0.00    +0.000 F 
ATOM     29  C   UNL     1       9.335  15.208  18.478  0.00  0.00    +0.000 A 
ATOM     30  C   UNL     1       9.474  13.939  19.041  0.00  0.00    +0.000 A 
ENDBRANCH  22  24
ENDBRANCH  21  22
ENDBRANCH  20  21
ENDBRANCH  19  20
ENDBRANCH   4  19
TORSDOF 10
ENDMDL
MODEL 2
REMARK VINA RESULT:      -7.7      1.673     10.685
REMARK  Name = 
REMARK  10 active torsions:
REMARK  status: ('A' for Active; 'I' for Inactive)
REMARK    1  A    between atoms: C_2  and  C_3
REMARK    2  A    between atoms: C_2  and  C_24
REMARK    3  A    between atoms: C_3  and  C_4
REMARK    4  A    between atoms: C_4  and  C_5
REMARK    5  A    between atoms: C_5  and  C_6
REMARK    6  A    between atoms: C_9  and  C_10
REMARK    7  A    between atoms: C_10  and  C_11
REMARK    8  A    between atoms: C_11  and  C_12
REMARK    9  A    between atoms: C_12  and  C_13
REMARK   10  A    between atoms: C_13  and  C_15
REMARK                            x       y       z     vdW  Elec       q    Type
REMARK                         _______ _______ _______ _____ _____    ______ ____
ROOT
ATOM      1  C   UNL     1       8.425   8.240  18.070  0.00  0.00    +0.000 C 
ATOM      2  O   UNL     1       8.251   7.073  18.885  0.00  0.00    +0.000 OA
ATOM      3  O   UNL     1       8.038   5.965  17.956  0.00  0.00    +0.000 OA
ATOM      4  C   UNL     1       6.795   6.238  17.297  0.00  0.00    +0.000 C 
ATOM      5  O   UNL     1       6.940   7.406  16.475  0.00  0.00    +0.000 OA
ATOM      6  O   UNL     1       7.194   8.535  17.392  0.00  0.00    +0.000 OA
ENDROOT
BRANCH   1   7
ATOM      7  C   UNL     1       8.787   9.413  18.976  0.00  0.00    +0.000 C 
BRANCH   7   8
ATOM      8  C   UNL     1       8.817  10.722  18.189  0.00  0.00    +0.000 C 
BRANCH   8   9
ATOM      9  C   UNL     1      10.235  11.178  17.854  0.00  0.00    +0.000 C 
BRANCH   9  11
ATOM     10  O   UNL     1      10.830  13.373  17.053  0.00  0.00    +0.000 OA
ATOM     11  C   UNL     1      10.346  12.691  17.954  0.00  0.00    +0.000 C 
BRANCH  11  12
ATOM     12  C   UNL     1       9.842  13.375  19.180  0.00  0.00    +0.000 A 
ATOM     13  C   UNL     1       8.757  14.257  19.043  0.00  0.00    +0.000 A 
ATOM     14  C   UNL     1       8.242  14.923  20.155  0.00  0.00    +0.000 A 
ATOM     15  C   UNL     1       8.813  14.708  21.403  0.00  0.00    +0.000 A 
ATOM     16  F   UNL     1       8.323  15.344  22.472  0.00  0.00    +0.000 F 
ATOM     17  C   UNL     1       9.889  13.839  21.558  0.00  0.00    +0.000 A 
ATOM     18  C   UNL     1      10.407  13.169  20.445  0.00  0.00    +0.000 A 
ENDBRANCH  11  12
ENDBRANCH   9  11
ENDBRANCH   8   9
ENDBRANCH   7   8
ENDBRANCH   1   7
BRANCH   4  19
ATOM     19  C   UNL     1       6.446   5.043  16.413  0.00  0.00    +0.000 C 
BRANCH  19  20
ATOM     20  C   UNL     1       4.970   5.079  16.021  0.00  0.00    +0.000 C 
BRANCH  20  21
ATOM     21  C   UNL     1       4.099   4.186  16.901  0.00  0.00    +0.000 C 
BRANCH  21  22
ATOM     22  C   UNL     1       3.270   5.033  17.854  0.00  0.00    +0.000 C 
ATOM     23  O   UNL     1       3.110   6.242  17.687  0.00  0.00    +0.000 OA
BRANCH  22  24
ATOM     24  C   UNL     1       2.624   4.381  19.029  0.00  0.00    +0.000 A 
ATOM     25  C   UNL     1       2.976   4.693  20.348  0.00  0.00    +0.000 A 
ATOM     26  C   UNL     1       2.341   4.043  21.411  0.00  0.00    +0.000 A 
ATOM     27  C   UNL     1       1.362   3.090  21.152  0.00  0.00    +0.000 A 
ATOM     28  F   UNL     1       0.759   2.470  22.173  0.00  0.00    +0.000 F 
ATOM     29  C   UNL     1       1.001   2.770  19.849  0.00  0.00    +0.000 A 
ATOM     30  C   UNL     1       1.633   3.416  18.786  0.00  0.00    +0.000 A 
ENDBRANCH  22  24
ENDBRANCH  21  22
ENDBRANCH  20  21
ENDBRANCH  19  20
ENDBRANCH   4  19
TORSDOF 10
ENDMDL
MODEL 3
REMARK VINA RESULT:      -7.7      2.176     10.148
REMARK  Name = 
REMARK  10 active torsions:
REMARK  status: ('A' for Active; 'I' for Inactive)
REMARK    1  A    between atoms: C_2  and  C_3
REMARK    2  A    between atoms: C_2  and  C_24
REMARK    3  A    between atoms: C_3  and  C_4
REMARK    4  A    between atoms: C_4  and  C_5
REMARK    5  A    between atoms: C_5  and  C_6
REMARK    6  A    between atoms: C_9  and  C_10
REMARK    7  A    between atoms: C_10  and  C_11
REMARK    8  A    between atoms: C_11  and  C_12
REMARK    9  A    between atoms: C_12  and  C_13
REMARK   10  A    between atoms: C_13  and  C_15
REMARK                            x       y       z     vdW  Elec       q    Type
REMARK                         _______ _______ _______ _____ _____    ______ ____
ROOT
ATOM      1  C   UNL     1       6.983   5.949  17.203  0.00  0.00    +0.000 C 
ATOM      2  O   UNL     1       5.797   6.198  17.968  0.00  0.00    +0.000 OA
ATOM      3  O   UNL     1       5.357   4.894  18.460  0.00  0.00    +0.000 OA
ATOM      4  C   UNL     1       4.989   4.140  17.299  0.00  0.00    +0.000 C 
ATOM      5  O   UNL     1       6.161   3.878  16.511  0.00  0.00    +0.000 OA
ATOM      6  O   UNL     1       6.645   5.189  16.034  0.00  0.00    +0.000 OA
ENDROOT
BRANCH   1   7
ATOM      7  C   UNL     1       7.572   7.290  16.773  0.00  0.00    +0.000 C 
BRANCH   7   8
ATOM      8  C   UNL     1       8.096   8.068  17.979  0.00  0.00    +0.000 C 
BRANCH   8   9
ATOM      9  C   UNL     1       8.107   9.577  17.749  0.00  0.00    +0.000 C 
BRANCH   9  11
ATOM     10  O   UNL     1       9.268   9.831  19.847  0.00  0.00    +0.000 OA
ATOM     11  C   UNL     1       9.072  10.255  18.709  0.00  0.00    +0.000 C 
BRANCH  11  12
ATOM     12  C   UNL     1       9.813  11.467  18.257  0.00  0.00    +0.000 A 
ATOM     13  C   UNL     1       9.070  12.622  17.962  0.00  0.00    +0.000 A 
ATOM     14  C   UNL     1       9.712  13.786  17.537  0.00  0.00    +0.000 A 
ATOM     15  C   UNL     1      11.094  13.794  17.406  0.00  0.00    +0.000 A 
ATOM     16  F   UNL     1      11.713  14.907  17.000  0.00  0.00    +0.000 F 
ATOM     17  C   UNL     1      11.846  12.659  17.693  0.00  0.00    +0.000 A 
ATOM     18  C   UNL     1      11.207  11.491  18.120  0.00  0.00    +0.000 A 
ENDBRANCH  11  12
ENDBRANCH   9  11
ENDBRANCH   8   9
ENDBRANCH   7   8
ENDBRANCH   1   7
BRANCH   4  19
ATOM     19  C   UNL     1       4.386   2.814  17.757  0.00  0.00    +0.000 C 
BRANCH  19  20
ATOM     20  C   UNL     1       4.153   2.824  19.266  0.00  0.00    +0.000 C 
BRANCH  20  21
ATOM     21  C   UNL     1       2.737   2.403  19.652  0.00  0.00    +0.000 C 
BRANCH  21  22
ATOM     22  C   UNL     1       1.715   3.298  18.968  0.00  0.00    +0.000 C 
ATOM     23  O   UNL     1       0.826   2.847  18.247  0.00  0.00    +0.000 OA
BRANCH  22  24
ATOM     24  C   UNL     1       1.788   4.773  19.177  0.00  0.00    +0.000 A 
ATOM     25  C   UNL     1       1.967   5.674  18.120  0.00  0.00    +0.000 A 
ATOM     26  C   UNL     1       2.035   7.046  18.378  0.00  0.00    +0.000 A 
ATOM     27  C   UNL     1       1.923   7.510  19.684  0.00  0.00    +0.000 A 
ATOM     28  F   UNL     1       1.991   8.824  19.925  0.00  0.00    +0.000 F 
ATOM     29  C   UNL     1       1.743   6.629  20.744  0.00  0.00    +0.000 A 
ATOM     30  C   UNL     1       1.677   5.259  20.490  0.00  0.00    +0.000 A 
ENDBRANCH  22  24
ENDBRANCH  21  22
ENDBRANCH  20  21
ENDBRANCH  19  20
ENDBRANCH   4  19
TORSDOF 10
ENDMDL
MODEL 4
REMARK VINA RESULT:      -7.6      1.002     11.114
REMARK  Name = 
REMARK  10 active torsions:
REMARK  status: ('A' for Active; 'I' for Inactive)
REMARK    1  A    between atoms: C_2  and  C_3
REMARK    2  A    between atoms: C_2  and  C_24
REMARK    3  A    between atoms: C_3  and  C_4
REMARK    4  A    between atoms: C_4  and  C_5
REMARK    5  A    between atoms: C_5  and  C_6
REMARK    6  A    between atoms: C_9  and  C_10
REMARK    7  A    between atoms: C_10  and  C_11
REMARK    8  A    between atoms: C_11  and  C_12
REMARK    9  A    between atoms: C_12  and  C_13
REMARK   10  A    between atoms: C_13  and  C_15
REMARK                            x       y       z     vdW  Elec       q    Type
REMARK                         _______ _______ _______ _____ _____    ______ ____
ROOT
ATOM      1  C   UNL     1       8.016   7.158  17.878  0.00  0.00    +0.000 C 
ATOM      2  O   UNL     1       7.495   6.194  18.802  0.00  0.00    +0.000 OA
ATOM      3  O   UNL     1       7.227   4.991  18.017  0.00  0.00    +0.000 OA
ATOM      4  C   UNL     1       6.182   5.343  17.102  0.00  0.00    +0.000 C 
ATOM      5  O   UNL     1       6.677   6.311  16.165  0.00  0.00    +0.000 OA
ATOM      6  O   UNL     1       6.989   7.526  16.944  0.00  0.00    +0.000 OA
ENDROOT
BRANCH   1   7
ATOM      7  C   UNL     1       8.444   8.396  18.661  0.00  0.00    +0.000 C 
BRANCH   7   8
ATOM      8  C   UNL     1       8.670   9.582  17.724  0.00  0.00    +0.000 C 
BRANCH   8   9
ATOM      9  C   UNL     1       8.298  10.918  18.363  0.00  0.00    +0.000 C 
BRANCH   9  11
ATOM     10  O   UNL     1      10.045  11.147  20.010  0.00  0.00    +0.000 OA
ATOM     11  C   UNL     1       9.524  11.572  18.980  0.00  0.00    +0.000 C 
BRANCH  11  12
ATOM     12  C   UNL     1      10.126  12.762  18.311  0.00  0.00    +0.000 A 
ATOM     13  C   UNL     1       9.730  14.036  18.751  0.00  0.00    +0.000 A 
ATOM     14  C   UNL     1      10.261  15.184  18.163  0.00  0.00    +0.000 A 
ATOM     15  C   UNL     1      11.186  15.058  17.135  0.00  0.00    +0.000 A 
ATOM     16  F   UNL     1      11.698  16.156  16.569  0.00  0.00    +0.000 F 
ATOM     17  C   UNL     1      11.589  13.805  16.685  0.00  0.00    +0.000 A 
ATOM     18  C   UNL     1      11.059  12.651  17.273  0.00  0.00    +0.000 A 
ENDBRANCH  11  12
ENDBRANCH   9  11
ENDBRANCH   8   9
ENDBRANCH   7   8
ENDBRANCH   1   7
BRANCH   4  19
ATOM     19  C   UNL     1       5.759   4.085  16.346  0.00  0.00    +0.000 C 
BRANCH  19  20
ATOM     20  C   UNL     1       4.565   3.424  17.032  0.00  0.00    +0.000 C 
BRANCH  20  21
ATOM     21  C   UNL     1       3.240   4.110  16.711  0.00  0.00    +0.000 C 
BRANCH  21  22
ATOM     22  C   UNL     1       2.754   4.906  17.913  0.00  0.00    +0.000 C 
ATOM     23  O   UNL     1       2.782   6.136  17.939  0.00  0.00    +0.000 OA
BRANCH  22  24
ATOM     24  C   UNL     1       2.223   4.177  19.100  0.00  0.00    +0.000 A 
ATOM     25  C   UNL     1       1.282   3.145  18.988  0.00  0.00    +0.000 A 
ATOM     26  C   UNL     1       0.814   2.503  20.138  0.00  0.00    +0.000 A 
ATOM     27  C   UNL     1       1.286   2.891  21.388  0.00  0.00    +0.000 A 
ATOM     28  F   UNL     1       0.833   2.273  22.485  0.00  0.00    +0.000 F 
ATOM     29  C   UNL     1       2.221   3.911  21.514  0.00  0.00    +0.000 A 
ATOM     30  C   UNL     1       2.689   4.556  20.369  0.00  0.00    +0.000 A 
ENDBRANCH  22  24
ENDBRANCH  21  22
ENDBRANCH  20  21
ENDBRANCH  19  20
ENDBRANCH   4  19
TORSDOF 10
ENDMDL
MODEL 5
REMARK VINA RESULT:      -7.5      5.160      8.232
REMARK  Name = 
REMARK  10 active torsions:
REMARK  status: ('A' for Active; 'I' for Inactive)
REMARK    1  A    between atoms: C_2  and  C_3
REMARK    2  A    between atoms: C_2  and  C_24
REMARK    3  A    between atoms: C_3  and  C_4
REMARK    4  A    between atoms: C_4  and  C_5
REMARK    5  A    between atoms: C_5  and  C_6
REMARK    6  A    between atoms: C_9  and  C_10
REMARK    7  A    between atoms: C_10  and  C_11
REMARK    8  A    between atoms: C_11  and  C_12
REMARK    9  A    between atoms: C_12  and  C_13
REMARK   10  A    between atoms: C_13  and  C_15
REMARK                            x       y       z     vdW  Elec       q    Type
REMARK                         _______ _______ _______ _____ _____    ______ ____
ROOT
ATOM      1  C   UNL     1       1.210   6.682  20.167  0.00  0.00    +0.000 C 
ATOM      2  O   UNL     1       2.248   6.904  19.202  0.00  0.00    +0.000 OA
ATOM      3  O   UNL     1       2.005   5.945  18.126  0.00  0.00    +0.000 OA
ATOM      4  C   UNL     1       2.203   4.649  18.704  0.00  0.00    +0.000 C 
ATOM      5  O   UNL     1       1.177   4.401  19.678  0.00  0.00    +0.000 OA
ATOM      6  O   UNL     1       1.381   5.385  20.759  0.00  0.00    +0.000 OA
ENDROOT
BRANCH   1   7
ATOM      7  C   UNL     1       1.326   7.746  21.255  0.00  0.00    +0.000 C 
BRANCH   7   8
ATOM      8  C   UNL     1       1.426   9.142  20.644  0.00  0.00    +0.000 C 
BRANCH   8   9
ATOM      9  C   UNL     1       0.063   9.730  20.288  0.00  0.00    +0.000 C 
BRANCH   9  11
ATOM     10  O   UNL     1       0.969   9.975  18.067  0.00  0.00    +0.000 OA
ATOM     11  C   UNL     1      -0.020  10.018  18.797  0.00  0.00    +0.000 C 
BRANCH  11  12
ATOM     12  C   UNL     1      -1.342  10.355  18.195  0.00  0.00    +0.000 A 
ATOM     13  C   UNL     1      -2.121  11.340  18.825  0.00  0.00    +0.000 A 
ATOM     14  C   UNL     1      -3.365  11.697  18.305  0.00  0.00    +0.000 A 
ATOM     15  C   UNL     1      -3.831  11.068  17.157  0.00  0.00    +0.000 A 
ATOM     16  F   UNL     1      -5.022  11.407  16.655  0.00  0.00    +0.000 F 
ATOM     17  C   UNL     1      -3.073  10.089  16.521  0.00  0.00    +0.000 A 
ATOM     18  C   UNL     1      -1.825   9.729  17.039  0.00  0.00    +0.000 A 
ENDBRANCH  11  12
ENDBRANCH   9  11
ENDBRANCH   8   9
ENDBRANCH   7   8
ENDBRANCH   1   7
BRANCH   4  19
ATOM     19  C   UNL     1       2.101   3.606  17.593  0.00  0.00    +0.000 C 
BRANCH  19  20
ATOM     20  C   UNL     1       3.354   2.733  17.560  0.00  0.00    +0.000 C 
BRANCH  20  21
ATOM     21  C   UNL     1       4.570   3.416  18.182  0.00  0.00    +0.000 C 
BRANCH  21  22
ATOM     22  C   UNL     1       5.282   4.271  17.146  0.00  0.00    +0.000 C 
ATOM     23  O   UNL     1       5.086   4.137  15.938  0.00  0.00    +0.000 OA
BRANCH  22  24
ATOM     24  C   UNL     1       6.249   5.311  17.603  0.00  0.00    +0.000 A 
ATOM     25  C   UNL     1       7.136   5.096  18.666  0.00  0.00    +0.000 A 
ATOM     26  C   UNL     1       8.014   6.112  19.055  0.00  0.00    +0.000 A 
ATOM     27  C   UNL     1       8.004   7.330  18.384  0.00  0.00    +0.000 A 
ATOM     28  F   UNL     1       8.846   8.298  18.762  0.00  0.00    +0.000 F 
ATOM     29  C   UNL     1       7.131   7.557  17.327  0.00  0.00    +0.000 A 
ATOM     30  C   UNL     1       6.252   6.547  16.937  0.00  0.00    +0.000 A 
ENDBRANCH  22  24
ENDBRANCH  21  22
ENDBRANCH  20  21
ENDBRANCH  19  20
ENDBRANCH   4  19
TORSDOF 10
ENDMDL
MODEL 6
REMARK VINA RESULT:      -7.5      2.981      9.235
REMARK  Name = 
REMARK  10 active torsions:
REMARK  status: ('A' for Active; 'I' for Inactive)
REMARK    1  A    between atoms: C_2  and  C_3
REMARK    2  A    between atoms: C_2  and  C_24
REMARK    3  A    between atoms: C_3  and  C_4
REMARK    4  A    between atoms: C_4  and  C_5
REMARK    5  A    between atoms: C_5  and  C_6
REMARK    6  A    between atoms: C_9  and  C_10
REMARK    7  A    between atoms: C_10  and  C_11
REMARK    8  A    between atoms: C_11  and  C_12
REMARK    9  A    between atoms: C_12  and  C_13
REMARK   10  A    between atoms: C_13  and  C_15
REMARK                            x       y       z     vdW  Elec       q    Type
REMARK                         _______ _______ _______ _____ _____    ______ ____
ROOT
ATOM      1  C   UNL     1       7.717   7.677  18.116  0.00  0.00    +0.000 C 
ATOM      2  O   UNL     1       7.798   7.485  16.698  0.00  0.00    +0.000 OA
ATOM      3  O   UNL     1       6.671   6.624  16.345  0.00  0.00    +0.000 OA
ATOM      4  C   UNL     1       6.925   5.365  16.981  0.00  0.00    +0.000 C 
ATOM      5  O   UNL     1       6.853   5.529  18.405  0.00  0.00    +0.000 OA
ATOM      6  O   UNL     1       7.962   6.428  18.780  0.00  0.00    +0.000 OA
ENDROOT
BRANCH   1   7
ATOM      7  C   UNL     1       8.789   8.680  18.531  0.00  0.00    +0.000 C 
BRANCH   7   8
ATOM      8  C   UNL     1       8.487  10.067  17.963  0.00  0.00    +0.000 C 
BRANCH   8   9
ATOM      9  C   UNL     1       9.659  11.034  18.112  0.00  0.00    +0.000 C 
BRANCH   9  11
ATOM     10  O   UNL     1       8.765  13.204  17.559  0.00  0.00    +0.000 OA
ATOM     11  C   UNL     1       9.157  12.433  18.433  0.00  0.00    +0.000 C 
BRANCH  11  12
ATOM     12  C   UNL     1       9.129  12.884  19.854  0.00  0.00    +0.000 A 
ATOM     13  C   UNL     1       8.785  14.222  20.114  0.00  0.00    +0.000 A 
ATOM     14  C   UNL     1       8.740  14.699  21.424  0.00  0.00    +0.000 A 
ATOM     15  C   UNL     1       9.040  13.840  22.473  0.00  0.00    +0.000 A 
ATOM     16  F   UNL     1       8.997  14.293  23.730  0.00  0.00    +0.000 F 
ATOM     17  C   UNL     1       9.384  12.513  22.235  0.00  0.00    +0.000 A 
ATOM     18  C   UNL     1       9.429  12.031  20.923  0.00  0.00    +0.000 A 
ENDBRANCH  11  12
ENDBRANCH   9  11
ENDBRANCH   8   9
ENDBRANCH   7   8
ENDBRANCH   1   7
BRANCH   4  19
ATOM     19  C   UNL     1       5.851   4.375  16.535  0.00  0.00    +0.000 C 
BRANCH  19  20
ATOM     20  C   UNL     1       4.783   4.220  17.616  0.00  0.00    +0.000 C 
BRANCH  20  21
ATOM     21  C   UNL     1       3.667   5.256  17.504  0.00  0.00    +0.000 C 
BRANCH  21  22
ATOM     22  C   UNL     1       3.276   5.762  18.883  0.00  0.00    +0.000 C 
ATOM     23  O   UNL     1       3.553   5.144  19.911  0.00  0.00    +0.000 OA
BRANCH  22  24
ATOM     24  C   UNL     1       2.536   7.051  19.001  0.00  0.00    +0.000 A 
ATOM     25  C   UNL     1       1.983   7.492  20.210  0.00  0.00    +0.000 A 
ATOM     26  C   UNL     1       1.293   8.707  20.257  0.00  0.00    +0.000 A 
ATOM     27  C   UNL     1       1.160   9.472  19.104  0.00  0.00    +0.000 A 
ATOM     28  F   UNL     1       0.497  10.633  19.155  0.00  0.00    +0.000 F 
ATOM     29  C   UNL     1       1.705   9.049  17.898  0.00  0.00    +0.000 A 
ATOM     30  C   UNL     1       2.393   7.837  17.846  0.00  0.00    +0.000 A 
ENDBRANCH  22  24
ENDBRANCH  21  22
ENDBRANCH  20  21
ENDBRANCH  19  20
ENDBRANCH   4  19
TORSDOF 10
ENDMDL
MODEL 7
REMARK VINA RESULT:      -7.5      6.615     10.546
REMARK  Name = 
REMARK  10 active torsions:
REMARK  status: ('A' for Active; 'I' for Inactive)
REMARK    1  A    between atoms: C_2  and  C_3
REMARK    2  A    between atoms: C_2  and  C_24
REMARK    3  A    between atoms: C_3  and  C_4
REMARK    4  A    between atoms: C_4  and  C_5
REMARK    5  A    between atoms: C_5  and  C_6
REMARK    6  A    between atoms: C_9  and  C_10
REMARK    7  A    between atoms: C_10  and  C_11
REMARK    8  A    between atoms: C_11  and  C_12
REMARK    9  A    between atoms: C_12  and  C_13
REMARK   10  A    between atoms: C_13  and  C_15
REMARK                            x       y       z     vdW  Elec       q    Type
REMARK                         _______ _______ _______ _____ _____    ______ ____
ROOT
ATOM      1  C   UNL     1       1.250   9.222  19.444  0.00  0.00    +0.000 C 
ATOM      2  O   UNL     1       1.472   7.879  19.894  0.00  0.00    +0.000 OA
ATOM      3  O   UNL     1       2.787   7.497  19.383  0.00  0.00    +0.000 OA
ATOM      4  C   UNL     1       2.662   7.475  17.956  0.00  0.00    +0.000 C 
ATOM      5  O   UNL     1       2.436   8.809  17.477  0.00  0.00    +0.000 OA
ATOM      6  O   UNL     1       1.126   9.230  18.014  0.00  0.00    +0.000 OA
ENDROOT
BRANCH   1   7
ATOM      7  C   UNL     1      -0.050   9.729  20.060  0.00  0.00    +0.000 C 
BRANCH   7   8
ATOM      8  C   UNL     1      -0.295   9.087  21.424  0.00  0.00    +0.000 C 
BRANCH   8   9
ATOM      9  C   UNL     1      -0.053  10.051  22.583  0.00  0.00    +0.000 C 
BRANCH   9  11
ATOM     10  O   UNL     1       0.528  12.243  21.765  0.00  0.00    +0.000 OA
ATOM     11  C   UNL     1      -0.352  11.479  22.158  0.00  0.00    +0.000 C 
BRANCH  11  12
ATOM     12  C   UNL     1      -1.759  11.972  22.208  0.00  0.00    +0.000 A 
ATOM     13  C   UNL     1      -2.357  12.380  21.004  0.00  0.00    +0.000 A 
ATOM     14  C   UNL     1      -3.671  12.847  20.990  0.00  0.00    +0.000 A 
ATOM     15  C   UNL     1      -4.386  12.908  22.179  0.00  0.00    +0.000 A 
ATOM     16  F   UNL     1      -5.646  13.355  22.171  0.00  0.00    +0.000 F 
ATOM     17  C   UNL     1      -3.810  12.509  23.381  0.00  0.00    +0.000 A 
ATOM     18  C   UNL     1      -2.493  12.039  23.399  0.00  0.00    +0.000 A 
ENDBRANCH  11  12
ENDBRANCH   9  11
ENDBRANCH   8   9
ENDBRANCH   7   8
ENDBRANCH   1   7
BRANCH   4  19
ATOM     19  C   UNL     1       3.968   6.946  17.366  0.00  0.00    +0.000 C 
BRANCH  19  20
ATOM     20  C   UNL     1       4.462   5.737  18.158  0.00  0.00    +0.000 C 
BRANCH  20  21
ATOM     21  C   UNL     1       4.508   4.458  17.324  0.00  0.00    +0.000 C 
BRANCH  21  22
ATOM     22  C   UNL     1       3.178   3.725  17.410  0.00  0.00    +0.000 C 
ATOM     23  O   UNL     1       2.579   3.334  16.409  0.00  0.00    +0.000 OA
BRANCH  22  24
ATOM     24  C   UNL     1       2.578   3.465  18.750  0.00  0.00    +0.000 A 
ATOM     25  C   UNL     1       1.291   3.899  19.093  0.00  0.00    +0.000 A 
ATOM     26  C   UNL     1       0.784   3.633  20.368  0.00  0.00    +0.000 A 
ATOM     27  C   UNL     1       1.560   2.938  21.290  0.00  0.00    +0.000 A 
ATOM     28  F   UNL     1       1.069   2.688  22.510  0.00  0.00    +0.000 F 
ATOM     29  C   UNL     1       2.837   2.499  20.964  0.00  0.00    +0.000 A 
ATOM     30  C   UNL     1       3.347   2.765  19.693  0.00  0.00    +0.000 A 
ENDBRANCH  22  24
ENDBRANCH  21  22
ENDBRANCH  20  21
ENDBRANCH  19  20
ENDBRANCH   4  19
TORSDOF 10
ENDMDL
MODEL 8
REMARK VINA RESULT:      -7.4      2.407      9.599
REMARK  Name = 
REMARK  10 active torsions:
REMARK  status: ('A' for Active; 'I' for Inactive)
REMARK    1  A    between atoms: C_2  and  C_3
REMARK    2  A    between atoms: C_2  and  C_24
REMARK    3  A    between atoms: C_3  and  C_4
REMARK    4  A    between atoms: C_4  and  C_5
REMARK    5  A    between atoms: C_5  and  C_6
REMARK    6  A    between atoms: C_9  and  C_10
REMARK    7  A    between atoms: C_10  and  C_11
REMARK    8  A    between atoms: C_11  and  C_12
REMARK    9  A    between atoms: C_12  and  C_13
REMARK   10  A    between atoms: C_13  and  C_15
REMARK                            x       y       z     vdW  Elec       q    Type
REMARK                         _______ _______ _______ _____ _____    ______ ____
ROOT
ATOM      1  C   UNL     1       7.687   7.265  18.075  0.00  0.00    +0.000 C 
ATOM      2  O   UNL     1       7.851   7.168  16.654  0.00  0.00    +0.000 OA
ATOM      3  O   UNL     1       6.746   6.337  16.179  0.00  0.00    +0.000 OA
ATOM      4  C   UNL     1       6.961   5.038  16.743  0.00  0.00    +0.000 C 
ATOM      5  O   UNL     1       6.805   5.106  18.169  0.00  0.00    +0.000 OA
ATOM      6  O   UNL     1       7.892   5.973  18.667  0.00  0.00    +0.000 OA
ENDROOT
BRANCH   1   7
ATOM      7  C   UNL     1       8.734   8.233  18.618  0.00  0.00    +0.000 C 
BRANCH   7   8
ATOM      8  C   UNL     1       8.426   9.667  18.187  0.00  0.00    +0.000 C 
BRANCH   8   9
ATOM      9  C   UNL     1       9.179  10.706  19.014  0.00  0.00    +0.000 C 
BRANCH   9  11
ATOM     10  O   UNL     1      10.600  11.712  17.345  0.00  0.00    +0.000 OA
ATOM     11  C   UNL     1       9.660  11.844  18.127  0.00  0.00    +0.000 C 
BRANCH  11  12
ATOM     12  C   UNL     1       8.965  13.161  18.197  0.00  0.00    +0.000 A 
ATOM     13  C   UNL     1       7.723  13.287  17.551  0.00  0.00    +0.000 A 
ATOM     14  C   UNL     1       7.027  14.495  17.586  0.00  0.00    +0.000 A 
ATOM     15  C   UNL     1       7.572  15.577  18.264  0.00  0.00    +0.000 A 
ATOM     16  F   UNL     1       6.909  16.737  18.300  0.00  0.00    +0.000 F 
ATOM     17  C   UNL     1       8.801  15.472  18.908  0.00  0.00    +0.000 A 
ATOM     18  C   UNL     1       9.502  14.262  18.876  0.00  0.00    +0.000 A 
ENDBRANCH  11  12
ENDBRANCH   9  11
ENDBRANCH   8   9
ENDBRANCH   7   8
ENDBRANCH   1   7
BRANCH   4  19
ATOM     19  C   UNL     1       5.915   4.085  16.170  0.00  0.00    +0.000 C 
BRANCH  19  20
ATOM     20  C   UNL     1       4.703   4.000  17.095  0.00  0.00    +0.000 C 
BRANCH  20  21
ATOM     21  C   UNL     1       3.850   5.267  17.077  0.00  0.00    +0.000 C 
BRANCH  21  22
ATOM     22  C   UNL     1       2.885   5.270  18.252  0.00  0.00    +0.000 C 
ATOM     23  O   UNL     1       2.503   4.230  18.789  0.00  0.00    +0.000 OA
BRANCH  22  24
ATOM     24  C   UNL     1       2.382   6.572  18.775  0.00  0.00    +0.000 A 
ATOM     25  C   UNL     1       2.070   6.768  20.127  0.00  0.00    +0.000 A 
ATOM     26  C   UNL     1       1.596   8.010  20.558  0.00  0.00    +0.000 A 
ATOM     27  C   UNL     1       1.437   9.046  19.644  0.00  0.00    +0.000 A 
ATOM     28  F   UNL     1       0.981  10.232  20.063  0.00  0.00    +0.000 F 
ATOM     29  C   UNL     1       1.745   8.868  18.301  0.00  0.00    +0.000 A 
ATOM     30  C   UNL     1       2.217   7.629  17.866  0.00  0.00    +0.000 A 
ENDBRANCH  22  24
ENDBRANCH  21  22
ENDBRANCH  20  21
ENDBRANCH  19  20
ENDBRANCH   4  19
TORSDOF 10
ENDMDL
MODEL 9
REMARK VINA RESULT:      -7.4      1.397     10.414
REMARK  Name = 
REMARK  10 active torsions:
REMARK  status: ('A' for Active; 'I' for Inactive)
REMARK    1  A    between atoms: C_2  and  C_3
REMARK    2  A    between atoms: C_2  and  C_24
REMARK    3  A    between atoms: C_3  and  C_4
REMARK    4  A    between atoms: C_4  and  C_5
REMARK    5  A    between atoms: C_5  and  C_6
REMARK    6  A    between atoms: C_9  and  C_10
REMARK    7  A    between atoms: C_10  and  C_11
REMARK    8  A    between atoms: C_11  and  C_12
REMARK    9  A    between atoms: C_12  and  C_13
REMARK   10  A    between atoms: C_13  and  C_15
REMARK                            x       y       z     vdW  Elec       q    Type
REMARK                         _______ _______ _______ _____ _____    ______ ____
ROOT
ATOM      1  C   UNL     1       7.782   8.271  17.896  0.00  0.00    +0.000 C 
ATOM      2  O   UNL     1       7.954   7.647  16.617  0.00  0.00    +0.000 OA
ATOM      3  O   UNL     1       7.067   6.486  16.617  0.00  0.00    +0.000 OA
ATOM      4  C   UNL     1       7.579   5.599  17.619  0.00  0.00    +0.000 C 
ATOM      5  O   UNL     1       7.422   6.202  18.913  0.00  0.00    +0.000 OA
ATOM      6  O   UNL     1       8.284   7.401  18.923  0.00  0.00    +0.000 OA
ENDROOT
BRANCH   1   7
ATOM      7  C   UNL     1       8.582   9.571  17.911  0.00  0.00    +0.000 C 
BRANCH   7   8
ATOM      8  C   UNL     1       9.228   9.799  19.277  0.00  0.00    +0.000 C 
BRANCH   8   9
ATOM      9  C   UNL     1       9.382  11.279  19.618  0.00  0.00    +0.000 C 
BRANCH   9  11
ATOM     10  O   UNL     1      11.670  11.229  18.858  0.00  0.00    +0.000 OA
ATOM     11  C   UNL     1      10.615  11.856  18.939  0.00  0.00    +0.000 C 
BRANCH  11  12
ATOM     12  C   UNL     1      10.542  13.220  18.342  0.00  0.00    +0.000 A 
ATOM     13  C   UNL     1       9.381  13.978  18.568  0.00  0.00    +0.000 A 
ATOM     14  C   UNL     1       9.260  15.262  18.036  0.00  0.00    +0.000 A 
ATOM     15  C   UNL     1      10.298  15.787  17.277  0.00  0.00    +0.000 A 
ATOM     16  F   UNL     1      10.186  17.017  16.765  0.00  0.00    +0.000 F 
ATOM     17  C   UNL     1      11.455  15.050  17.042  0.00  0.00    +0.000 A 
ATOM     18  C   UNL     1      11.580  13.763  17.574  0.00  0.00    +0.000 A 
ENDBRANCH  11  12
ENDBRANCH   9  11
ENDBRANCH   8   9
ENDBRANCH   7   8
ENDBRANCH   1   7
BRANCH   4  19
ATOM     19  C   UNL     1       6.775   4.301  17.571  0.00  0.00    +0.000 C 
BRANCH  19  20
ATOM     20  C   UNL     1       5.943   4.234  16.292  0.00  0.00    +0.000 C 
BRANCH  20  21
ATOM     21  C   UNL     1       4.667   5.069  16.369  0.00  0.00    +0.000 C 
BRANCH  21  22
ATOM     22  C   UNL     1       3.672   4.426  17.322  0.00  0.00    +0.000 C 
ATOM     23  O   UNL     1       3.378   3.232  17.256  0.00  0.00    +0.000 OA
BRANCH  22  24
ATOM     24  C   UNL     1       3.029   5.264  18.375  0.00  0.00    +0.000 A 
ATOM     25  C   UNL     1       2.920   6.655  18.264  0.00  0.00    +0.000 A 
ATOM     26  C   UNL     1       2.314   7.390  19.288  0.00  0.00    +0.000 A 
ATOM     27  C   UNL     1       1.822   6.734  20.412  0.00  0.00    +0.000 A 
ATOM     28  F   UNL     1       1.245   7.443  21.389  0.00  0.00    +0.000 F 
ATOM     29  C   UNL     1       1.922   5.354  20.535  0.00  0.00    +0.000 A 
ATOM     30  C   UNL     1       2.527   4.618  19.516  0.00  0.00    +0.000 A 
ENDBRANCH  22  24
ENDBRANCH  21  22
ENDBRANCH  20  21
ENDBRANCH  19  20
ENDBRANCH   4  19
TORSDOF 10
ENDMDL
