MODEL 1
REMARK VINA RESULT:      -7.9      0.000      0.000
REMARK  Name = 
REMARK  3 active torsions:
REMARK  status: ('A' for Active; 'I' for Inactive)
REMARK    1  A    between atoms: C_2  and  C_4
REMARK    2  A    between atoms: C_6  and  C_7
REMARK    3  A    between atoms: C_15  and  C_16
REMARK                            x       y       z     vdW  Elec       q    Type
REMARK                         _______ _______ _______ _____ _____    ______ ____
ROOT
ATOM      1  C   UNL     1       3.502   4.047  19.160  0.00  0.00    +0.000 A 
ATOM      2  C   UNL     1       2.597   4.890  19.876  0.00  0.00    +0.000 A 
ATOM      3  C   UNL     1       2.693   6.154  19.339  0.00  0.00    +0.000 A 
ATOM      4  O   UNL     1       3.590   6.140  18.310  0.00  0.00    +0.000 OA
ATOM      5  C   UNL     1       4.091   4.866  18.201  0.00  0.00    +0.000 A 
ENDROOT
BRANCH   3   6
ATOM      6  C   UNL     1       2.062   7.424  19.678  0.00  0.00    +0.000 A 
ATOM      7  C   UNL     1       1.504   7.679  20.907  0.00  0.00    +0.000 A 
ATOM      8  C   UNL     1       0.906   8.907  21.039  0.00  0.00    +0.000 A 
ATOM      9  N   UNL     1       0.851   9.815  20.047  0.00  0.00    +0.000 NA
ATOM     10  C   UNL     1       1.413   9.470  18.888  0.00  0.00    +0.000 A 
ATOM     11  N   UNL     1       1.356  10.384  17.858  0.00  0.00    +0.000 N 
ATOM     12  N   UNL     1       2.046   8.318  18.663  0.00  0.00    +0.000 NA
ATOM     13  H   UNL     1       1.190  11.310  18.230  0.00  0.00    +0.000 HD
ATOM     14  H   UNL     1       2.143  10.265  17.238  0.00  0.00    +0.000 HD
ENDBRANCH   3   6
BRANCH   5  15
ATOM     15  C   UNL     1       5.098   4.685  17.155  0.00  0.00    +0.000 A 
ATOM     16  C   UNL     1       4.728   4.430  15.827  0.00  0.00    +0.000 A 
ATOM     17  C   UNL     1       5.686   4.353  14.812  0.00  0.00    +0.000 A 
ATOM     18  C   UNL     1       7.035   4.501  15.116  0.00  0.00    +0.000 A 
ATOM     19  C   UNL     1       7.427   4.707  16.437  0.00  0.00    +0.000 A 
ATOM     20  C   UNL     1       6.465   4.794  17.449  0.00  0.00    +0.000 A 
ENDBRANCH   5  15
BRANCH   1  22
ATOM     21  N   UNL     1       4.921   2.321  19.975  0.00  0.00    +0.000 N 
ATOM     22  C   UNL     1       3.740   2.631  19.361  0.00  0.00    +0.000 C 
ATOM     23  O   UNL     1       2.984   1.731  19.009  0.00  0.00    +0.000 OA
ATOM     24  H   UNL     1       5.155   1.339  20.044  0.00  0.00    +0.000 HD
ATOM     25  H   UNL     1       5.642   3.005  20.153  0.00  0.00    +0.000 HD
ENDBRANCH   1  22
TORSDOF 3
ENDMDL
MODEL 2
REMARK VINA RESULT:      -7.9      3.720      5.239
REMARK  Name = 
REMARK  3 active torsions:
REMARK  status: ('A' for Active; 'I' for Inactive)
REMARK    1  A    between atoms: C_2  and  C_4
REMARK    2  A    between atoms: C_6  and  C_7
REMARK    3  A    between atoms: C_15  and  C_16
REMARK                            x       y       z     vdW  Elec       q    Type
REMARK                         _______ _______ _______ _____ _____    ______ ____
ROOT
ATOM      1  C   UNL     1       5.745   4.424  16.220  0.00  0.00    +0.000 A 
ATOM      2  C   UNL     1       4.621   3.572  16.452  0.00  0.00    +0.000 A 
ATOM      3  C   UNL     1       4.090   3.909  17.676  0.00  0.00    +0.000 A 
ATOM      4  O   UNL     1       4.805   4.941  18.210  0.00  0.00    +0.000 OA
ATOM      5  C   UNL     1       5.816   5.254  17.335  0.00  0.00    +0.000 A 
ENDROOT
BRANCH   3   6
ATOM      6  C   UNL     1       2.986   3.367  18.459  0.00  0.00    +0.000 A 
ATOM      7  C   UNL     1       1.801   2.956  17.898  0.00  0.00    +0.000 A 
ATOM      8  C   UNL     1       0.848   2.521  18.787  0.00  0.00    +0.000 A 
ATOM      9  N   UNL     1       1.034   2.496  20.119  0.00  0.00    +0.000 NA
ATOM     10  C   UNL     1       2.215   2.925  20.567  0.00  0.00    +0.000 A 
ATOM     11  N   UNL     1       2.418   2.916  21.930  0.00  0.00    +0.000 N 
ATOM     12  N   UNL     1       3.219   3.338  19.792  0.00  0.00    +0.000 NA
ATOM     13  H   UNL     1       1.769   2.275  22.369  0.00  0.00    +0.000 HD
ATOM     14  H   UNL     1       3.399   2.801  22.139  0.00  0.00    +0.000 HD
ENDBRANCH   3   6
BRANCH   5  15
ATOM     15  C   UNL     1       6.704   6.331  17.775  0.00  0.00    +0.000 A 
ATOM     16  C   UNL     1       7.647   6.127  18.792  0.00  0.00    +0.000 A 
ATOM     17  C   UNL     1       8.558   7.127  19.144  0.00  0.00    +0.000 A 
ATOM     18  C   UNL     1       8.520   8.360  18.502  0.00  0.00    +0.000 A 
ATOM     19  C   UNL     1       7.560   8.600  17.522  0.00  0.00    +0.000 A 
ATOM     20  C   UNL     1       6.655   7.594  17.165  0.00  0.00    +0.000 A 
ENDBRANCH   5  15
BRANCH   1  22
ATOM     21  N   UNL     1       6.279   3.570  14.066  0.00  0.00    +0.000 N 
ATOM     22  C   UNL     1       6.612   4.448  15.059  0.00  0.00    +0.000 C 
ATOM     23  O   UNL     1       7.599   5.165  14.929  0.00  0.00    +0.000 OA
ATOM     24  H   UNL     1       6.919   3.500  13.286  0.00  0.00    +0.000 HD
ATOM     25  H   UNL     1       5.571   2.859  14.178  0.00  0.00    +0.000 HD
ENDBRANCH   1  22
TORSDOF 3
ENDMDL
MODEL 3
REMARK VINA RESULT:      -7.8      3.870      6.841
REMARK  Name = 
REMARK  3 active torsions:
REMARK  status: ('A' for Active; 'I' for Inactive)
REMARK    1  A    between atoms: C_2  and  C_4
REMARK    2  A    between atoms: C_6  and  C_7
REMARK    3  A    between atoms: C_15  and  C_16
REMARK                            x       y       z     vdW  Elec       q    Type
REMARK                         _______ _______ _______ _____ _____    ______ ____
ROOT
ATOM      1  C   UNL     1       5.656   4.790  17.846  0.00  0.00    +0.000 A 
ATOM      2  C   UNL     1       6.549   5.081  16.769  0.00  0.00    +0.000 A 
ATOM      3  C   UNL     1       5.999   4.563  15.620  0.00  0.00    +0.000 A 
ATOM      4  O   UNL     1       4.798   3.986  15.915  0.00  0.00    +0.000 OA
ATOM      5  C   UNL     1       4.587   4.113  17.266  0.00  0.00    +0.000 A 
ENDROOT
BRANCH   3   6
ATOM      6  C   UNL     1       6.462   4.505  14.239  0.00  0.00    +0.000 A 
ATOM      7  C   UNL     1       5.999   3.584  13.331  0.00  0.00    +0.000 A 
ATOM      8  C   UNL     1       6.582   3.636  12.089  0.00  0.00    +0.000 A 
ATOM      9  N   UNL     1       7.547   4.514  11.759  0.00  0.00    +0.000 NA
ATOM     10  C   UNL     1       7.937   5.361  12.713  0.00  0.00    +0.000 A 
ATOM     11  N   UNL     1       8.932   6.260  12.396  0.00  0.00    +0.000 N 
ATOM     12  N   UNL     1       7.417   5.416  13.940  0.00  0.00    +0.000 NA
ATOM     13  H   UNL     1       8.989   6.368  11.391  0.00  0.00    +0.000 HD
ATOM     14  H   UNL     1       8.840   7.098  12.950  0.00  0.00    +0.000 HD
ENDBRANCH   3   6
BRANCH   5  15
ATOM     15  C   UNL     1       3.345   3.515  17.758  0.00  0.00    +0.000 A 
ATOM     16  C   UNL     1       3.315   2.200  18.243  0.00  0.00    +0.000 A 
ATOM     17  C   UNL     1       2.151   1.662  18.801  0.00  0.00    +0.000 A 
ATOM     18  C   UNL     1       0.989   2.425  18.856  0.00  0.00    +0.000 A 
ATOM     19  C   UNL     1       0.986   3.717  18.336  0.00  0.00    +0.000 A 
ATOM     20  C   UNL     1       2.155   4.256  17.787  0.00  0.00    +0.000 A 
ENDBRANCH   5  15
BRANCH   1  22
ATOM     21  N   UNL     1       7.097   5.300  19.668  0.00  0.00    +0.000 N 
ATOM     22  C   UNL     1       5.807   5.148  19.243  0.00  0.00    +0.000 C 
ATOM     23  O   UNL     1       4.884   5.296  20.037  0.00  0.00    +0.000 OA
ATOM     24  H   UNL     1       7.235   5.458  20.658  0.00  0.00    +0.000 HD
ATOM     25  H   UNL     1       7.894   5.049  19.101  0.00  0.00    +0.000 HD
ENDBRANCH   1  22
TORSDOF 3
ENDMDL
MODEL 4
REMARK VINA RESULT:      -7.8      0.222      1.073
REMARK  Name = 
REMARK  3 active torsions:
REMARK  status: ('A' for Active; 'I' for Inactive)
REMARK    1  A    between atoms: C_2  and  C_4
REMARK    2  A    between atoms: C_6  and  C_7
REMARK    3  A    between atoms: C_15  and  C_16
REMARK                            x       y       z     vdW  Elec       q    Type
REMARK                         _______ _______ _______ _____ _____    ______ ____
ROOT
ATOM      1  C   UNL     1       3.413   4.182  19.277  0.00  0.00    +0.000 A 
ATOM      2  C   UNL     1       2.493   5.017  19.982  0.00  0.00    +0.000 A 
ATOM      3  C   UNL     1       2.603   6.288  19.465  0.00  0.00    +0.000 A 
ATOM      4  O   UNL     1       3.524   6.287  18.458  0.00  0.00    +0.000 OA
ATOM      5  C   UNL     1       4.025   5.013  18.344  0.00  0.00    +0.000 A 
ENDROOT
BRANCH   3   6
ATOM      6  C   UNL     1       1.967   7.554  19.807  0.00  0.00    +0.000 A 
ATOM      7  C   UNL     1       1.419   7.809  21.041  0.00  0.00    +0.000 A 
ATOM      8  C   UNL     1       0.813   9.034  21.175  0.00  0.00    +0.000 A 
ATOM      9  N   UNL     1       0.741   9.938  20.181  0.00  0.00    +0.000 NA
ATOM     10  C   UNL     1       1.294   9.593  19.017  0.00  0.00    +0.000 A 
ATOM     11  N   UNL     1       1.219  10.503  17.985  0.00  0.00    +0.000 N 
ATOM     12  N   UNL     1       1.933   8.445  18.789  0.00  0.00    +0.000 NA
ATOM     13  H   UNL     1       1.050  11.429  18.356  0.00  0.00    +0.000 HD
ATOM     14  H   UNL     1       2.001  10.388  17.356  0.00  0.00    +0.000 HD
ENDBRANCH   3   6
BRANCH   5  15
ATOM     15  C   UNL     1       5.057   4.844  17.319  0.00  0.00    +0.000 A 
ATOM     16  C   UNL     1       6.419   4.960  17.633  0.00  0.00    +0.000 A 
ATOM     17  C   UNL     1       7.405   4.704  16.676  0.00  0.00    +0.000 A 
ATOM     18  C   UNL     1       7.042   4.355  15.380  0.00  0.00    +0.000 A 
ATOM     19  C   UNL     1       5.695   4.282  15.035  0.00  0.00    +0.000 A 
ATOM     20  C   UNL     1       4.710   4.529  15.998  0.00  0.00    +0.000 A 
ENDBRANCH   5  15
BRANCH   1  22
ATOM     21  N   UNL     1       4.891   2.431  19.914  0.00  0.00    +0.000 N 
ATOM     22  C   UNL     1       3.643   2.763  19.464  0.00  0.00    +0.000 C 
ATOM     23  O   UNL     1       2.826   1.878  19.232  0.00  0.00    +0.000 OA
ATOM     24  H   UNL     1       5.109   1.444  19.965  0.00  0.00    +0.000 HD
ATOM     25  H   UNL     1       5.645   3.099  19.982  0.00  0.00    +0.000 HD
ENDBRANCH   1  22
TORSDOF 3
ENDMDL
MODEL 5
REMARK VINA RESULT:      -7.8      3.591      5.121
REMARK  Name = 
REMARK  3 active torsions:
REMARK  status: ('A' for Active; 'I' for Inactive)
REMARK    1  A    between atoms: C_2  and  C_4
REMARK    2  A    between atoms: C_6  and  C_7
REMARK    3  A    between atoms: C_15  and  C_16
REMARK                            x       y       z     vdW  Elec       q    Type
REMARK                         _______ _______ _______ _____ _____    ______ ____
ROOT
ATOM      1  C   UNL     1       5.743   4.457  16.114  0.00  0.00    +0.000 A 
ATOM      2  C   UNL     1       4.598   3.642  16.371  0.00  0.00    +0.000 A 
ATOM      3  C   UNL     1       4.145   3.946  17.635  0.00  0.00    +0.000 A 
ATOM      4  O   UNL     1       4.930   4.925  18.172  0.00  0.00    +0.000 OA
ATOM      5  C   UNL     1       5.907   5.234  17.257  0.00  0.00    +0.000 A 
ENDROOT
BRANCH   3   6
ATOM      6  C   UNL     1       3.061   3.415  18.453  0.00  0.00    +0.000 A 
ATOM      7  C   UNL     1       2.005   2.709  17.931  0.00  0.00    +0.000 A 
ATOM      8  C   UNL     1       1.046   2.329  18.836  0.00  0.00    +0.000 A 
ATOM      9  N   UNL     1       1.108   2.620  20.148  0.00  0.00    +0.000 NA
ATOM     10  C   UNL     1       2.169   3.318  20.557  0.00  0.00    +0.000 A 
ATOM     11  N   UNL     1       2.242   3.635  21.896  0.00  0.00    +0.000 N 
ATOM     12  N   UNL     1       3.171   3.710  19.769  0.00  0.00    +0.000 NA
ATOM     13  H   UNL     1       1.653   3.008  22.430  0.00  0.00    +0.000 HD
ATOM     14  H   UNL     1       3.205   3.726  22.184  0.00  0.00    +0.000 HD
ENDBRANCH   3   6
BRANCH   5  15
ATOM     15  C   UNL     1       6.861   6.256  17.692  0.00  0.00    +0.000 A 
ATOM     16  C   UNL     1       6.912   7.513  17.073  0.00  0.00    +0.000 A 
ATOM     17  C   UNL     1       7.756   8.519  17.551  0.00  0.00    +0.000 A 
ATOM     18  C   UNL     1       8.584   8.274  18.641  0.00  0.00    +0.000 A 
ATOM     19  C   UNL     1       8.583   7.017  19.240  0.00  0.00    +0.000 A 
ATOM     20  C   UNL     1       7.730   6.014  18.766  0.00  0.00    +0.000 A 
ENDBRANCH   5  15
BRANCH   1  22
ATOM     21  N   UNL     1       6.232   3.560  13.967  0.00  0.00    +0.000 N 
ATOM     22  C   UNL     1       6.548   4.497  14.910  0.00  0.00    +0.000 C 
ATOM     23  O   UNL     1       7.473   5.277  14.704  0.00  0.00    +0.000 OA
ATOM     24  H   UNL     1       6.836   3.505  13.158  0.00  0.00    +0.000 HD
ATOM     25  H   UNL     1       5.583   2.806  14.140  0.00  0.00    +0.000 HD
ENDBRANCH   1  22
TORSDOF 3
ENDMDL
MODEL 6
REMARK VINA RESULT:      -7.7      3.621      4.885
REMARK  Name = 
REMARK  3 active torsions:
REMARK  status: ('A' for Active; 'I' for Inactive)
REMARK    1  A    between atoms: C_2  and  C_4
REMARK    2  A    between atoms: C_6  and  C_7
REMARK    3  A    between atoms: C_15  and  C_16
REMARK                            x       y       z     vdW  Elec       q    Type
REMARK                         _______ _______ _______ _____ _____    ______ ____
ROOT
ATOM      1  C   UNL     1       6.036   5.576  17.496  0.00  0.00    +0.000 A 
ATOM      2  C   UNL     1       5.141   5.240  18.558  0.00  0.00    +0.000 A 
ATOM      3  C   UNL     1       4.254   4.306  18.074  0.00  0.00    +0.000 A 
ATOM      4  O   UNL     1       4.562   4.021  16.775  0.00  0.00    +0.000 OA
ATOM      5  C   UNL     1       5.638   4.794  16.416  0.00  0.00    +0.000 A 
ENDROOT
BRANCH   3   6
ATOM      6  C   UNL     1       3.101   3.636  18.665  0.00  0.00    +0.000 A 
ATOM      7  C   UNL     1       2.054   3.150  17.920  0.00  0.00    +0.000 A 
ATOM      8  C   UNL     1       1.026   2.596  18.642  0.00  0.00    +0.000 A 
ATOM      9  N   UNL     1       1.017   2.525  19.985  0.00  0.00    +0.000 NA
ATOM     10  C   UNL     1       2.075   3.033  20.619  0.00  0.00    +0.000 A 
ATOM     11  N   UNL     1       2.077   2.979  21.996  0.00  0.00    +0.000 N 
ATOM     12  N   UNL     1       3.139   3.566  20.016  0.00  0.00    +0.000 NA
ATOM     13  H   UNL     1       1.432   2.266  22.312  0.00  0.00    +0.000 HD
ATOM     14  H   UNL     1       3.023   2.940  22.345  0.00  0.00    +0.000 HD
ENDBRANCH   3   6
BRANCH   5  15
ATOM     15  C   UNL     1       6.082   4.631  15.031  0.00  0.00    +0.000 A 
ATOM     16  C   UNL     1       7.278   5.206  14.578  0.00  0.00    +0.000 A 
ATOM     17  C   UNL     1       7.749   4.970  13.283  0.00  0.00    +0.000 A 
ATOM     18  C   UNL     1       7.013   4.176  12.410  0.00  0.00    +0.000 A 
ATOM     19  C   UNL     1       5.799   3.635  12.824  0.00  0.00    +0.000 A 
ATOM     20  C   UNL     1       5.335   3.864  14.124  0.00  0.00    +0.000 A 
ENDBRANCH   5  15
BRANCH   1  22
ATOM     21  N   UNL     1       7.993   6.358  18.599  0.00  0.00    +0.000 N 
ATOM     22  C   UNL     1       7.147   6.507  17.536  0.00  0.00    +0.000 C 
ATOM     23  O   UNL     1       7.352   7.397  16.717  0.00  0.00    +0.000 OA
ATOM     24  H   UNL     1       8.722   7.051  18.703  0.00  0.00    +0.000 HD
ATOM     25  H   UNL     1       7.794   5.744  19.376  0.00  0.00    +0.000 HD
ENDBRANCH   1  22
TORSDOF 3
ENDMDL
MODEL 7
REMARK VINA RESULT:      -7.7      3.626      4.809
REMARK  Name = 
REMARK  3 active torsions:
REMARK  status: ('A' for Active; 'I' for Inactive)
REMARK    1  A    between atoms: C_2  and  C_4
REMARK    2  A    between atoms: C_6  and  C_7
REMARK    3  A    between atoms: C_15  and  C_16
REMARK                            x       y       z     vdW  Elec       q    Type
REMARK                         _______ _______ _______ _____ _____    ______ ____
ROOT
ATOM      1  C   UNL     1       6.102   5.586  17.496  0.00  0.00    +0.000 A 
ATOM      2  C   UNL     1       5.188   5.279  18.551  0.00  0.00    +0.000 A 
ATOM      3  C   UNL     1       4.321   4.317  18.083  0.00  0.00    +0.000 A 
ATOM      4  O   UNL     1       4.660   3.989  16.803  0.00  0.00    +0.000 OA
ATOM      5  C   UNL     1       5.735   4.760  16.438  0.00  0.00    +0.000 A 
ENDROOT
BRANCH   3   6
ATOM      6  C   UNL     1       3.164   3.656  18.674  0.00  0.00    +0.000 A 
ATOM      7  C   UNL     1       2.102   3.199  17.932  0.00  0.00    +0.000 A 
ATOM      8  C   UNL     1       1.072   2.649  18.654  0.00  0.00    +0.000 A 
ATOM      9  N   UNL     1       1.074   2.558  19.997  0.00  0.00    +0.000 NA
ATOM     10  C   UNL     1       2.145   3.039  20.628  0.00  0.00    +0.000 A 
ATOM     11  N   UNL     1       2.158   2.965  22.004  0.00  0.00    +0.000 N 
ATOM     12  N   UNL     1       3.212   3.565  20.023  0.00  0.00    +0.000 NA
ATOM     13  H   UNL     1       1.505   2.257  22.315  0.00  0.00    +0.000 HD
ATOM     14  H   UNL     1       3.107   2.906  22.344  0.00  0.00    +0.000 HD
ENDBRANCH   3   6
BRANCH   5  15
ATOM     15  C   UNL     1       6.210   4.552  15.069  0.00  0.00    +0.000 A 
ATOM     16  C   UNL     1       5.513   3.725  14.176  0.00  0.00    +0.000 A 
ATOM     17  C   UNL     1       5.913   3.603  12.843  0.00  0.00    +0.000 A 
ATOM     18  C   UNL     1       7.037   4.285  12.388  0.00  0.00    +0.000 A 
ATOM     19  C   UNL     1       7.771   5.073  13.271  0.00  0.00    +0.000 A 
ATOM     20  C   UNL     1       7.362   5.202  14.603  0.00  0.00    +0.000 A 
ENDBRANCH   5  15
BRANCH   1  22
ATOM     21  N   UNL     1       8.054   6.398  18.585  0.00  0.00    +0.000 N 
ATOM     22  C   UNL     1       7.201   6.530  17.525  0.00  0.00    +0.000 C 
ATOM     23  O   UNL     1       7.392   7.418  16.700  0.00  0.00    +0.000 OA
ATOM     24  H   UNL     1       8.775   7.101  18.681  0.00  0.00    +0.000 HD
ATOM     25  H   UNL     1       7.866   5.787  19.367  0.00  0.00    +0.000 HD
ENDBRANCH   1  22
TORSDOF 3
ENDMDL
MODEL 8
REMARK VINA RESULT:      -7.7      3.875      6.822
REMARK  Name = 
REMARK  3 active torsions:
REMARK  status: ('A' for Active; 'I' for Inactive)
REMARK    1  A    between atoms: C_2  and  C_4
REMARK    2  A    between atoms: C_6  and  C_7
REMARK    3  A    between atoms: C_15  and  C_16
REMARK                            x       y       z     vdW  Elec       q    Type
REMARK                         _______ _______ _______ _____ _____    ______ ____
ROOT
ATOM      1  C   UNL     1       5.793   4.787  17.850  0.00  0.00    +0.000 A 
ATOM      2  C   UNL     1       6.656   5.049  16.742  0.00  0.00    +0.000 A 
ATOM      3  C   UNL     1       6.054   4.536  15.616  0.00  0.00    +0.000 A 
ATOM      4  O   UNL     1       4.850   3.991  15.956  0.00  0.00    +0.000 OA
ATOM      5  C   UNL     1       4.689   4.133  17.312  0.00  0.00    +0.000 A 
ENDROOT
BRANCH   3   6
ATOM      6  C   UNL     1       6.469   4.457  14.220  0.00  0.00    +0.000 A 
ATOM      7  C   UNL     1       6.035   3.474  13.364  0.00  0.00    +0.000 A 
ATOM      8  C   UNL     1       6.567   3.518  12.099  0.00  0.00    +0.000 A 
ATOM      9  N   UNL     1       7.457   4.445  11.701  0.00  0.00    +0.000 NA
ATOM     10  C   UNL     1       7.824   5.351  12.609  0.00  0.00    +0.000 A 
ATOM     11  N   UNL     1       8.745   6.300  12.221  0.00  0.00    +0.000 N 
ATOM     12  N   UNL     1       7.348   5.418  13.853  0.00  0.00    +0.000 NA
ATOM     13  H   UNL     1       8.757   6.375  11.212  0.00  0.00    +0.000 HD
ATOM     14  H   UNL     1       8.617   7.151  12.749  0.00  0.00    +0.000 HD
ENDBRANCH   3   6
BRANCH   5  15
ATOM     15  C   UNL     1       3.451   3.568  17.851  0.00  0.00    +0.000 A 
ATOM     16  C   UNL     1       2.283   4.339  17.948  0.00  0.00    +0.000 A 
ATOM     17  C   UNL     1       1.077   3.772  18.372  0.00  0.00    +0.000 A 
ATOM     18  C   UNL     1       1.028   2.430  18.732  0.00  0.00    +0.000 A 
ATOM     19  C   UNL     1       2.187   1.660  18.688  0.00  0.00    +0.000 A 
ATOM     20  C   UNL     1       3.391   2.226  18.254  0.00  0.00    +0.000 A 
ENDBRANCH   5  15
BRANCH   1  22
ATOM     21  N   UNL     1       7.302   5.367  19.596  0.00  0.00    +0.000 N 
ATOM     22  C   UNL     1       6.000   5.151  19.238  0.00  0.00    +0.000 C 
ATOM     23  O   UNL     1       5.114   5.253  20.081  0.00  0.00    +0.000 OA
ATOM     24  H   UNL     1       7.484   5.531  20.577  0.00  0.00    +0.000 HD
ATOM     25  H   UNL     1       8.079   5.156  18.986  0.00  0.00    +0.000 HD
ENDBRANCH   1  22
TORSDOF 3
ENDMDL
MODEL 9
REMARK VINA RESULT:      -7.7      3.903      7.001
REMARK  Name = 
REMARK  3 active torsions:
REMARK  status: ('A' for Active; 'I' for Inactive)
REMARK    1  A    between atoms: C_2  and  C_4
REMARK    2  A    between atoms: C_6  and  C_7
REMARK    3  A    between atoms: C_15  and  C_16
REMARK                            x       y       z     vdW  Elec       q    Type
REMARK                         _______ _______ _______ _____ _____    ______ ____
ROOT
ATOM      1  C   UNL     1       5.774   4.802  17.806  0.00  0.00    +0.000 A 
ATOM      2  C   UNL     1       6.670   5.042  16.719  0.00  0.00    +0.000 A 
ATOM      3  C   UNL     1       6.112   4.488  15.590  0.00  0.00    +0.000 A 
ATOM      4  O   UNL     1       4.905   3.936  15.907  0.00  0.00    +0.000 OA
ATOM      5  C   UNL     1       4.697   4.117  17.252  0.00  0.00    +0.000 A 
ENDROOT
BRANCH   3   6
ATOM      6  C   UNL     1       6.574   4.372  14.212  0.00  0.00    +0.000 A 
ATOM      7  C   UNL     1       7.440   5.270  13.633  0.00  0.00    +0.000 A 
ATOM      8  C   UNL     1       7.729   5.040  12.311  0.00  0.00    +0.000 A 
ATOM      9  N   UNL     1       7.210   4.019  11.605  0.00  0.00    +0.000 NA
ATOM     10  C   UNL     1       6.372   3.208  12.253  0.00  0.00    +0.000 A 
ATOM     11  N   UNL     1       5.823   2.163  11.542  0.00  0.00    +0.000 N 
ATOM     12  N   UNL     1       6.048   3.321  13.542  0.00  0.00    +0.000 NA
ATOM     13  H   UNL     1       6.391   1.967  10.727  0.00  0.00    +0.000 HD
ATOM     14  H   UNL     1       5.609   1.392  12.157  0.00  0.00    +0.000 HD
ENDBRANCH   3   6
BRANCH   5  15
ATOM     15  C   UNL     1       3.449   3.551  17.767  0.00  0.00    +0.000 A 
ATOM     16  C   UNL     1       3.412   2.270  18.335  0.00  0.00    +0.000 A 
ATOM     17  C   UNL     1       2.241   1.770  18.913  0.00  0.00    +0.000 A 
ATOM     18  C   UNL     1       1.079   2.535  18.904  0.00  0.00    +0.000 A 
ATOM     19  C   UNL     1       1.083   3.790  18.302  0.00  0.00    +0.000 A 
ATOM     20  C   UNL     1       2.259   4.293  17.733  0.00  0.00    +0.000 A 
ENDBRANCH   5  15
BRANCH   1  22
ATOM     21  N   UNL     1       7.221   5.285  19.631  0.00  0.00    +0.000 N 
ATOM     22  C   UNL     1       5.930   5.211  19.188  0.00  0.00    +0.000 C 
ATOM     23  O   UNL     1       5.009   5.463  19.958  0.00  0.00    +0.000 OA
ATOM     24  H   UNL     1       7.356   5.477  20.615  0.00  0.00    +0.000 HD
ATOM     25  H   UNL     1       8.006   4.950  19.090  0.00  0.00    +0.000 HD
ENDBRANCH   1  22
TORSDOF 3
ENDMDL
