MODEL 1
REMARK VINA RESULT:      -8.0      0.000      0.000
REMARK  Name = 
REMARK  5 active torsions:
REMARK  status: ('A' for Active; 'I' for Inactive)
REMARK    1  A    between atoms: C_2  and  C_3
REMARK    2  A    between atoms: C_3  and  C_4
REMARK    3  A    between atoms: C_4  and  N_5
REMARK    4  A    between atoms: C_8  and  N_9
REMARK    5  A    between atoms: C_22  and  O_23
REMARK                            x       y       z     vdW  Elec       q    Type
REMARK                         _______ _______ _______ _____ _____    ______ ____
ROOT
ATOM      1  O   UNL     1       0.707  10.663  18.178  0.00  0.00    +0.000 OA
ATOM      2  C   UNL     1       0.944  10.068  19.227  0.00  0.00    +0.000 C 
ATOM      3  N   UNL     1       1.466   8.782  19.268  0.00  0.00    +0.000 N 
ATOM      4  C   UNL     1       1.877   8.190  17.999  0.00  0.00    +0.000 C 
ATOM      5  C   UNL     1       3.246   7.539  18.191  0.00  0.00    +0.000 C 
ATOM      6  C   UNL     1       2.937   6.317  19.034  0.00  0.00    +0.000 A 
ATOM      7  C   UNL     1       2.142   6.556  20.179  0.00  0.00    +0.000 A 
ATOM      8  N   UNL     1       1.459   5.581  20.819  0.00  0.00    +0.000 NA
ATOM      9  C   UNL     1       1.493   4.374  20.224  0.00  0.00    +0.000 A 
ATOM     10  C   UNL     1       2.201   4.034  19.056  0.00  0.00    +0.000 A 
ATOM     11  C   UNL     1       2.068   2.812  18.364  0.00  0.00    +0.000 A 
ATOM     12  C   UNL     1       2.748   2.585  17.164  0.00  0.00    +0.000 A 
ATOM     13  C   UNL     1       3.640   3.531  16.682  0.00  0.00    +0.000 A 
ATOM     14  C   UNL     1       3.807   4.728  17.362  0.00  0.00    +0.000 A 
ATOM     15  C   UNL     1       3.033   5.026  18.507  0.00  0.00    +0.000 A 
ATOM     16  C   UNL     1       1.822   8.015  20.499  0.00  0.00    +0.000 C 
ENDROOT
BRANCH   9  17
ATOM     17  O   UNL     1       0.682   3.465  20.836  0.00  0.00    +0.000 OA
ATOM     18  H   UNL     1       0.176   4.058  21.420  0.00  0.00    +0.000 HD
ENDBRANCH   9  17
BRANCH   2  19
ATOM     19  C   UNL     1       0.747  10.717  20.564  0.00  0.00    +0.000 C 
BRANCH  19  20
ATOM     20  C   UNL     1      -0.648  10.515  21.153  0.00  0.00    +0.000 C 
BRANCH  20  21
ATOM     21  N   UNL     1      -1.249  11.814  21.550  0.00  0.00    +0.000 NA
ATOM     22  C   UNL     1      -2.348  12.167  20.635  0.00  0.00    +0.000 C 
ATOM     23  C   UNL     1      -3.015  13.491  21.035  0.00  0.00    +0.000 C 
ATOM     24  C   UNL     1      -3.560  13.493  22.486  0.00  0.00    +0.000 C 
ATOM     25  C   UNL     1      -2.366  13.099  23.367  0.00  0.00    +0.000 C 
ATOM     26  C   UNL     1      -1.732  11.786  22.940  0.00  0.00    +0.000 C 
BRANCH  24  27
ATOM     27  N   UNL     1      -4.753  12.623  22.670  0.00  0.00    +0.000 NA
ATOM     28  C   UNL     1      -5.831  12.909  21.702  0.00  0.00    +0.000 C 
ATOM     29  C   UNL     1      -6.687  13.978  22.354  0.00  0.00    +0.000 C 
ATOM     30  C   UNL     1      -6.699  13.559  23.806  0.00  0.00    +0.000 C 
ATOM     31  C   UNL     1      -5.408  12.767  23.990  0.00  0.00    +0.000 C 
ENDBRANCH  24  27
ENDBRANCH  20  21
ENDBRANCH  19  20
ENDBRANCH   2  19
TORSDOF 5
ENDMDL
MODEL 2
REMARK VINA RESULT:      -8.0      7.814     12.065
REMARK  Name = 
REMARK  5 active torsions:
REMARK  status: ('A' for Active; 'I' for Inactive)
REMARK    1  A    between atoms: C_2  and  C_3
REMARK    2  A    between atoms: C_3  and  C_4
REMARK    3  A    between atoms: C_4  and  N_5
REMARK    4  A    between atoms: C_8  and  N_9
REMARK    5  A    between atoms: C_22  and  O_23
REMARK                            x       y       z     vdW  Elec       q    Type
REMARK                         _______ _______ _______ _____ _____    ______ ____
ROOT
ATOM      1  O   UNL     1       9.615   9.694  19.511  0.00  0.00    +0.000 OA
ATOM      2  C   UNL     1       8.856  10.150  18.658  0.00  0.00    +0.000 C 
ATOM      3  N   UNL     1       8.732  11.508  18.401  0.00  0.00    +0.000 N 
ATOM      4  C   UNL     1       9.658  12.402  19.089  0.00  0.00    +0.000 C 
ATOM      5  C   UNL     1      10.201  13.409  18.074  0.00  0.00    +0.000 C 
ATOM      6  C   UNL     1       9.012  14.313  17.811  0.00  0.00    +0.000 A 
ATOM      7  C   UNL     1       7.799  13.650  17.514  0.00  0.00    +0.000 A 
ATOM      8  N   UNL     1       6.589  14.240  17.628  0.00  0.00    +0.000 NA
ATOM      9  C   UNL     1       6.604  15.478  18.156  0.00  0.00    +0.000 A 
ATOM     10  C   UNL     1       7.742  16.212  18.540  0.00  0.00    +0.000 A 
ATOM     11  C   UNL     1       7.708  17.428  19.254  0.00  0.00    +0.000 A 
ATOM     12  C   UNL     1       8.888  18.054  19.668  0.00  0.00    +0.000 A 
ATOM     13  C   UNL     1      10.117  17.530  19.299  0.00  0.00    +0.000 A 
ATOM     14  C   UNL     1      10.173  16.351  18.572  0.00  0.00    +0.000 A 
ATOM     15  C   UNL     1       8.993  15.638  18.255  0.00  0.00    +0.000 A 
ATOM     16  C   UNL     1       7.869  12.132  17.354  0.00  0.00    +0.000 C 
ENDROOT
BRANCH   9  17
ATOM     17  O   UNL     1       5.351  15.971  18.372  0.00  0.00    +0.000 OA
ATOM     18  H   UNL     1       5.106  15.462  19.166  0.00  0.00    +0.000 HD
ENDBRANCH   9  17
BRANCH   2  19
ATOM     19  C   UNL     1       8.043   9.259  17.768  0.00  0.00    +0.000 C 
BRANCH  19  20
ATOM     20  C   UNL     1       8.122   7.777  18.134  0.00  0.00    +0.000 C 
BRANCH  20  21
ATOM     21  N   UNL     1       7.320   6.955  17.192  0.00  0.00    +0.000 NA
ATOM     22  C   UNL     1       7.405   5.532  17.560  0.00  0.00    +0.000 C 
ATOM     23  C   UNL     1       6.561   4.653  16.624  0.00  0.00    +0.000 C 
ATOM     24  C   UNL     1       5.067   5.062  16.577  0.00  0.00    +0.000 C 
ATOM     25  C   UNL     1       5.068   6.553  16.208  0.00  0.00    +0.000 C 
ATOM     26  C   UNL     1       5.915   7.388  17.154  0.00  0.00    +0.000 C 
BRANCH  24  27
ATOM     27  N   UNL     1       4.329   4.757  17.833  0.00  0.00    +0.000 NA
ATOM     28  C   UNL     1       4.058   3.315  18.005  0.00  0.00    +0.000 C 
ATOM     29  C   UNL     1       2.721   3.072  17.329  0.00  0.00    +0.000 C 
ATOM     30  C   UNL     1       1.935   4.313  17.684  0.00  0.00    +0.000 C 
ATOM     31  C   UNL     1       2.993   5.388  17.916  0.00  0.00    +0.000 C 
ENDBRANCH  24  27
ENDBRANCH  20  21
ENDBRANCH  19  20
ENDBRANCH   2  19
TORSDOF 5
ENDMDL
MODEL 3
REMARK VINA RESULT:      -7.9      1.021      1.153
REMARK  Name = 
REMARK  5 active torsions:
REMARK  status: ('A' for Active; 'I' for Inactive)
REMARK    1  A    between atoms: C_2  and  C_3
REMARK    2  A    between atoms: C_3  and  C_4
REMARK    3  A    between atoms: C_4  and  N_5
REMARK    4  A    between atoms: C_8  and  N_9
REMARK    5  A    between atoms: C_22  and  O_23
REMARK                            x       y       z     vdW  Elec       q    Type
REMARK                         _______ _______ _______ _____ _____    ______ ____
ROOT
ATOM      1  O   UNL     1       1.752   9.958  17.441  0.00  0.00    +0.000 OA
ATOM      2  C   UNL     1       1.618   9.474  18.563  0.00  0.00    +0.000 C 
ATOM      3  N   UNL     1       2.000   8.178  18.880  0.00  0.00    +0.000 N 
ATOM      4  C   UNL     1       2.721   7.428  17.857  0.00  0.00    +0.000 C 
ATOM      5  C   UNL     1       3.915   6.738  18.515  0.00  0.00    +0.000 C 
ATOM      6  C   UNL     1       3.273   5.634  19.334  0.00  0.00    +0.000 A 
ATOM      7  C   UNL     1       2.195   6.037  20.155  0.00  0.00    +0.000 A 
ATOM      8  N   UNL     1       1.278   5.175  20.645  0.00  0.00    +0.000 NA
ATOM      9  C   UNL     1       1.392   3.908  20.203  0.00  0.00    +0.000 A 
ATOM     10  C   UNL     1       2.385   3.406  19.342  0.00  0.00    +0.000 A 
ATOM     11  C   UNL     1       2.368   2.122  18.759  0.00  0.00    +0.000 A 
ATOM     12  C   UNL     1       3.354   1.729  17.849  0.00  0.00    +0.000 A 
ATOM     13  C   UNL     1       4.421   2.572  17.576  0.00  0.00    +0.000 A 
ATOM     14  C   UNL     1       4.473   3.827  18.161  0.00  0.00    +0.000 A 
ATOM     15  C   UNL     1       3.419   4.289  18.983  0.00  0.00    +0.000 A 
ATOM     16  C   UNL     1       1.912   7.537  20.227  0.00  0.00    +0.000 C 
ENDROOT
BRANCH   9  17
ATOM     17  O   UNL     1       0.365   3.113  20.620  0.00  0.00    +0.000 OA
ATOM     18  H   UNL     1      -0.393   3.652  20.330  0.00  0.00    +0.000 HD
ENDBRANCH   9  17
BRANCH   2  19
ATOM     19  C   UNL     1       1.085  10.277  19.711  0.00  0.00    +0.000 C 
BRANCH  19  20
ATOM     20  C   UNL     1      -0.429  10.485  19.674  0.00  0.00    +0.000 C 
BRANCH  20  21
ATOM     21  N   UNL     1      -0.814  11.716  20.409  0.00  0.00    +0.000 NA
ATOM     22  C   UNL     1      -2.115  12.210  19.929  0.00  0.00    +0.000 C 
ATOM     23  C   UNL     1      -2.560  13.467  20.690  0.00  0.00    +0.000 C 
ATOM     24  C   UNL     1      -2.646  13.261  22.224  0.00  0.00    +0.000 C 
ATOM     25  C   UNL     1      -1.266  12.731  22.638  0.00  0.00    +0.000 C 
ATOM     26  C   UNL     1      -0.860  11.489  21.862  0.00  0.00    +0.000 C 
BRANCH  24  27
ATOM     27  N   UNL     1      -3.774  12.383  22.640  0.00  0.00    +0.000 NA
ATOM     28  C   UNL     1      -5.098  12.981  22.375  0.00  0.00    +0.000 C 
ATOM     29  C   UNL     1      -5.441  13.774  23.622  0.00  0.00    +0.000 C 
ATOM     30  C   UNL     1      -4.919  12.894  24.733  0.00  0.00    +0.000 C 
ATOM     31  C   UNL     1      -3.800  12.081  24.089  0.00  0.00    +0.000 C 
ENDBRANCH  24  27
ENDBRANCH  20  21
ENDBRANCH  19  20
ENDBRANCH   2  19
TORSDOF 5
ENDMDL
MODEL 4
REMARK VINA RESULT:      -7.8      1.404      2.001
REMARK  Name = 
REMARK  5 active torsions:
REMARK  status: ('A' for Active; 'I' for Inactive)
REMARK    1  A    between atoms: C_2  and  C_3
REMARK    2  A    between atoms: C_3  and  C_4
REMARK    3  A    between atoms: C_4  and  N_5
REMARK    4  A    between atoms: C_8  and  N_9
REMARK    5  A    between atoms: C_22  and  O_23
REMARK                            x       y       z     vdW  Elec       q    Type
REMARK                         _______ _______ _______ _____ _____    ______ ____
ROOT
ATOM      1  O   UNL     1       1.021  10.215  17.770  0.00  0.00    +0.000 OA
ATOM      2  C   UNL     1       1.126   9.691  18.878  0.00  0.00    +0.000 C 
ATOM      3  N   UNL     1       1.633   8.413  19.067  0.00  0.00    +0.000 N 
ATOM      4  C   UNL     1       2.191   7.739  17.900  0.00  0.00    +0.000 C 
ATOM      5  C   UNL     1       3.524   7.107  18.299  0.00  0.00    +0.000 C 
ATOM      6  C   UNL     1       3.110   5.943  19.178  0.00  0.00    +0.000 A 
ATOM      7  C   UNL     1       2.183   6.254  20.199  0.00  0.00    +0.000 A 
ATOM      8  N   UNL     1       1.423   5.323  20.815  0.00  0.00    +0.000 NA
ATOM      9  C   UNL     1       1.523   4.078  20.311  0.00  0.00    +0.000 A 
ATOM     10  C   UNL     1       2.366   3.664  19.262  0.00  0.00    +0.000 A 
ATOM     11  C   UNL     1       2.312   2.398  18.643  0.00  0.00    +0.000 A 
ATOM     12  C   UNL     1       3.131   2.094  17.552  0.00  0.00    +0.000 A 
ATOM     13  C   UNL     1       4.079   3.009  17.119  0.00  0.00    +0.000 A 
ATOM     14  C   UNL     1       4.169   4.249  17.733  0.00  0.00    +0.000 A 
ATOM     15  C   UNL     1       3.263   4.620  18.754  0.00  0.00    +0.000 A 
ATOM     16  C   UNL     1       1.834   7.731  20.381  0.00  0.00    +0.000 C 
ENDROOT
BRANCH   9  17
ATOM     17  O   UNL     1       0.639   3.209  20.879  0.00  0.00    +0.000 OA
ATOM     18  H   UNL     1      -0.049   3.196  20.190  0.00  0.00    +0.000 HD
ENDBRANCH   9  17
BRANCH   2  19
ATOM     19  C   UNL     1       0.772  10.427  20.135  0.00  0.00    +0.000 C 
BRANCH  19  20
ATOM     20  C   UNL     1      -0.095  11.665  19.907  0.00  0.00    +0.000 C 
BRANCH  20  21
ATOM     21  N   UNL     1      -1.252  11.681  20.837  0.00  0.00    +0.000 NA
ATOM     22  C   UNL     1      -0.790  11.877  22.221  0.00  0.00    +0.000 C 
ATOM     23  C   UNL     1      -1.965  11.930  23.209  0.00  0.00    +0.000 C 
ATOM     24  C   UNL     1      -3.001  13.033  22.875  0.00  0.00    +0.000 C 
ATOM     25  C   UNL     1      -3.415  12.770  21.420  0.00  0.00    +0.000 C 
ATOM     26  C   UNL     1      -2.226  12.722  20.474  0.00  0.00    +0.000 C 
BRANCH  24  27
ATOM     27  N   UNL     1      -2.495  14.412  23.114  0.00  0.00    +0.000 NA
ATOM     28  C   UNL     1      -1.799  14.554  24.409  0.00  0.00    +0.000 C 
ATOM     29  C   UNL     1      -2.877  14.929  25.409  0.00  0.00    +0.000 C 
ATOM     30  C   UNL     1      -3.763  15.859  24.614  0.00  0.00    +0.000 C 
ATOM     31  C   UNL     1      -3.556  15.444  23.161  0.00  0.00    +0.000 C 
ENDBRANCH  24  27
ENDBRANCH  20  21
ENDBRANCH  19  20
ENDBRANCH   2  19
TORSDOF 5
ENDMDL
MODEL 5
REMARK VINA RESULT:      -7.8      1.062      1.604
REMARK  Name = 
REMARK  5 active torsions:
REMARK  status: ('A' for Active; 'I' for Inactive)
REMARK    1  A    between atoms: C_2  and  C_3
REMARK    2  A    between atoms: C_3  and  C_4
REMARK    3  A    between atoms: C_4  and  N_5
REMARK    4  A    between atoms: C_8  and  N_9
REMARK    5  A    between atoms: C_22  and  O_23
REMARK                            x       y       z     vdW  Elec       q    Type
REMARK                         _______ _______ _______ _____ _____    ______ ____
ROOT
ATOM      1  O   UNL     1       0.528  10.725  18.409  0.00  0.00    +0.000 OA
ATOM      2  C   UNL     1       0.757  10.088  19.435  0.00  0.00    +0.000 C 
ATOM      3  N   UNL     1       1.316   8.817  19.431  0.00  0.00    +0.000 N 
ATOM      4  C   UNL     1       1.776   8.297  18.147  0.00  0.00    +0.000 C 
ATOM      5  C   UNL     1       3.159   7.678  18.344  0.00  0.00    +0.000 C 
ATOM      6  C   UNL     1       2.866   6.409  19.121  0.00  0.00    +0.000 A 
ATOM      7  C   UNL     1       2.036   6.571  20.255  0.00  0.00    +0.000 A 
ATOM      8  N   UNL     1       1.367   5.548  20.832  0.00  0.00    +0.000 NA
ATOM      9  C   UNL     1       1.452   4.371  20.183  0.00  0.00    +0.000 A 
ATOM     10  C   UNL     1       2.198   4.108  19.019  0.00  0.00    +0.000 A 
ATOM     11  C   UNL     1       2.119   2.916  18.269  0.00  0.00    +0.000 A 
ATOM     12  C   UNL     1       2.835   2.765  17.078  0.00  0.00    +0.000 A 
ATOM     13  C   UNL     1       3.710   3.758  16.663  0.00  0.00    +0.000 A 
ATOM     14  C   UNL     1       3.824   4.926  17.402  0.00  0.00    +0.000 A 
ATOM     15  C   UNL     1       3.014   5.148  18.539  0.00  0.00    +0.000 A 
ATOM     16  C   UNL     1       1.665   8.004  20.634  0.00  0.00    +0.000 C 
ENDROOT
BRANCH   9  17
ATOM     17  O   UNL     1       0.653   3.412  20.731  0.00  0.00    +0.000 OA
ATOM     18  H   UNL     1      -0.133   3.948  20.940  0.00  0.00    +0.000 HD
ENDBRANCH   9  17
BRANCH   2  19
ATOM     19  C   UNL     1       0.508  10.668  20.795  0.00  0.00    +0.000 C 
BRANCH  19  20
ATOM     20  C   UNL     1      -0.164  12.040  20.772  0.00  0.00    +0.000 C 
BRANCH  20  21
ATOM     21  N   UNL     1      -1.556  11.956  21.283  0.00  0.00    +0.000 NA
ATOM     22  C   UNL     1      -1.596  12.308  22.712  0.00  0.00    +0.000 C 
ATOM     23  C   UNL     1      -3.027  12.264  23.267  0.00  0.00    +0.000 C 
ATOM     24  C   UNL     1      -4.013  13.185  22.504  0.00  0.00    +0.000 C 
ATOM     25  C   UNL     1      -3.897  12.769  21.031  0.00  0.00    +0.000 C 
ATOM     26  C   UNL     1      -2.467  12.824  20.519  0.00  0.00    +0.000 C 
BRANCH  24  27
ATOM     27  N   UNL     1      -3.769  14.635  22.738  0.00  0.00    +0.000 NA
ATOM     28  C   UNL     1      -4.210  15.085  24.074  0.00  0.00    +0.000 C 
ATOM     29  C   UNL     1      -5.658  15.502  23.902  0.00  0.00    +0.000 C 
ATOM     30  C   UNL     1      -5.657  16.167  22.545  0.00  0.00    +0.000 C 
ATOM     31  C   UNL     1      -4.489  15.527  21.801  0.00  0.00    +0.000 C 
ENDBRANCH  24  27
ENDBRANCH  20  21
ENDBRANCH  19  20
ENDBRANCH   2  19
TORSDOF 5
ENDMDL
MODEL 6
REMARK VINA RESULT:      -7.7      1.418      1.899
REMARK  Name = 
REMARK  5 active torsions:
REMARK  status: ('A' for Active; 'I' for Inactive)
REMARK    1  A    between atoms: C_2  and  C_3
REMARK    2  A    between atoms: C_3  and  C_4
REMARK    3  A    between atoms: C_4  and  N_5
REMARK    4  A    between atoms: C_8  and  N_9
REMARK    5  A    between atoms: C_22  and  O_23
REMARK                            x       y       z     vdW  Elec       q    Type
REMARK                         _______ _______ _______ _____ _____    ______ ____
ROOT
ATOM      1  O   UNL     1       1.562  10.057  17.455  0.00  0.00    +0.000 OA
ATOM      2  C   UNL     1       1.505   9.571  18.583  0.00  0.00    +0.000 C 
ATOM      3  N   UNL     1       1.912   8.276  18.872  0.00  0.00    +0.000 N 
ATOM      4  C   UNL     1       2.564   7.529  17.801  0.00  0.00    +0.000 C 
ATOM      5  C   UNL     1       3.802   6.842  18.377  0.00  0.00    +0.000 C 
ATOM      6  C   UNL     1       3.220   5.736  19.235  0.00  0.00    +0.000 A 
ATOM      7  C   UNL     1       2.199   6.135  20.128  0.00  0.00    +0.000 A 
ATOM      8  N   UNL     1       1.320   5.270  20.677  0.00  0.00    +0.000 NA
ATOM      9  C   UNL     1       1.407   4.003  20.228  0.00  0.00    +0.000 A 
ATOM     10  C   UNL     1       2.342   3.505  19.301  0.00  0.00    +0.000 A 
ATOM     11  C   UNL     1       2.289   2.222  18.720  0.00  0.00    +0.000 A 
ATOM     12  C   UNL     1       3.212   1.833  17.745  0.00  0.00    +0.000 A 
ATOM     13  C   UNL     1       4.256   2.679  17.401  0.00  0.00    +0.000 A 
ATOM     14  C   UNL     1       4.343   3.934  17.982  0.00  0.00    +0.000 A 
ATOM     15  C   UNL     1       3.346   4.392  18.874  0.00  0.00    +0.000 A 
ATOM     16  C   UNL     1       1.916   7.634  20.220  0.00  0.00    +0.000 C 
ENDROOT
BRANCH   9  17
ATOM     17  O   UNL     1       0.414   3.205  20.713  0.00  0.00    +0.000 OA
ATOM     18  H   UNL     1       0.880   2.793  21.462  0.00  0.00    +0.000 HD
ENDBRANCH   9  17
BRANCH   2  19
ATOM     19  C   UNL     1       1.048  10.372  19.765  0.00  0.00    +0.000 C 
BRANCH  19  20
ATOM     20  C   UNL     1       1.255  11.879  19.611  0.00  0.00    +0.000 C 
BRANCH  20  21
ATOM     21  N   UNL     1      -0.020  12.612  19.812  0.00  0.00    +0.000 NA
ATOM     22  C   UNL     1      -1.062  11.697  20.305  0.00  0.00    +0.000 C 
ATOM     23  C   UNL     1      -2.388  12.429  20.555  0.00  0.00    +0.000 C 
ATOM     24  C   UNL     1      -2.261  13.612  21.549  0.00  0.00    +0.000 C 
ATOM     25  C   UNL     1      -1.150  14.502  20.976  0.00  0.00    +0.000 C 
ATOM     26  C   UNL     1       0.145  13.743  20.740  0.00  0.00    +0.000 C 
BRANCH  24  27
ATOM     27  N   UNL     1      -2.020  13.181  22.953  0.00  0.00    +0.000 NA
ATOM     28  C   UNL     1      -3.014  12.201  23.434  0.00  0.00    +0.000 C 
ATOM     29  C   UNL     1      -4.140  13.025  24.030  0.00  0.00    +0.000 C 
ATOM     30  C   UNL     1      -3.404  14.156  24.710  0.00  0.00    +0.000 C 
ATOM     31  C   UNL     1      -2.092  14.281  23.942  0.00  0.00    +0.000 C 
ENDBRANCH  24  27
ENDBRANCH  20  21
ENDBRANCH  19  20
ENDBRANCH   2  19
TORSDOF 5
ENDMDL
MODEL 7
REMARK VINA RESULT:      -7.7      1.017      1.290
REMARK  Name = 
REMARK  5 active torsions:
REMARK  status: ('A' for Active; 'I' for Inactive)
REMARK    1  A    between atoms: C_2  and  C_3
REMARK    2  A    between atoms: C_3  and  C_4
REMARK    3  A    between atoms: C_4  and  N_5
REMARK    4  A    between atoms: C_8  and  N_9
REMARK    5  A    between atoms: C_22  and  O_23
REMARK                            x       y       z     vdW  Elec       q    Type
REMARK                         _______ _______ _______ _____ _____    ______ ____
ROOT
ATOM      1  O   UNL     1       0.862  10.495  18.208  0.00  0.00    +0.000 OA
ATOM      2  C   UNL     1       1.043   9.880  19.257  0.00  0.00    +0.000 C 
ATOM      3  N   UNL     1       1.535   8.582  19.300  0.00  0.00    +0.000 N 
ATOM      4  C   UNL     1       1.983   7.999  18.039  0.00  0.00    +0.000 C 
ATOM      5  C   UNL     1       3.329   7.315  18.276  0.00  0.00    +0.000 C 
ATOM      6  C   UNL     1       2.960   6.088  19.087  0.00  0.00    +0.000 A 
ATOM      7  C   UNL     1       2.125   6.328  20.202  0.00  0.00    +0.000 A 
ATOM      8  N   UNL     1       1.396   5.361  20.800  0.00  0.00    +0.000 NA
ATOM      9  C   UNL     1       1.427   4.161  20.189  0.00  0.00    +0.000 A 
ATOM     10  C   UNL     1       2.174   3.823  19.045  0.00  0.00    +0.000 A 
ATOM     11  C   UNL     1       2.043   2.614  18.330  0.00  0.00    +0.000 A 
ATOM     12  C   UNL     1       2.766   2.388  17.155  0.00  0.00    +0.000 A 
ATOM     13  C   UNL     1       3.697   3.321  16.724  0.00  0.00    +0.000 A 
ATOM     14  C   UNL     1       3.862   4.504  17.428  0.00  0.00    +0.000 A 
ATOM     15  C   UNL     1       3.049   4.804  18.545  0.00  0.00    +0.000 A 
ATOM     16  C   UNL     1       1.824   7.790  20.532  0.00  0.00    +0.000 C 
ENDROOT
BRANCH   9  17
ATOM     17  O   UNL     1       0.572   3.262  20.754  0.00  0.00    +0.000 OA
ATOM     18  H   UNL     1       0.520   2.606  20.035  0.00  0.00    +0.000 HD
ENDBRANCH   9  17
BRANCH   2  19
ATOM     19  C   UNL     1       0.807  10.514  20.595  0.00  0.00    +0.000 C 
BRANCH  19  20
ATOM     20  C   UNL     1       0.220  11.923  20.519  0.00  0.00    +0.000 C 
BRANCH  20  21
ATOM     21  N   UNL     1      -0.368  12.323  21.823  0.00  0.00    +0.000 NA
ATOM     22  C   UNL     1      -0.540  13.784  21.876  0.00  0.00    +0.000 C 
ATOM     23  C   UNL     1      -1.177  14.232  23.200  0.00  0.00    +0.000 C 
ATOM     24  C   UNL     1      -2.546  13.563  23.483  0.00  0.00    +0.000 C 
ATOM     25  C   UNL     1      -2.284  12.053  23.390  0.00  0.00    +0.000 C 
ATOM     26  C   UNL     1      -1.653  11.649  22.068  0.00  0.00    +0.000 C 
BRANCH  24  27
ATOM     27  N   UNL     1      -3.633  14.039  22.585  0.00  0.00    +0.000 NA
ATOM     28  C   UNL     1      -3.978  15.458  22.801  0.00  0.00    +0.000 C 
ATOM     29  C   UNL     1      -5.055  15.456  23.869  0.00  0.00    +0.000 C 
ATOM     30  C   UNL     1      -5.882  14.243  23.508  0.00  0.00    +0.000 C 
ATOM     31  C   UNL     1      -4.918  13.325  22.764  0.00  0.00    +0.000 C 
ENDBRANCH  24  27
ENDBRANCH  20  21
ENDBRANCH  19  20
ENDBRANCH   2  19
TORSDOF 5
ENDMDL
MODEL 8
REMARK VINA RESULT:      -7.7      3.013     10.061
REMARK  Name = 
REMARK  5 active torsions:
REMARK  status: ('A' for Active; 'I' for Inactive)
REMARK    1  A    between atoms: C_2  and  C_3
REMARK    2  A    between atoms: C_3  and  C_4
REMARK    3  A    between atoms: C_4  and  N_5
REMARK    4  A    between atoms: C_8  and  N_9
REMARK    5  A    between atoms: C_22  and  O_23
REMARK                            x       y       z     vdW  Elec       q    Type
REMARK                         _______ _______ _______ _____ _____    ______ ____
ROOT
ATOM      1  O   UNL     1       3.127   7.002  19.175  0.00  0.00    +0.000 OA
ATOM      2  C   UNL     1       2.183   7.076  19.960  0.00  0.00    +0.000 C 
ATOM      3  N   UNL     1       1.359   8.189  20.051  0.00  0.00    +0.000 N 
ATOM      4  C   UNL     1       1.555   9.245  19.063  0.00  0.00    +0.000 C 
ATOM      5  C   UNL     1       0.185   9.675  18.539  0.00  0.00    +0.000 C 
ATOM      6  C   UNL     1      -0.415  10.432  19.708  0.00  0.00    +0.000 A 
ATOM      7  C   UNL     1      -0.352   9.769  20.955  0.00  0.00    +0.000 A 
ATOM      8  N   UNL     1      -0.474  10.411  22.138  0.00  0.00    +0.000 NA
ATOM      9  C   UNL     1      -0.546  11.753  22.056  0.00  0.00    +0.000 A 
ATOM     10  C   UNL     1      -0.559  12.521  20.877  0.00  0.00    +0.000 A 
ATOM     11  C   UNL     1      -0.452  13.927  20.835  0.00  0.00    +0.000 A 
ATOM     12  C   UNL     1      -0.391  14.610  19.617  0.00  0.00    +0.000 A 
ATOM     13  C   UNL     1      -0.528  13.914  18.425  0.00  0.00    +0.000 A 
ATOM     14  C   UNL     1      -0.662  12.535  18.444  0.00  0.00    +0.000 A 
ATOM     15  C   UNL     1      -0.598  11.817  19.661  0.00  0.00    +0.000 A 
ATOM     16  C   UNL     1       0.170   8.334  20.943  0.00  0.00    +0.000 C 
ENDROOT
BRANCH   9  17
ATOM     17  O   UNL     1      -0.532  12.354  23.280  0.00  0.00    +0.000 OA
ATOM     18  H   UNL     1      -0.627  11.572  23.852  0.00  0.00    +0.000 HD
ENDBRANCH   9  17
BRANCH   2  19
ATOM     19  C   UNL     1       1.801   5.928  20.845  0.00  0.00    +0.000 C 
BRANCH  19  20
ATOM     20  C   UNL     1       0.970   4.854  20.144  0.00  0.00    +0.000 C 
BRANCH  20  21
ATOM     21  N   UNL     1       1.842   3.913  19.396  0.00  0.00    +0.000 NA
ATOM     22  C   UNL     1       1.824   4.234  17.960  0.00  0.00    +0.000 C 
ATOM     23  C   UNL     1       2.742   3.299  17.158  0.00  0.00    +0.000 C 
ATOM     24  C   UNL     1       4.212   3.311  17.647  0.00  0.00    +0.000 C 
ATOM     25  C   UNL     1       4.141   2.988  19.146  0.00  0.00    +0.000 C 
ATOM     26  C   UNL     1       3.223   3.932  19.905  0.00  0.00    +0.000 C 
BRANCH  24  27
ATOM     27  N   UNL     1       4.927   4.580  17.340  0.00  0.00    +0.000 NA
ATOM     28  C   UNL     1       5.154   4.778  15.895  0.00  0.00    +0.000 C 
ATOM     29  C   UNL     1       6.489   4.121  15.601  0.00  0.00    +0.000 C 
ATOM     30  C   UNL     1       7.308   4.464  16.823  0.00  0.00    +0.000 C 
ATOM     31  C   UNL     1       6.281   4.668  17.933  0.00  0.00    +0.000 C 
ENDBRANCH  24  27
ENDBRANCH  20  21
ENDBRANCH  19  20
ENDBRANCH   2  19
TORSDOF 5
ENDMDL
MODEL 9
REMARK VINA RESULT:      -7.6      3.666     10.610
REMARK  Name = 
REMARK  5 active torsions:
REMARK  status: ('A' for Active; 'I' for Inactive)
REMARK    1  A    between atoms: C_2  and  C_3
REMARK    2  A    between atoms: C_3  and  C_4
REMARK    3  A    between atoms: C_4  and  N_5
REMARK    4  A    between atoms: C_8  and  N_9
REMARK    5  A    between atoms: C_22  and  O_23
REMARK                            x       y       z     vdW  Elec       q    Type
REMARK                         _______ _______ _______ _____ _____    ______ ____
ROOT
ATOM      1  O   UNL     1      -0.949  10.185  17.837  0.00  0.00    +0.000 OA
ATOM      2  C   UNL     1       0.066  10.589  18.402  0.00  0.00    +0.000 C 
ATOM      3  N   UNL     1       0.326  11.935  18.622  0.00  0.00    +0.000 N 
ATOM      4  C   UNL     1      -0.734  12.881  18.287  0.00  0.00    +0.000 C 
ATOM      5  C   UNL     1      -0.872  13.878  19.436  0.00  0.00    +0.000 C 
ATOM      6  C   UNL     1       0.375  14.732  19.309  0.00  0.00    +0.000 A 
ATOM      7  C   UNL     1       1.589  14.016  19.184  0.00  0.00    +0.000 A 
ATOM      8  N   UNL     1       2.720  14.564  18.689  0.00  0.00    +0.000 NA
ATOM      9  C   UNL     1       2.588  15.817  18.212  0.00  0.00    +0.000 A 
ATOM     10  C   UNL     1       1.420  16.602  18.231  0.00  0.00    +0.000 A 
ATOM     11  C   UNL     1       1.272  17.834  17.562  0.00  0.00    +0.000 A 
ATOM     12  C   UNL     1       0.050  18.514  17.564  0.00  0.00    +0.000 A 
ATOM     13  C   UNL     1      -1.014  18.025  18.307  0.00  0.00    +0.000 A 
ATOM     14  C   UNL     1      -0.880  16.830  18.996  0.00  0.00    +0.000 A 
ATOM     15  C   UNL     1       0.306  16.066  18.901  0.00  0.00    +0.000 A 
ATOM     16  C   UNL     1       1.509  12.499  19.338  0.00  0.00    +0.000 C 
ENDROOT
BRANCH   9  17
ATOM     17  O   UNL     1       3.722  16.269  17.605  0.00  0.00    +0.000 OA
ATOM     18  H   UNL     1       3.561  15.957  16.696  0.00  0.00    +0.000 HD
ENDBRANCH   9  17
BRANCH   2  19
ATOM     19  C   UNL     1       1.085   9.645  18.965  0.00  0.00    +0.000 C 
BRANCH  19  20
ATOM     20  C   UNL     1       2.051   9.081  17.923  0.00  0.00    +0.000 C 
BRANCH  20  21
ATOM     21  N   UNL     1       2.862   7.976  18.495  0.00  0.00    +0.000 NA
ATOM     22  C   UNL     1       2.037   7.153  19.395  0.00  0.00    +0.000 C 
ATOM     23  C   UNL     1       2.836   5.980  19.981  0.00  0.00    +0.000 C 
ATOM     24  C   UNL     1       3.458   5.058  18.902  0.00  0.00    +0.000 C 
ATOM     25  C   UNL     1       4.280   5.990  18.000  0.00  0.00    +0.000 C 
ATOM     26  C   UNL     1       3.457   7.139  17.441  0.00  0.00    +0.000 C 
BRANCH  24  27
ATOM     27  N   UNL     1       2.451   4.247  18.165  0.00  0.00    +0.000 NA
ATOM     28  C   UNL     1       1.544   3.501  19.061  0.00  0.00    +0.000 C 
ATOM     29  C   UNL     1       2.226   2.169  19.309  0.00  0.00    +0.000 C 
ATOM     30  C   UNL     1       2.831   1.846  17.963  0.00  0.00    +0.000 C 
ATOM     31  C   UNL     1       3.038   3.202  17.295  0.00  0.00    +0.000 C 
ENDBRANCH  24  27
ENDBRANCH  20  21
ENDBRANCH  19  20
ENDBRANCH   2  19
TORSDOF 5
ENDMDL
