MODEL 1
REMARK VINA RESULT:      -7.7      0.000      0.000
REMARK  Name = 
REMARK  2 active torsions:
REMARK  status: ('A' for Active; 'I' for Inactive)
REMARK    1  A    between atoms: C_5  and  C_6
REMARK    2  A    between atoms: C_9  and  O_10
REMARK                            x       y       z     vdW  Elec       q    Type
REMARK                         _______ _______ _______ _____ _____    ______ ____
ROOT
ATOM      1  O   UNL     1       8.207   4.479  18.445  0.00  0.00    +0.000 OA
ATOM      2  S   UNL     1       7.180   5.390  17.997  0.00  0.00    +0.000 S 
ATOM      3  O   UNL     1       7.381   6.821  17.945  0.00  0.00    +0.000 OA
ATOM      4  N   UNL     1       5.817   5.132  18.912  0.00  0.00    +0.000 NA
ATOM      5  C   UNL     1       5.247   3.827  18.699  0.00  0.00    +0.000 C 
ATOM      6  N   UNL     1       4.656   3.821  17.373  0.00  0.00    +0.000 N 
ATOM      7  C   UNL     1       5.503   4.089  16.291  0.00  0.00    +0.000 A 
ATOM      8  C   UNL     1       5.104   3.722  15.001  0.00  0.00    +0.000 A 
ATOM      9  C   UNL     1       5.876   4.065  13.883  0.00  0.00    +0.000 A 
ATOM     10  C   UNL     1       7.039   4.816  14.040  0.00  0.00    +0.000 A 
ATOM     11 CL   UNL     1       7.967   5.258  12.662  0.00  0.00    +0.000 Cl
ATOM     12  C   UNL     1       7.444   5.222  15.302  0.00  0.00    +0.000 A 
ATOM     13  C   UNL     1       6.670   4.855  16.406  0.00  0.00    +0.000 A 
ATOM     14  H   UNL     1       5.146   5.888  18.823  0.00  0.00    +0.000 HD
ATOM     15  H   UNL     1       4.076   2.996  17.223  0.00  0.00    +0.000 HD
ENDROOT
BRANCH   5  16
ATOM     16  C   UNL     1       4.194   3.567  19.767  0.00  0.00    +0.000 A 
ATOM     17  C   UNL     1       4.170   2.378  20.520  0.00  0.00    +0.000 A 
ATOM     18  C   UNL     1       3.101   2.088  21.371  0.00  0.00    +0.000 A 
ATOM     19  C   UNL     1       2.050   2.989  21.478  0.00  0.00    +0.000 A 
ATOM     20  C   UNL     1       2.067   4.191  20.781  0.00  0.00    +0.000 A 
ATOM     21  C   UNL     1       3.130   4.475  19.922  0.00  0.00    +0.000 A 
BRANCH  19  22
ATOM     22  O   UNL     1       0.957   2.713  22.245  0.00  0.00    +0.000 OA
ATOM     23  H   UNL     1       1.249   2.220  23.029  0.00  0.00    +0.000 HD
ENDBRANCH  19  22
ENDBRANCH   5  16
TORSDOF 2
ENDMDL
MODEL 2
REMARK VINA RESULT:      -7.7      0.340      1.118
REMARK  Name = 
REMARK  2 active torsions:
REMARK  status: ('A' for Active; 'I' for Inactive)
REMARK    1  A    between atoms: C_5  and  C_6
REMARK    2  A    between atoms: C_9  and  O_10
REMARK                            x       y       z     vdW  Elec       q    Type
REMARK                         _______ _______ _______ _____ _____    ______ ____
ROOT
ATOM      1  O   UNL     1       7.933   4.464  18.437  0.00  0.00    +0.000 OA
ATOM      2  S   UNL     1       6.913   5.352  17.931  0.00  0.00    +0.000 S 
ATOM      3  O   UNL     1       7.064   6.790  17.937  0.00  0.00    +0.000 OA
ATOM      4  N   UNL     1       5.490   5.018  18.720  0.00  0.00    +0.000 NA
ATOM      5  C   UNL     1       4.988   3.701  18.422  0.00  0.00    +0.000 C 
ATOM      6  N   UNL     1       4.510   3.717  17.051  0.00  0.00    +0.000 N 
ATOM      7  C   UNL     1       5.434   4.050  16.053  0.00  0.00    +0.000 A 
ATOM      8  C   UNL     1       5.157   3.711  14.723  0.00  0.00    +0.000 A 
ATOM      9  C   UNL     1       6.005   4.115  13.685  0.00  0.00    +0.000 A 
ATOM     10  C   UNL     1       7.123   4.901  13.961  0.00  0.00    +0.000 A 
ATOM     11 CL   UNL     1       8.144   5.419  12.679  0.00  0.00    +0.000 Cl
ATOM     12  C   UNL     1       7.406   5.281  15.263  0.00  0.00    +0.000 A 
ATOM     13  C   UNL     1       6.557   4.851  16.287  0.00  0.00    +0.000 A 
ATOM     14  H   UNL     1       4.801   5.753  18.597  0.00  0.00    +0.000 HD
ATOM     15  H   UNL     1       3.976   2.879  16.829  0.00  0.00    +0.000 HD
ENDROOT
BRANCH   5  16
ATOM     16  C   UNL     1       3.861   3.371  19.389  0.00  0.00    +0.000 A 
ATOM     17  C   UNL     1       2.671   4.123  19.435  0.00  0.00    +0.000 A 
ATOM     18  C   UNL     1       1.726   3.909  20.441  0.00  0.00    +0.000 A 
ATOM     19  C   UNL     1       1.960   2.938  21.404  0.00  0.00    +0.000 A 
ATOM     20  C   UNL     1       3.104   2.149  21.358  0.00  0.00    +0.000 A 
ATOM     21  C   UNL     1       4.055   2.371  20.359  0.00  0.00    +0.000 A 
BRANCH  19  22
ATOM     22  O   UNL     1       1.095   2.745  22.440  0.00  0.00    +0.000 OA
ATOM     23  H   UNL     1       0.262   3.200  22.233  0.00  0.00    +0.000 HD
ENDBRANCH  19  22
ENDBRANCH   5  16
TORSDOF 2
ENDMDL
MODEL 3
REMARK VINA RESULT:      -7.3      3.430      6.815
REMARK  Name = 
REMARK  2 active torsions:
REMARK  status: ('A' for Active; 'I' for Inactive)
REMARK    1  A    between atoms: C_5  and  C_6
REMARK    2  A    between atoms: C_9  and  O_10
REMARK                            x       y       z     vdW  Elec       q    Type
REMARK                         _______ _______ _______ _____ _____    ______ ____
ROOT
ATOM      1  O   UNL     1       4.650   6.384  18.612  0.00  0.00    +0.000 OA
ATOM      2  S   UNL     1       5.226   5.073  18.800  0.00  0.00    +0.000 S 
ATOM      3  O   UNL     1       6.158   4.781  19.867  0.00  0.00    +0.000 OA
ATOM      4  N   UNL     1       5.964   4.617  17.383  0.00  0.00    +0.000 NA
ATOM      5  C   UNL     1       5.026   4.438  16.305  0.00  0.00    +0.000 C 
ATOM      6  N   UNL     1       4.266   3.233  16.583  0.00  0.00    +0.000 N 
ATOM      7  C   UNL     1       3.541   3.194  17.780  0.00  0.00    +0.000 A 
ATOM      8  C   UNL     1       2.507   2.262  17.924  0.00  0.00    +0.000 A 
ATOM      9  C   UNL     1       1.826   2.122  19.140  0.00  0.00    +0.000 A 
ATOM     10  C   UNL     1       2.200   2.889  20.243  0.00  0.00    +0.000 A 
ATOM     11 CL   UNL     1       1.380   2.693  21.741  0.00  0.00    +0.000 Cl
ATOM     12  C   UNL     1       3.242   3.797  20.141  0.00  0.00    +0.000 A 
ATOM     13  C   UNL     1       3.896   3.934  18.914  0.00  0.00    +0.000 A 
ATOM     14  H   UNL     1       6.590   3.830  17.512  0.00  0.00    +0.000 HD
ATOM     15  H   UNL     1       3.713   2.941  15.779  0.00  0.00    +0.000 HD
ENDROOT
BRANCH   5  16
ATOM     16  C   UNL     1       5.795   4.308  14.998  0.00  0.00    +0.000 A 
ATOM     17  C   UNL     1       7.001   4.998  14.768  0.00  0.00    +0.000 A 
ATOM     18  C   UNL     1       7.598   4.997  13.506  0.00  0.00    +0.000 A 
ATOM     19  C   UNL     1       6.997   4.302  12.465  0.00  0.00    +0.000 A 
ATOM     20  C   UNL     1       5.831   3.575  12.673  0.00  0.00    +0.000 A 
ATOM     21  C   UNL     1       5.227   3.586  13.932  0.00  0.00    +0.000 A 
BRANCH  19  22
ATOM     22  O   UNL     1       7.513   4.332  11.203  0.00  0.00    +0.000 OA
ATOM     23  H   UNL     1       6.925   3.826  10.619  0.00  0.00    +0.000 HD
ENDBRANCH  19  22
ENDBRANCH   5  16
TORSDOF 2
ENDMDL
MODEL 4
REMARK VINA RESULT:      -7.3      5.811      7.964
REMARK  Name = 
REMARK  2 active torsions:
REMARK  status: ('A' for Active; 'I' for Inactive)
REMARK    1  A    between atoms: C_5  and  C_6
REMARK    2  A    between atoms: C_9  and  O_10
REMARK                            x       y       z     vdW  Elec       q    Type
REMARK                         _______ _______ _______ _____ _____    ______ ____
ROOT
ATOM      1  O   UNL     1       0.236   9.501  17.481  0.00  0.00    +0.000 OA
ATOM      2  S   UNL     1       1.389   9.861  18.271  0.00  0.00    +0.000 S 
ATOM      3  O   UNL     1       2.052  11.139  18.138  0.00  0.00    +0.000 OA
ATOM      4  N   UNL     1       2.554   8.695  18.058  0.00  0.00    +0.000 NA
ATOM      5  C   UNL     1       2.155   7.414  18.582  0.00  0.00    +0.000 C 
ATOM      6  N   UNL     1       2.169   7.511  20.030  0.00  0.00    +0.000 N 
ATOM      7  C   UNL     1       1.344   8.478  20.616  0.00  0.00    +0.000 A 
ATOM      8  C   UNL     1       1.016   8.369  21.973  0.00  0.00    +0.000 A 
ATOM      9  C   UNL     1       0.278   9.368  22.619  0.00  0.00    +0.000 A 
ATOM     10  C   UNL     1      -0.107  10.513  21.924  0.00  0.00    +0.000 A 
ATOM     11 CL   UNL     1      -0.987  11.750  22.730  0.00  0.00    +0.000 Cl
ATOM     12  C   UNL     1       0.231  10.667  20.588  0.00  0.00    +0.000 A 
ATOM     13  C   UNL     1       0.951   9.649  19.957  0.00  0.00    +0.000 A 
ATOM     14  H   UNL     1       3.466   9.000  18.381  0.00  0.00    +0.000 HD
ATOM     15  H   UNL     1       2.077   6.597  20.470  0.00  0.00    +0.000 HD
ENDROOT
BRANCH   5  16
ATOM     16  C   UNL     1       3.136   6.355  18.097  0.00  0.00    +0.000 A 
ATOM     17  C   UNL     1       4.375   6.692  17.519  0.00  0.00    +0.000 A 
ATOM     18  C   UNL     1       5.181   5.716  16.929  0.00  0.00    +0.000 A 
ATOM     19  C   UNL     1       4.756   4.394  16.918  0.00  0.00    +0.000 A 
ATOM     20  C   UNL     1       3.559   4.025  17.520  0.00  0.00    +0.000 A 
ATOM     21  C   UNL     1       2.748   5.003  18.099  0.00  0.00    +0.000 A 
BRANCH  19  22
ATOM     22  O   UNL     1       5.482   3.423  16.294  0.00  0.00    +0.000 OA
ATOM     23  H   UNL     1       6.189   3.850  15.783  0.00  0.00    +0.000 HD
ENDBRANCH  19  22
ENDBRANCH   5  16
TORSDOF 2
ENDMDL
MODEL 5
REMARK VINA RESULT:      -7.2      5.891      8.038
REMARK  Name = 
REMARK  2 active torsions:
REMARK  status: ('A' for Active; 'I' for Inactive)
REMARK    1  A    between atoms: C_5  and  C_6
REMARK    2  A    between atoms: C_9  and  O_10
REMARK                            x       y       z     vdW  Elec       q    Type
REMARK                         _______ _______ _______ _____ _____    ______ ____
ROOT
ATOM      1  O   UNL     1       0.242   9.387  17.614  0.00  0.00    +0.000 OA
ATOM      2  S   UNL     1       1.310   9.871  18.457  0.00  0.00    +0.000 S 
ATOM      3  O   UNL     1       1.919  11.169  18.270  0.00  0.00    +0.000 OA
ATOM      4  N   UNL     1       2.542   8.757  18.432  0.00  0.00    +0.000 NA
ATOM      5  C   UNL     1       2.164   7.501  19.027  0.00  0.00    +0.000 C 
ATOM      6  N   UNL     1       2.056   7.713  20.460  0.00  0.00    +0.000 N 
ATOM      7  C   UNL     1       1.141   8.677  20.898  0.00  0.00    +0.000 A 
ATOM      8  C   UNL     1       0.710   8.657  22.230  0.00  0.00    +0.000 A 
ATOM      9  C   UNL     1      -0.124   9.663  22.733  0.00  0.00    +0.000 A 
ATOM     10  C   UNL     1      -0.507  10.727  21.918  0.00  0.00    +0.000 A 
ATOM     11 CL   UNL     1      -1.507  11.974  22.549  0.00  0.00    +0.000 Cl
ATOM     12  C   UNL     1      -0.070  10.793  20.604  0.00  0.00    +0.000 A 
ATOM     13  C   UNL     1       0.747   9.769  20.116  0.00  0.00    +0.000 A 
ATOM     14  H   UNL     1       3.410   9.135  18.797  0.00  0.00    +0.000 HD
ATOM     15  H   UNL     1       1.973   6.833  20.965  0.00  0.00    +0.000 HD
ENDROOT
BRANCH   5  16
ATOM     16  C   UNL     1       3.230   6.462  18.709  0.00  0.00    +0.000 A 
ATOM     17  C   UNL     1       3.518   5.395  19.581  0.00  0.00    +0.000 A 
ATOM     18  C   UNL     1       4.610   4.555  19.351  0.00  0.00    +0.000 A 
ATOM     19  C   UNL     1       5.420   4.774  18.244  0.00  0.00    +0.000 A 
ATOM     20  C   UNL     1       5.134   5.792  17.342  0.00  0.00    +0.000 A 
ATOM     21  C   UNL     1       4.049   6.638  17.578  0.00  0.00    +0.000 A 
BRANCH  19  22
ATOM     22  O   UNL     1       6.533   4.019  18.022  0.00  0.00    +0.000 OA
ATOM     23  H   UNL     1       6.272   3.084  18.006  0.00  0.00    +0.000 HD
ENDBRANCH  19  22
ENDBRANCH   5  16
TORSDOF 2
ENDMDL
MODEL 6
REMARK VINA RESULT:      -7.1      4.298      5.177
REMARK  Name = 
REMARK  2 active torsions:
REMARK  status: ('A' for Active; 'I' for Inactive)
REMARK    1  A    between atoms: C_5  and  C_6
REMARK    2  A    between atoms: C_9  and  O_10
REMARK                            x       y       z     vdW  Elec       q    Type
REMARK                         _______ _______ _______ _____ _____    ______ ____
ROOT
ATOM      1  O   UNL     1       1.603   4.181  18.628  0.00  0.00    +0.000 OA
ATOM      2  S   UNL     1       2.869   4.640  19.149  0.00  0.00    +0.000 S 
ATOM      3  O   UNL     1       3.717   3.807  19.971  0.00  0.00    +0.000 OA
ATOM      4  N   UNL     1       2.607   6.042  20.000  0.00  0.00    +0.000 NA
ATOM      5  C   UNL     1       2.158   7.123  19.160  0.00  0.00    +0.000 C 
ATOM      6  N   UNL     1       3.287   7.539  18.346  0.00  0.00    +0.000 N 
ATOM      7  C   UNL     1       3.867   6.574  17.514  0.00  0.00    +0.000 A 
ATOM      8  C   UNL     1       4.673   6.987  16.446  0.00  0.00    +0.000 A 
ATOM      9  C   UNL     1       5.353   6.053  15.654  0.00  0.00    +0.000 A 
ATOM     10  C   UNL     1       5.267   4.693  15.946  0.00  0.00    +0.000 A 
ATOM     11 CL   UNL     1       6.127   3.554  14.989  0.00  0.00    +0.000 Cl
ATOM     12  C   UNL     1       4.503   4.256  17.017  0.00  0.00    +0.000 A 
ATOM     13  C   UNL     1       3.818   5.202  17.784  0.00  0.00    +0.000 A 
ATOM     14  H   UNL     1       3.395   6.286  20.591  0.00  0.00    +0.000 HD
ATOM     15  H   UNL     1       3.099   8.415  17.861  0.00  0.00    +0.000 HD
ENDROOT
BRANCH   5  16
ATOM     16  C   UNL     1       1.672   8.265  20.042  0.00  0.00    +0.000 A 
ATOM     17  C   UNL     1       1.573   8.139  21.441  0.00  0.00    +0.000 A 
ATOM     18  C   UNL     1       0.967   9.135  22.209  0.00  0.00    +0.000 A 
ATOM     19  C   UNL     1       0.460  10.267  21.585  0.00  0.00    +0.000 A 
ATOM     20  C   UNL     1       0.583  10.439  20.211  0.00  0.00    +0.000 A 
ATOM     21  C   UNL     1       1.179   9.438  19.441  0.00  0.00    +0.000 A 
BRANCH  19  22
ATOM     22  O   UNL     1      -0.198  11.230  22.291  0.00  0.00    +0.000 OA
ATOM     23  H   UNL     1      -0.221  10.964  23.225  0.00  0.00    +0.000 HD
ENDBRANCH  19  22
ENDBRANCH   5  16
TORSDOF 2
ENDMDL
MODEL 7
REMARK VINA RESULT:      -7.1      3.694      6.871
REMARK  Name = 
REMARK  2 active torsions:
REMARK  status: ('A' for Active; 'I' for Inactive)
REMARK    1  A    between atoms: C_5  and  C_6
REMARK    2  A    between atoms: C_9  and  O_10
REMARK                            x       y       z     vdW  Elec       q    Type
REMARK                         _______ _______ _______ _____ _____    ______ ____
ROOT
ATOM      1  O   UNL     1       5.743   4.139  19.466  0.00  0.00    +0.000 OA
ATOM      2  S   UNL     1       4.531   3.975  18.698  0.00  0.00    +0.000 S 
ATOM      3  O   UNL     1       3.559   2.946  18.994  0.00  0.00    +0.000 OA
ATOM      4  N   UNL     1       4.945   3.795  17.100  0.00  0.00    +0.000 NA
ATOM      5  C   UNL     1       5.553   4.980  16.549  0.00  0.00    +0.000 C 
ATOM      6  N   UNL     1       4.511   5.984  16.421  0.00  0.00    +0.000 N 
ATOM      7  C   UNL     1       3.837   6.362  17.588  0.00  0.00    +0.000 A 
ATOM      8  C   UNL     1       3.122   7.565  17.607  0.00  0.00    +0.000 A 
ATOM      9  C   UNL     1       2.352   7.929  18.718  0.00  0.00    +0.000 A 
ATOM     10  C   UNL     1       2.255   7.071  19.812  0.00  0.00    +0.000 A 
ATOM     11 CL   UNL     1       1.285   7.509  21.162  0.00  0.00    +0.000 Cl
ATOM     12  C   UNL     1       2.924   5.857  19.810  0.00  0.00    +0.000 A 
ATOM     13  C   UNL     1       3.703   5.521  18.699  0.00  0.00    +0.000 A 
ATOM     14  H   UNL     1       4.178   3.435  16.542  0.00  0.00    +0.000 HD
ATOM     15  H   UNL     1       4.824   6.782  15.871  0.00  0.00    +0.000 HD
ENDROOT
BRANCH   5  16
ATOM     16  C   UNL     1       6.155   4.642  15.193  0.00  0.00    +0.000 A 
ATOM     17  C   UNL     1       7.333   5.255  14.724  0.00  0.00    +0.000 A 
ATOM     18  C   UNL     1       7.772   5.057  13.414  0.00  0.00    +0.000 A 
ATOM     19  C   UNL     1       7.039   4.240  12.563  0.00  0.00    +0.000 A 
ATOM     20  C   UNL     1       5.897   3.587  13.011  0.00  0.00    +0.000 A 
ATOM     21  C   UNL     1       5.452   3.794  14.318  0.00  0.00    +0.000 A 
BRANCH  19  22
ATOM     22  O   UNL     1       7.397   4.076  11.258  0.00  0.00    +0.000 OA
ATOM     23  H   UNL     1       6.589   4.002  10.724  0.00  0.00    +0.000 HD
ENDBRANCH  19  22
ENDBRANCH   5  16
TORSDOF 2
ENDMDL
MODEL 8
REMARK VINA RESULT:      -7.1      3.434      6.796
REMARK  Name = 
REMARK  2 active torsions:
REMARK  status: ('A' for Active; 'I' for Inactive)
REMARK    1  A    between atoms: C_5  and  C_6
REMARK    2  A    between atoms: C_9  and  O_10
REMARK                            x       y       z     vdW  Elec       q    Type
REMARK                         _______ _______ _______ _____ _____    ______ ____
ROOT
ATOM      1  O   UNL     1       4.602   6.400  18.654  0.00  0.00    +0.000 OA
ATOM      2  S   UNL     1       5.165   5.074  18.747  0.00  0.00    +0.000 S 
ATOM      3  O   UNL     1       6.157   4.720  19.738  0.00  0.00    +0.000 OA
ATOM      4  N   UNL     1       5.805   4.673  17.267  0.00  0.00    +0.000 NA
ATOM      5  C   UNL     1       4.799   4.557  16.243  0.00  0.00    +0.000 C 
ATOM      6  N   UNL     1       4.038   3.350  16.514  0.00  0.00    +0.000 N 
ATOM      7  C   UNL     1       3.388   3.267  17.752  0.00  0.00    +0.000 A 
ATOM      8  C   UNL     1       2.350   2.344  17.919  0.00  0.00    +0.000 A 
ATOM      9  C   UNL     1       1.744   2.158  19.168  0.00  0.00    +0.000 A 
ATOM     10  C   UNL     1       2.199   2.868  20.278  0.00  0.00    +0.000 A 
ATOM     11 CL   UNL     1       1.472   2.615  21.815  0.00  0.00    +0.000 Cl
ATOM     12  C   UNL     1       3.248   3.765  20.152  0.00  0.00    +0.000 A 
ATOM     13  C   UNL     1       3.826   3.949  18.893  0.00  0.00    +0.000 A 
ATOM     14  H   UNL     1       6.425   3.872  17.321  0.00  0.00    +0.000 HD
ATOM     15  H   UNL     1       3.431   3.104  15.734  0.00  0.00    +0.000 HD
ENDROOT
BRANCH   5  16
ATOM     16  C   UNL     1       5.483   4.476  14.885  0.00  0.00    +0.000 A 
ATOM     17  C   UNL     1       4.933   3.747  13.813  0.00  0.00    +0.000 A 
ATOM     18  C   UNL     1       5.656   3.547  12.636  0.00  0.00    +0.000 A 
ATOM     19  C   UNL     1       6.934   4.079  12.519  0.00  0.00    +0.000 A 
ATOM     20  C   UNL     1       7.485   4.840  13.543  0.00  0.00    +0.000 A 
ATOM     21  C   UNL     1       6.766   5.030  14.725  0.00  0.00    +0.000 A 
BRANCH  19  22
ATOM     22  O   UNL     1       7.698   3.848  11.414  0.00  0.00    +0.000 OA
ATOM     23  H   UNL     1       8.625   3.772  11.692  0.00  0.00    +0.000 HD
ENDBRANCH  19  22
ENDBRANCH   5  16
TORSDOF 2
ENDMDL
MODEL 9
REMARK VINA RESULT:      -7.0      4.361      5.292
REMARK  Name = 
REMARK  2 active torsions:
REMARK  status: ('A' for Active; 'I' for Inactive)
REMARK    1  A    between atoms: C_5  and  C_6
REMARK    2  A    between atoms: C_9  and  O_10
REMARK                            x       y       z     vdW  Elec       q    Type
REMARK                         _______ _______ _______ _____ _____    ______ ____
ROOT
ATOM      1  O   UNL     1       1.717   4.122  18.574  0.00  0.00    +0.000 OA
ATOM      2  S   UNL     1       2.938   4.686  19.097  0.00  0.00    +0.000 S 
ATOM      3  O   UNL     1       3.805   3.959  19.997  0.00  0.00    +0.000 OA
ATOM      4  N   UNL     1       2.572   6.124  19.844  0.00  0.00    +0.000 NA
ATOM      5  C   UNL     1       2.091   7.120  18.921  0.00  0.00    +0.000 C 
ATOM      6  N   UNL     1       3.220   7.545  18.113  0.00  0.00    +0.000 N 
ATOM      7  C   UNL     1       3.879   6.563  17.364  0.00  0.00    +0.000 A 
ATOM      8  C   UNL     1       4.694   6.950  16.294  0.00  0.00    +0.000 A 
ATOM      9  C   UNL     1       5.450   6.007  15.586  0.00  0.00    +0.000 A 
ATOM     10  C   UNL     1       5.430   4.666  15.967  0.00  0.00    +0.000 A 
ATOM     11 CL   UNL     1       6.381   3.518  15.112  0.00  0.00    +0.000 Cl
ATOM     12  C   UNL     1       4.658   4.257  17.043  0.00  0.00    +0.000 A 
ATOM     13  C   UNL     1       3.897   5.211  17.725  0.00  0.00    +0.000 A 
ATOM     14  H   UNL     1       3.326   6.451  20.439  0.00  0.00    +0.000 HD
ATOM     15  H   UNL     1       2.999   8.375  17.565  0.00  0.00    +0.000 HD
ENDROOT
BRANCH   5  16
ATOM     16  C   UNL     1       1.515   8.287  19.710  0.00  0.00    +0.000 A 
ATOM     17  C   UNL     1       1.206   9.520  19.103  0.00  0.00    +0.000 A 
ATOM     18  C   UNL     1       0.840  10.626  19.872  0.00  0.00    +0.000 A 
ATOM     19  C   UNL     1       0.774  10.507  21.254  0.00  0.00    +0.000 A 
ATOM     20  C   UNL     1       1.029   9.292  21.877  0.00  0.00    +0.000 A 
ATOM     21  C   UNL     1       1.407   8.188  21.109  0.00  0.00    +0.000 A 
BRANCH  19  22
ATOM     22  O   UNL     1       0.486  11.581  22.043  0.00  0.00    +0.000 OA
ATOM     23  H   UNL     1      -0.476  11.712  22.044  0.00  0.00    +0.000 HD
ENDBRANCH  19  22
ENDBRANCH   5  16
TORSDOF 2
ENDMDL
