MODEL 1
REMARK VINA RESULT:      -7.6      0.000      0.000
REMARK  Name = 
REMARK  3 active torsions:
REMARK  status: ('A' for Active; 'I' for Inactive)
REMARK    1  A    between atoms: C_5  and  C_6
REMARK    2  A    between atoms: N_8  and  C_9
REMARK    3  A    between atoms: C_17  and  C_18
REMARK                            x       y       z     vdW  Elec       q    Type
REMARK                         _______ _______ _______ _____ _____    ______ ____
ROOT
ATOM      1  C   UNL     1      -1.564  12.057  21.153  0.00  0.00    +0.000 A 
ATOM      2  N   UNL     1      -0.593  11.151  21.040  0.00  0.00    +0.000 NA
ATOM      3  N   UNL     1      -0.668  10.672  19.778  0.00  0.00    +0.000 N 
ATOM      4  C   UNL     1      -1.838  11.085  19.127  0.00  0.00    +0.000 A 
ATOM      5  C   UNL     1      -2.446  12.010  20.016  0.00  0.00    +0.000 A 
ATOM      6  C   UNL     1      -3.685  12.595  19.643  0.00  0.00    +0.000 A 
ATOM      7  N   UNL     1      -4.212  12.329  18.421  0.00  0.00    +0.000 NA
ATOM      8  C   UNL     1      -3.659  11.437  17.599  0.00  0.00    +0.000 A 
ATOM      9  C   UNL     1      -4.328  11.202  16.406  0.00  0.00    +0.000 A 
ATOM     10  C   UNL     1      -3.877  10.267  15.474  0.00  0.00    +0.000 A 
ATOM     11  C   UNL     1      -2.747   9.515  15.768  0.00  0.00    +0.000 A 
ATOM     12  C   UNL     1      -2.080   9.717  16.973  0.00  0.00    +0.000 A 
ATOM     13  C   UNL     1      -2.487  10.723  17.891  0.00  0.00    +0.000 A 
ENDROOT
BRANCH   1  18
ATOM     14 BR   UNL     1      -2.600  15.911  25.796  0.00  0.00    +0.000 Br
ATOM     15  C   UNL     1      -2.141  14.587  24.527  0.00  0.00    +0.000 A 
ATOM     16  C   UNL     1      -0.994  14.739  23.749  0.00  0.00    +0.000 A 
ATOM     17  C   UNL     1      -0.731  13.840  22.709  0.00  0.00    +0.000 A 
ATOM     18  C   UNL     1      -1.651  12.830  22.400  0.00  0.00    +0.000 A 
ATOM     19  C   UNL     1      -2.736  12.620  23.269  0.00  0.00    +0.000 A 
ATOM     20  C   UNL     1      -2.985  13.500  24.327  0.00  0.00    +0.000 A 
ENDBRANCH   1  18
BRANCH   3  21
ATOM     21  C   UNL     1       0.410   9.845  19.346  0.00  0.00    +0.000 A 
ATOM     22  C   UNL     1       0.867   8.828  20.208  0.00  0.00    +0.000 A 
ATOM     23  C   UNL     1       1.886   7.963  19.806  0.00  0.00    +0.000 A 
ATOM     24  C   UNL     1       2.473   8.117  18.554  0.00  0.00    +0.000 A 
ATOM     25  C   UNL     1       2.069   9.159  17.719  0.00  0.00    +0.000 A 
ATOM     26  C   UNL     1       1.056  10.038  18.124  0.00  0.00    +0.000 A 
ENDBRANCH   3  21
BRANCH   6  27
ATOM     27  C   UNL     1      -4.511  13.505  20.460  0.00  0.00    +0.000 A 
ATOM     28  C   UNL     1      -4.085  14.828  20.695  0.00  0.00    +0.000 A 
ATOM     29  C   UNL     1      -4.792  15.689  21.540  0.00  0.00    +0.000 A 
ATOM     30  C   UNL     1      -5.944  15.243  22.177  0.00  0.00    +0.000 A 
ATOM     31  C   UNL     1      -6.433  13.974  21.893  0.00  0.00    +0.000 A 
ATOM     32  C   UNL     1      -5.748  13.135  21.003  0.00  0.00    +0.000 A 
ENDBRANCH   6  27
TORSDOF 3
ENDMDL
MODEL 2
REMARK VINA RESULT:      -7.2      2.659      4.921
REMARK  Name = 
REMARK  3 active torsions:
REMARK  status: ('A' for Active; 'I' for Inactive)
REMARK    1  A    between atoms: C_5  and  C_6
REMARK    2  A    between atoms: N_8  and  C_9
REMARK    3  A    between atoms: C_17  and  C_18
REMARK                            x       y       z     vdW  Elec       q    Type
REMARK                         _______ _______ _______ _____ _____    ______ ____
ROOT
ATOM      1  C   UNL     1      -1.881  12.560  21.953  0.00  0.00    +0.000 A 
ATOM      2  N   UNL     1      -1.517  11.610  21.094  0.00  0.00    +0.000 NA
ATOM      3  N   UNL     1      -0.200  11.802  20.855  0.00  0.00    +0.000 N 
ATOM      4  C   UNL     1       0.256  13.022  21.369  0.00  0.00    +0.000 A 
ATOM      5  C   UNL     1      -0.839  13.541  22.109  0.00  0.00    +0.000 A 
ATOM      6  C   UNL     1      -0.694  14.805  22.740  0.00  0.00    +0.000 A 
ATOM      7  N   UNL     1       0.504  15.442  22.700  0.00  0.00    +0.000 NA
ATOM      8  C   UNL     1       1.523  14.972  21.981  0.00  0.00    +0.000 A 
ATOM      9  C   UNL     1       2.673  15.747  21.963  0.00  0.00    +0.000 A 
ATOM     10  C   UNL     1       3.799  15.389  21.221  0.00  0.00    +0.000 A 
ATOM     11  C   UNL     1       3.751  14.243  20.438  0.00  0.00    +0.000 A 
ATOM     12  C   UNL     1       2.595  13.468  20.420  0.00  0.00    +0.000 A 
ATOM     13  C   UNL     1       1.475  13.783  21.236  0.00  0.00    +0.000 A 
ENDROOT
BRANCH   1  18
ATOM     14 BR   UNL     1      -7.508  13.503  24.175  0.00  0.00    +0.000 Br
ATOM     15  C   UNL     1      -5.833  12.966  23.483  0.00  0.00    +0.000 A 
ATOM     16  C   UNL     1      -4.795  12.639  24.354  0.00  0.00    +0.000 A 
ATOM     17  C   UNL     1      -3.514  12.386  23.851  0.00  0.00    +0.000 A 
ATOM     18  C   UNL     1      -3.252  12.529  22.482  0.00  0.00    +0.000 A 
ATOM     19  C   UNL     1      -4.334  12.740  21.610  0.00  0.00    +0.000 A 
ATOM     20  C   UNL     1      -5.622  12.964  22.109  0.00  0.00    +0.000 A 
ENDBRANCH   1  18
BRANCH   3  21
ATOM     21  C   UNL     1       0.473  10.773  20.132  0.00  0.00    +0.000 A 
ATOM     22  C   UNL     1       0.890   9.622  20.828  0.00  0.00    +0.000 A 
ATOM     23  C   UNL     1       1.507   8.568  20.151  0.00  0.00    +0.000 A 
ATOM     24  C   UNL     1       1.733   8.663  18.782  0.00  0.00    +0.000 A 
ATOM     25  C   UNL     1       1.378   9.824  18.095  0.00  0.00    +0.000 A 
ATOM     26  C   UNL     1       0.771  10.889  18.773  0.00  0.00    +0.000 A 
ENDBRANCH   3  21
BRANCH   6  27
ATOM     27  C   UNL     1      -1.736  15.547  23.477  0.00  0.00    +0.000 A 
ATOM     28  C   UNL     1      -1.637  15.706  24.874  0.00  0.00    +0.000 A 
ATOM     29  C   UNL     1      -2.651  16.320  25.617  0.00  0.00    +0.000 A 
ATOM     30  C   UNL     1      -3.794  16.786  24.978  0.00  0.00    +0.000 A 
ATOM     31  C   UNL     1      -3.875  16.721  23.593  0.00  0.00    +0.000 A 
ATOM     32  C   UNL     1      -2.832  16.153  22.849  0.00  0.00    +0.000 A 
ENDBRANCH   6  27
TORSDOF 3
ENDMDL
MODEL 3
REMARK VINA RESULT:      -6.9      4.847      7.964
REMARK  Name = 
REMARK  3 active torsions:
REMARK  status: ('A' for Active; 'I' for Inactive)
REMARK    1  A    between atoms: C_5  and  C_6
REMARK    2  A    between atoms: N_8  and  C_9
REMARK    3  A    between atoms: C_17  and  C_18
REMARK                            x       y       z     vdW  Elec       q    Type
REMARK                         _______ _______ _______ _____ _____    ______ ____
ROOT
ATOM      1  C   UNL     1       2.534   7.963  18.298  0.00  0.00    +0.000 A 
ATOM      2  N   UNL     1       3.432   7.573  17.394  0.00  0.00    +0.000 NA
ATOM      3  N   UNL     1       3.674   6.267  17.641  0.00  0.00    +0.000 N 
ATOM      4  C   UNL     1       3.120   5.849  18.858  0.00  0.00    +0.000 A 
ATOM      5  C   UNL     1       2.352   6.955  19.310  0.00  0.00    +0.000 A 
ATOM      6  C   UNL     1       1.676   6.849  20.554  0.00  0.00    +0.000 A 
ATOM      7  N   UNL     1       1.703   5.675  21.235  0.00  0.00    +0.000 NA
ATOM      8  C   UNL     1       2.449   4.646  20.828  0.00  0.00    +0.000 A 
ATOM      9  C   UNL     1       2.448   3.525  21.644  0.00  0.00    +0.000 A 
ATOM     10  C   UNL     1       3.212   2.395  21.354  0.00  0.00    +0.000 A 
ATOM     11  C   UNL     1       4.036   2.409  20.236  0.00  0.00    +0.000 A 
ATOM     12  C   UNL     1       4.072   3.538  19.422  0.00  0.00    +0.000 A 
ATOM     13  C   UNL     1       3.236   4.660  19.666  0.00  0.00    +0.000 A 
ENDROOT
BRANCH   1  18
ATOM     14 BR   UNL     1       0.559  13.724  18.922  0.00  0.00    +0.000 Br
ATOM     15  C   UNL     1       1.108  11.970  18.484  0.00  0.00    +0.000 A 
ATOM     16  C   UNL     1       0.197  10.917  18.565  0.00  0.00    +0.000 A 
ATOM     17  C   UNL     1       0.634   9.599  18.387  0.00  0.00    +0.000 A 
ATOM     18  C   UNL     1       1.995   9.326  18.198  0.00  0.00    +0.000 A 
ATOM     19  C   UNL     1       2.875  10.404  17.999  0.00  0.00    +0.000 A 
ATOM     20  C   UNL     1       2.434  11.724  18.147  0.00  0.00    +0.000 A 
ENDBRANCH   1  18
BRANCH   3  21
ATOM     21  C   UNL     1       4.441   5.565  16.664  0.00  0.00    +0.000 A 
ATOM     22  C   UNL     1       5.235   6.309  15.769  0.00  0.00    +0.000 A 
ATOM     23  C   UNL     1       6.040   5.662  14.830  0.00  0.00    +0.000 A 
ATOM     24  C   UNL     1       6.042   4.272  14.759  0.00  0.00    +0.000 A 
ATOM     25  C   UNL     1       5.213   3.530  15.600  0.00  0.00    +0.000 A 
ATOM     26  C   UNL     1       4.393   4.176  16.535  0.00  0.00    +0.000 A 
ENDBRANCH   3  21
BRANCH   6  27
ATOM     27  C   UNL     1       0.904   7.909  21.231  0.00  0.00    +0.000 A 
ATOM     28  C   UNL     1       1.572   8.988  21.844  0.00  0.00    +0.000 A 
ATOM     29  C   UNL     1       0.880   9.960  22.576  0.00  0.00    +0.000 A 
ATOM     30  C   UNL     1      -0.499   9.870  22.716  0.00  0.00    +0.000 A 
ATOM     31  C   UNL     1      -1.189   8.866  22.048  0.00  0.00    +0.000 A 
ATOM     32  C   UNL     1      -0.496   7.927  21.273  0.00  0.00    +0.000 A 
ENDBRANCH   6  27
TORSDOF 3
ENDMDL
MODEL 4
REMARK VINA RESULT:      -6.9      2.625      4.224
REMARK  Name = 
REMARK  3 active torsions:
REMARK  status: ('A' for Active; 'I' for Inactive)
REMARK    1  A    between atoms: C_5  and  C_6
REMARK    2  A    between atoms: N_8  and  C_9
REMARK    3  A    between atoms: C_17  and  C_18
REMARK                            x       y       z     vdW  Elec       q    Type
REMARK                         _______ _______ _______ _____ _____    ______ ____
ROOT
ATOM      1  C   UNL     1      -1.672  12.399  20.986  0.00  0.00    +0.000 A 
ATOM      2  N   UNL     1      -1.289  11.213  20.516  0.00  0.00    +0.000 NA
ATOM      3  N   UNL     1      -0.045  11.387  20.017  0.00  0.00    +0.000 N 
ATOM      4  C   UNL     1       0.305  12.741  19.938  0.00  0.00    +0.000 A 
ATOM      5  C   UNL     1      -0.755  13.433  20.581  0.00  0.00    +0.000 A 
ATOM      6  C   UNL     1      -0.703  14.851  20.641  0.00  0.00    +0.000 A 
ATOM      7  N   UNL     1       0.389  15.503  20.168  0.00  0.00    +0.000 NA
ATOM      8  C   UNL     1       1.370  14.858  19.535  0.00  0.00    +0.000 A 
ATOM      9  C   UNL     1       2.400  15.642  19.036  0.00  0.00    +0.000 A 
ATOM     10  C   UNL     1       3.468  15.098  18.323  0.00  0.00    +0.000 A 
ATOM     11  C   UNL     1       3.480  13.734  18.065  0.00  0.00    +0.000 A 
ATOM     12  C   UNL     1       2.439  12.936  18.533  0.00  0.00    +0.000 A 
ATOM     13  C   UNL     1       1.390  13.470  19.328  0.00  0.00    +0.000 A 
ENDROOT
BRANCH   1  18
ATOM     14 BR   UNL     1      -6.840  13.813  23.948  0.00  0.00    +0.000 Br
ATOM     15  C   UNL     1      -5.329  13.137  23.036  0.00  0.00    +0.000 A 
ATOM     16  C   UNL     1      -4.216  12.709  23.759  0.00  0.00    +0.000 A 
ATOM     17  C   UNL     1      -3.042  12.349  23.087  0.00  0.00    +0.000 A 
ATOM     18  C   UNL     1      -2.956  12.484  21.695  0.00  0.00    +0.000 A 
ATOM     19  C   UNL     1      -4.123  12.799  20.977  0.00  0.00    +0.000 A 
ATOM     20  C   UNL     1      -5.306  13.131  21.646  0.00  0.00    +0.000 A 
ENDBRANCH   1  18
BRANCH   3  21
ATOM     21  C   UNL     1       0.666  10.206  19.653  0.00  0.00    +0.000 A 
ATOM     22  C   UNL     1       0.961   9.989  18.293  0.00  0.00    +0.000 A 
ATOM     23  C   UNL     1       1.700   8.872  17.897  0.00  0.00    +0.000 A 
ATOM     24  C   UNL     1       2.129   7.953  18.848  0.00  0.00    +0.000 A 
ATOM     25  C   UNL     1       1.790   8.128  20.190  0.00  0.00    +0.000 A 
ATOM     26  C   UNL     1       1.037   9.240  20.590  0.00  0.00    +0.000 A 
ENDBRANCH   3  21
BRANCH   6  27
ATOM     27  C   UNL     1      -1.740  15.749  21.187  0.00  0.00    +0.000 A 
ATOM     28  C   UNL     1      -1.919  15.858  22.580  0.00  0.00    +0.000 A 
ATOM     29  C   UNL     1      -2.952  16.625  23.131  0.00  0.00    +0.000 A 
ATOM     30  C   UNL     1      -3.835  17.298  22.296  0.00  0.00    +0.000 A 
ATOM     31  C   UNL     1      -3.626  17.278  20.923  0.00  0.00    +0.000 A 
ATOM     32  C   UNL     1      -2.557  16.551  20.380  0.00  0.00    +0.000 A 
ENDBRANCH   6  27
TORSDOF 3
ENDMDL
MODEL 5
REMARK VINA RESULT:      -6.7      3.187      4.365
REMARK  Name = 
REMARK  3 active torsions:
REMARK  status: ('A' for Active; 'I' for Inactive)
REMARK    1  A    between atoms: C_5  and  C_6
REMARK    2  A    between atoms: N_8  and  C_9
REMARK    3  A    between atoms: C_17  and  C_18
REMARK                            x       y       z     vdW  Elec       q    Type
REMARK                         _______ _______ _______ _____ _____    ______ ____
ROOT
ATOM      1  C   UNL     1      -0.196  14.955  21.453  0.00  0.00    +0.000 A 
ATOM      2  N   UNL     1       1.018  15.380  21.108  0.00  0.00    +0.000 NA
ATOM      3  N   UNL     1       1.472  14.512  20.177  0.00  0.00    +0.000 N 
ATOM      4  C   UNL     1       0.660  13.376  20.077  0.00  0.00    +0.000 A 
ATOM      5  C   UNL     1      -0.457  13.649  20.908  0.00  0.00    +0.000 A 
ATOM      6  C   UNL     1      -1.465  12.656  21.039  0.00  0.00    +0.000 A 
ATOM      7  N   UNL     1      -1.385  11.518  20.305  0.00  0.00    +0.000 NA
ATOM      8  C   UNL     1      -0.321  11.246  19.548  0.00  0.00    +0.000 A 
ATOM      9  C   UNL     1      -0.325  10.020  18.899  0.00  0.00    +0.000 A 
ATOM     10  C   UNL     1       0.742   9.596  18.106  0.00  0.00    +0.000 A 
ATOM     11  C   UNL     1       1.863  10.408  17.999  0.00  0.00    +0.000 A 
ATOM     12  C   UNL     1       1.897  11.629  18.667  0.00  0.00    +0.000 A 
ATOM     13  C   UNL     1       0.782  12.102  19.410  0.00  0.00    +0.000 A 
ENDROOT
BRANCH   1  18
ATOM     14 BR   UNL     1      -4.236  17.642  25.187  0.00  0.00    +0.000 Br
ATOM     15  C   UNL     1      -2.829  16.998  24.102  0.00  0.00    +0.000 A 
ATOM     16  C   UNL     1      -2.713  17.436  22.783  0.00  0.00    +0.000 A 
ATOM     17  C   UNL     1      -1.767  16.852  21.934  0.00  0.00    +0.000 A 
ATOM     18  C   UNL     1      -0.983  15.780  22.381  0.00  0.00    +0.000 A 
ATOM     19  C   UNL     1      -1.030  15.436  23.743  0.00  0.00    +0.000 A 
ATOM     20  C   UNL     1      -1.954  16.039  24.601  0.00  0.00    +0.000 A 
ENDBRANCH   1  18
BRANCH   3  21
ATOM     21  C   UNL     1       2.668  14.881  19.492  0.00  0.00    +0.000 A 
ATOM     22  C   UNL     1       3.887  14.847  20.197  0.00  0.00    +0.000 A 
ATOM     23  C   UNL     1       5.087  15.151  19.552  0.00  0.00    +0.000 A 
ATOM     24  C   UNL     1       5.080  15.513  18.208  0.00  0.00    +0.000 A 
ATOM     25  C   UNL     1       3.871  15.608  17.519  0.00  0.00    +0.000 A 
ATOM     26  C   UNL     1       2.663  15.317  18.166  0.00  0.00    +0.000 A 
ENDBRANCH   3  21
BRANCH   6  27
ATOM     27  C   UNL     1      -2.652  12.715  21.915  0.00  0.00    +0.000 A 
ATOM     28  C   UNL     1      -3.827  13.354  21.472  0.00  0.00    +0.000 A 
ATOM     29  C   UNL     1      -4.938  13.513  22.309  0.00  0.00    +0.000 A 
ATOM     30  C   UNL     1      -4.895  13.037  23.614  0.00  0.00    +0.000 A 
ATOM     31  C   UNL     1      -3.782  12.325  24.045  0.00  0.00    +0.000 A 
ATOM     32  C   UNL     1      -2.694  12.124  23.185  0.00  0.00    +0.000 A 
ENDBRANCH   6  27
TORSDOF 3
ENDMDL
MODEL 6
REMARK VINA RESULT:      -6.6      2.452      4.446
REMARK  Name = 
REMARK  3 active torsions:
REMARK  status: ('A' for Active; 'I' for Inactive)
REMARK    1  A    between atoms: C_5  and  C_6
REMARK    2  A    between atoms: N_8  and  C_9
REMARK    3  A    between atoms: C_17  and  C_18
REMARK                            x       y       z     vdW  Elec       q    Type
REMARK                         _______ _______ _______ _____ _____    ______ ____
ROOT
ATOM      1  C   UNL     1      -2.053  13.756  20.458  0.00  0.00    +0.000 A 
ATOM      2  N   UNL     1      -1.784  12.876  19.495  0.00  0.00    +0.000 NA
ATOM      3  N   UNL     1      -2.953  12.261  19.208  0.00  0.00    +0.000 N 
ATOM      4  C   UNL     1      -3.950  12.562  20.143  0.00  0.00    +0.000 A 
ATOM      5  C   UNL     1      -3.380  13.558  20.980  0.00  0.00    +0.000 A 
ATOM      6  C   UNL     1      -4.151  14.059  22.062  0.00  0.00    +0.000 A 
ATOM      7  N   UNL     1      -5.435  13.647  22.219  0.00  0.00    +0.000 NA
ATOM      8  C   UNL     1      -5.961  12.689  21.455  0.00  0.00    +0.000 A 
ATOM      9  C   UNL     1      -7.260  12.305  21.756  0.00  0.00    +0.000 A 
ATOM     10  C   UNL     1      -7.915  11.290  21.059  0.00  0.00    +0.000 A 
ATOM     11  C   UNL     1      -7.230  10.611  20.059  0.00  0.00    +0.000 A 
ATOM     12  C   UNL     1      -5.916  10.963  19.763  0.00  0.00    +0.000 A 
ATOM     13  C   UNL     1      -5.271  12.049  20.414  0.00  0.00    +0.000 A 
ENDROOT
BRANCH   1  18
ATOM     14 BR   UNL     1       1.655  18.006  22.840  0.00  0.00    +0.000 Br
ATOM     15  C   UNL     1       0.719  16.594  22.003  0.00  0.00    +0.000 A 
ATOM     16  C   UNL     1       0.220  16.761  20.711  0.00  0.00    +0.000 A 
ATOM     17  C   UNL     1      -0.599  15.776  20.146  0.00  0.00    +0.000 A 
ATOM     18  C   UNL     1      -0.977  14.656  20.897  0.00  0.00    +0.000 A 
ATOM     19  C   UNL     1      -0.368  14.448  22.146  0.00  0.00    +0.000 A 
ATOM     20  C   UNL     1       0.474  15.417  22.701  0.00  0.00    +0.000 A 
ENDBRANCH   1  18
BRANCH   3  21
ATOM     21  C   UNL     1      -2.966  11.427  18.051  0.00  0.00    +0.000 A 
ATOM     22  C   UNL     1      -3.989  11.610  17.100  0.00  0.00    +0.000 A 
ATOM     23  C   UNL     1      -4.012  10.851  15.928  0.00  0.00    +0.000 A 
ATOM     24  C   UNL     1      -3.031   9.888  15.707  0.00  0.00    +0.000 A 
ATOM     25  C   UNL     1      -2.050   9.658  16.672  0.00  0.00    +0.000 A 
ATOM     26  C   UNL     1      -2.031  10.409  17.854  0.00  0.00    +0.000 A 
ENDBRANCH   3  21
BRANCH   6  27
ATOM     27  C   UNL     1      -3.710  15.026  23.086  0.00  0.00    +0.000 A 
ATOM     28  C   UNL     1      -3.540  16.384  22.751  0.00  0.00    +0.000 A 
ATOM     29  C   UNL     1      -3.033  17.310  23.669  0.00  0.00    +0.000 A 
ATOM     30  C   UNL     1      -2.677  16.896  24.946  0.00  0.00    +0.000 A 
ATOM     31  C   UNL     1      -2.918  15.582  25.329  0.00  0.00    +0.000 A 
ATOM     32  C   UNL     1      -3.476  14.671  24.421  0.00  0.00    +0.000 A 
ENDBRANCH   6  27
TORSDOF 3
ENDMDL
MODEL 7
REMARK VINA RESULT:      -6.5      1.443      1.926
REMARK  Name = 
REMARK  3 active torsions:
REMARK  status: ('A' for Active; 'I' for Inactive)
REMARK    1  A    between atoms: C_5  and  C_6
REMARK    2  A    between atoms: N_8  and  C_9
REMARK    3  A    between atoms: C_17  and  C_18
REMARK                            x       y       z     vdW  Elec       q    Type
REMARK                         _______ _______ _______ _____ _____    ______ ____
ROOT
ATOM      1  C   UNL     1      -1.134  13.559  21.701  0.00  0.00    +0.000 A 
ATOM      2  N   UNL     1      -0.148  12.752  21.312  0.00  0.00    +0.000 NA
ATOM      3  N   UNL     1      -0.578  12.144  20.185  0.00  0.00    +0.000 N 
ATOM      4  C   UNL     1      -1.942  12.365  19.956  0.00  0.00    +0.000 A 
ATOM      5  C   UNL     1      -2.333  13.307  20.944  0.00  0.00    +0.000 A 
ATOM      6  C   UNL     1      -3.691  13.720  20.990  0.00  0.00    +0.000 A 
ATOM      7  N   UNL     1      -4.559  13.280  20.043  0.00  0.00    +0.000 NA
ATOM      8  C   UNL     1      -4.202  12.371  19.134  0.00  0.00    +0.000 A 
ATOM      9  C   UNL     1      -5.195  11.949  18.263  0.00  0.00    +0.000 A 
ATOM     10  C   UNL     1      -4.965  10.978  17.289  0.00  0.00    +0.000 A 
ATOM     11  C   UNL     1      -3.714  10.380  17.218  0.00  0.00    +0.000 A 
ATOM     12  C   UNL     1      -2.713  10.770  18.104  0.00  0.00    +0.000 A 
ATOM     13  C   UNL     1      -2.916  11.816  19.044  0.00  0.00    +0.000 A 
ENDROOT
BRANCH   1  18
ATOM     14 BR   UNL     1      -1.082  17.689  26.220  0.00  0.00    +0.000 Br
ATOM     15  C   UNL     1      -0.887  16.322  24.930  0.00  0.00    +0.000 A 
ATOM     16  C   UNL     1      -0.154  16.563  23.768  0.00  0.00    +0.000 A 
ATOM     17  C   UNL     1      -0.131  15.607  22.745  0.00  0.00    +0.000 A 
ATOM     18  C   UNL     1      -0.898  14.440  22.853  0.00  0.00    +0.000 A 
ATOM     19  C   UNL     1      -1.530  14.162  24.077  0.00  0.00    +0.000 A 
ATOM     20  C   UNL     1      -1.530  15.102  25.112  0.00  0.00    +0.000 A 
ENDBRANCH   1  18
BRANCH   3  21
ATOM     21  C   UNL     1       0.391  11.393  19.456  0.00  0.00    +0.000 A 
ATOM     22  C   UNL     1       0.357   9.988  19.540  0.00  0.00    +0.000 A 
ATOM     23  C   UNL     1       1.255   9.212  18.804  0.00  0.00    +0.000 A 
ATOM     24  C   UNL     1       2.206   9.830  17.998  0.00  0.00    +0.000 A 
ATOM     25  C   UNL     1       2.285  11.222  17.956  0.00  0.00    +0.000 A 
ATOM     26  C   UNL     1       1.396  12.004  18.704  0.00  0.00    +0.000 A 
ENDBRANCH   3  21
BRANCH   6  27
ATOM     27  C   UNL     1      -4.307  14.617  21.987  0.00  0.00    +0.000 A 
ATOM     28  C   UNL     1      -4.005  15.994  21.980  0.00  0.00    +0.000 A 
ATOM     29  C   UNL     1      -4.494  16.858  22.966  0.00  0.00    +0.000 A 
ATOM     30  C   UNL     1      -5.294  16.361  23.988  0.00  0.00    +0.000 A 
ATOM     31  C   UNL     1      -5.678  15.026  23.966  0.00  0.00    +0.000 A 
ATOM     32  C   UNL     1      -5.228  14.177  22.946  0.00  0.00    +0.000 A 
ENDBRANCH   6  27
TORSDOF 3
ENDMDL
MODEL 8
REMARK VINA RESULT:      -6.5      2.672      4.162
REMARK  Name = 
REMARK  3 active torsions:
REMARK  status: ('A' for Active; 'I' for Inactive)
REMARK    1  A    between atoms: C_5  and  C_6
REMARK    2  A    between atoms: N_8  and  C_9
REMARK    3  A    between atoms: C_17  and  C_18
REMARK                            x       y       z     vdW  Elec       q    Type
REMARK                         _______ _______ _______ _____ _____    ______ ____
ROOT
ATOM      1  C   UNL     1      -1.977  12.580  21.113  0.00  0.00    +0.000 A 
ATOM      2  N   UNL     1      -1.551  11.425  20.602  0.00  0.00    +0.000 NA
ATOM      3  N   UNL     1      -0.321  11.666  20.096  0.00  0.00    +0.000 N 
ATOM      4  C   UNL     1      -0.027  13.035  20.058  0.00  0.00    +0.000 A 
ATOM      5  C   UNL     1      -1.107  13.662  20.733  0.00  0.00    +0.000 A 
ATOM      6  C   UNL     1      -1.112  15.078  20.838  0.00  0.00    +0.000 A 
ATOM      7  N   UNL     1      -0.053  15.790  20.376  0.00  0.00    +0.000 NA
ATOM      8  C   UNL     1       0.947  15.206  19.714  0.00  0.00    +0.000 A 
ATOM      9  C   UNL     1       1.939  16.047  19.230  0.00  0.00    +0.000 A 
ATOM     10  C   UNL     1       3.020  15.571  18.490  0.00  0.00    +0.000 A 
ATOM     11  C   UNL     1       3.084  14.217  18.187  0.00  0.00    +0.000 A 
ATOM     12  C   UNL     1       2.082  13.362  18.639  0.00  0.00    +0.000 A 
ATOM     13  C   UNL     1       1.021  13.828  19.462  0.00  0.00    +0.000 A 
ENDROOT
BRANCH   1  18
ATOM     14 BR   UNL     1      -7.252  13.687  24.017  0.00  0.00    +0.000 Br
ATOM     15  C   UNL     1      -5.678  13.099  23.151  0.00  0.00    +0.000 A 
ATOM     16  C   UNL     1      -4.516  12.888  23.891  0.00  0.00    +0.000 A 
ATOM     17  C   UNL     1      -3.313  12.599  23.236  0.00  0.00    +0.000 A 
ATOM     18  C   UNL     1      -3.256  12.588  21.837  0.00  0.00    +0.000 A 
ATOM     19  C   UNL     1      -4.458  12.683  21.115  0.00  0.00    +0.000 A 
ATOM     20  C   UNL     1      -5.666  12.943  21.769  0.00  0.00    +0.000 A 
ENDBRANCH   1  18
BRANCH   3  21
ATOM     21  C   UNL     1       0.434  10.528  19.688  0.00  0.00    +0.000 A 
ATOM     22  C   UNL     1       0.863   9.615  20.672  0.00  0.00    +0.000 A 
ATOM     23  C   UNL     1       1.561   8.461  20.312  0.00  0.00    +0.000 A 
ATOM     24  C   UNL     1       1.858   8.219  18.974  0.00  0.00    +0.000 A 
ATOM     25  C   UNL     1       1.490   9.147  18.000  0.00  0.00    +0.000 A 
ATOM     26  C   UNL     1       0.801  10.313  18.358  0.00  0.00    +0.000 A 
ENDBRANCH   3  21
BRANCH   6  27
ATOM     27  C   UNL     1      -2.178  15.915  21.422  0.00  0.00    +0.000 A 
ATOM     28  C   UNL     1      -3.354  16.176  20.690  0.00  0.00    +0.000 A 
ATOM     29  C   UNL     1      -4.343  17.041  21.171  0.00  0.00    +0.000 A 
ATOM     30  C   UNL     1      -4.176  17.671  22.397  0.00  0.00    +0.000 A 
ATOM     31  C   UNL     1      -3.068  17.362  23.178  0.00  0.00    +0.000 A 
ATOM     32  C   UNL     1      -2.107  16.454  22.713  0.00  0.00    +0.000 A 
ENDBRANCH   6  27
TORSDOF 3
ENDMDL
MODEL 9
REMARK VINA RESULT:      -6.5      3.301      7.752
REMARK  Name = 
REMARK  3 active torsions:
REMARK  status: ('A' for Active; 'I' for Inactive)
REMARK    1  A    between atoms: C_5  and  C_6
REMARK    2  A    between atoms: N_8  and  C_9
REMARK    3  A    between atoms: C_17  and  C_18
REMARK                            x       y       z     vdW  Elec       q    Type
REMARK                         _______ _______ _______ _____ _____    ______ ____
ROOT
ATOM      1  C   UNL     1      -2.150  12.624  20.936  0.00  0.00    +0.000 A 
ATOM      2  N   UNL     1      -3.295  12.264  21.514  0.00  0.00    +0.000 NA
ATOM      3  N   UNL     1      -3.885  13.408  21.930  0.00  0.00    +0.000 N 
ATOM      4  C   UNL     1      -3.021  14.507  21.842  0.00  0.00    +0.000 A 
ATOM      5  C   UNL     1      -1.866  14.015  21.179  0.00  0.00    +0.000 A 
ATOM      6  C   UNL     1      -0.779  14.901  20.960  0.00  0.00    +0.000 A 
ATOM      7  N   UNL     1      -0.899  16.209  21.304  0.00  0.00    +0.000 NA
ATOM      8  C   UNL     1      -1.970  16.666  21.955  0.00  0.00    +0.000 A 
ATOM      9  C   UNL     1      -1.947  18.006  22.313  0.00  0.00    +0.000 A 
ATOM     10  C   UNL     1      -2.986  18.601  23.028  0.00  0.00    +0.000 A 
ATOM     11  C   UNL     1      -4.058  17.818  23.434  0.00  0.00    +0.000 A 
ATOM     12  C   UNL     1      -4.084  16.464  23.109  0.00  0.00    +0.000 A 
ATOM     13  C   UNL     1      -3.069  15.870  22.312  0.00  0.00    +0.000 A 
ENDROOT
BRANCH   1  18
ATOM     14 BR   UNL     1       1.861   9.095  17.948  0.00  0.00    +0.000 Br
ATOM     15  C   UNL     1       0.505   9.968  18.931  0.00  0.00    +0.000 A 
ATOM     16  C   UNL     1      -0.664  10.378  18.290  0.00  0.00    +0.000 A 
ATOM     17  C   UNL     1      -1.603  11.155  18.978  0.00  0.00    +0.000 A 
ATOM     18  C   UNL     1      -1.343  11.582  20.286  0.00  0.00    +0.000 A 
ATOM     19  C   UNL     1      -0.222  11.060  20.953  0.00  0.00    +0.000 A 
ATOM     20  C   UNL     1       0.704  10.259  20.277  0.00  0.00    +0.000 A 
ENDBRANCH   1  18
BRANCH   3  21
ATOM     21  C   UNL     1      -5.232  13.301  22.386  0.00  0.00    +0.000 A 
ATOM     22  C   UNL     1      -6.274  13.497  21.459  0.00  0.00    +0.000 A 
ATOM     23  C   UNL     1      -7.607  13.352  21.851  0.00  0.00    +0.000 A 
ATOM     24  C   UNL     1      -7.911  13.034  23.171  0.00  0.00    +0.000 A 
ATOM     25  C   UNL     1      -6.887  12.898  24.108  0.00  0.00    +0.000 A 
ATOM     26  C   UNL     1      -5.550  13.056  23.723  0.00  0.00    +0.000 A 
ENDBRANCH   3  21
BRANCH   6  27
ATOM     27  C   UNL     1       0.531  14.562  20.371  0.00  0.00    +0.000 A 
ATOM     28  C   UNL     1       0.638  14.294  18.992  0.00  0.00    +0.000 A 
ATOM     29  C   UNL     1       1.843  13.876  18.415  0.00  0.00    +0.000 A 
ATOM     30  C   UNL     1       2.971  13.712  19.209  0.00  0.00    +0.000 A 
ATOM     31  C   UNL     1       2.913  14.055  20.555  0.00  0.00    +0.000 A 
ATOM     32  C   UNL     1       1.717  14.523  21.115  0.00  0.00    +0.000 A 
ENDBRANCH   6  27
TORSDOF 3
ENDMDL
