MODEL 1
REMARK VINA RESULT:      -6.9      0.000      0.000
REMARK  Name = 
REMARK  2 active torsions:
REMARK  status: ('A' for Active; 'I' for Inactive)
REMARK    1  A    between atoms: C_2  and  C_3
REMARK    2  A    between atoms: C_3  and  C_4
REMARK                            x       y       z     vdW  Elec       q    Type
REMARK                         _______ _______ _______ _____ _____    ______ ____
ROOT
ATOM      1  O   UNL     1       1.203   8.120  21.853  0.00  0.00    +0.000 OA
ATOM      2  C   UNL     1       1.420   8.248  20.645  0.00  0.00    +0.000 C 
ATOM      3  N   UNL     1       1.518   7.112  19.814  0.00  0.00    +0.000 N 
ATOM      4  C   UNL     1       1.210   5.761  20.315  0.00  0.00    +0.000 C 
ATOM      5  C   UNL     1       2.365   5.062  21.028  0.00  0.00    +0.000 C 
ATOM      6  C   UNL     1       3.191   4.347  19.999  0.00  0.00    +0.000 A 
ATOM      7  N   UNL     1       3.203   2.994  20.090  0.00  0.00    +0.000 NA
ATOM      8  C   UNL     1       3.786   2.345  19.083  0.00  0.00    +0.000 A 
ATOM      9  N   UNL     1       4.344   2.910  18.006  0.00  0.00    +0.000 NA
ATOM     10  C   UNL     1       4.336   4.256  17.936  0.00  0.00    +0.000 A 
ATOM     11  N   UNL     1       4.874   4.888  16.803  0.00  0.00    +0.000 N 
ATOM     12  C   UNL     1       4.999   4.057  15.593  0.00  0.00    +0.000 C 
ATOM     13  C   UNL     1       6.489   3.999  15.291  0.00  0.00    +0.000 C 
ATOM     14  C   UNL     1       6.997   5.324  15.822  0.00  0.00    +0.000 C 
ATOM     15  C   UNL     1       6.190   5.502  17.096  0.00  0.00    +0.000 C 
ATOM     16  C   UNL     1       3.777   5.035  18.946  0.00  0.00    +0.000 A 
ATOM     17  C   UNL     1       3.711   6.548  18.874  0.00  0.00    +0.000 C 
ATOM     18  C   UNL     1       2.311   7.096  18.593  0.00  0.00    +0.000 C 
ENDROOT
BRANCH   2  19
ATOM     19  C   UNL     1       1.464   9.627  19.972  0.00  0.00    +0.000 C 
BRANCH  19  20
ATOM     20  C   UNL     1       0.148  10.180  19.464  0.00  0.00    +0.000 A 
ATOM     21  C   UNL     1      -0.336   9.891  18.185  0.00  0.00    +0.000 A 
ATOM     22  C   UNL     1      -1.502  10.524  17.740  0.00  0.00    +0.000 A 
ATOM     23  C   UNL     1      -2.154  11.424  18.570  0.00  0.00    +0.000 A 
ATOM     24  C   UNL     1      -1.611  11.662  19.821  0.00  0.00    +0.000 A 
ATOM     25  N   UNL     1      -0.483  11.068  20.282  0.00  0.00    +0.000 NA
ENDBRANCH  19  20
ENDBRANCH   2  19
TORSDOF 2
ENDMDL
MODEL 2
REMARK VINA RESULT:      -6.7      2.600      7.649
REMARK  Name = 
REMARK  2 active torsions:
REMARK  status: ('A' for Active; 'I' for Inactive)
REMARK    1  A    between atoms: C_2  and  C_3
REMARK    2  A    between atoms: C_3  and  C_4
REMARK                            x       y       z     vdW  Elec       q    Type
REMARK                         _______ _______ _______ _____ _____    ______ ____
ROOT
ATOM      1  O   UNL     1       5.852   2.858  16.231  0.00  0.00    +0.000 OA
ATOM      2  C   UNL     1       6.007   4.029  16.590  0.00  0.00    +0.000 C 
ATOM      3  N   UNL     1       5.452   4.482  17.805  0.00  0.00    +0.000 N 
ATOM      4  C   UNL     1       4.817   3.554  18.756  0.00  0.00    +0.000 C 
ATOM      5  C   UNL     1       3.351   3.239  18.463  0.00  0.00    +0.000 C 
ATOM      6  C   UNL     1       2.502   4.286  19.125  0.00  0.00    +0.000 A 
ATOM      7  N   UNL     1       1.698   3.848  20.124  0.00  0.00    +0.000 NA
ATOM      8  C   UNL     1       1.075   4.790  20.831  0.00  0.00    +0.000 A 
ATOM      9  N   UNL     1       1.184   6.111  20.640  0.00  0.00    +0.000 NA
ATOM     10  C   UNL     1       1.976   6.530  19.635  0.00  0.00    +0.000 A 
ATOM     11  N   UNL     1       2.152   7.909  19.428  0.00  0.00    +0.000 N 
ATOM     12  C   UNL     1       1.829   8.783  20.570  0.00  0.00    +0.000 C 
ATOM     13  C   UNL     1       0.680   9.662  20.098  0.00  0.00    +0.000 C 
ATOM     14  C   UNL     1       0.926   9.776  18.608  0.00  0.00    +0.000 C 
ATOM     15  C   UNL     1       1.400   8.380  18.241  0.00  0.00    +0.000 C 
ATOM     16  C   UNL     1       2.655   5.631  18.816  0.00  0.00    +0.000 A 
ATOM     17  C   UNL     1       3.590   6.073  17.709  0.00  0.00    +0.000 C 
ATOM     18  C   UNL     1       5.072   5.870  18.028  0.00  0.00    +0.000 C 
ENDROOT
BRANCH   2  19
ATOM     19  C   UNL     1       6.905   5.002  15.812  0.00  0.00    +0.000 C 
BRANCH  19  20
ATOM     20  C   UNL     1       6.958   4.825  14.308  0.00  0.00    +0.000 A 
ATOM     21  C   UNL     1       6.181   3.872  13.644  0.00  0.00    +0.000 A 
ATOM     22  C   UNL     1       6.361   3.685  12.269  0.00  0.00    +0.000 A 
ATOM     23  C   UNL     1       7.305   4.443  11.591  0.00  0.00    +0.000 A 
ATOM     24  C   UNL     1       8.040   5.363  12.319  0.00  0.00    +0.000 A 
ATOM     25  N   UNL     1       7.891   5.568  13.650  0.00  0.00    +0.000 NA
ENDBRANCH  19  20
ENDBRANCH   2  19
TORSDOF 2
ENDMDL
MODEL 3
REMARK VINA RESULT:      -6.6      0.730      1.037
REMARK  Name = 
REMARK  2 active torsions:
REMARK  status: ('A' for Active; 'I' for Inactive)
REMARK    1  A    between atoms: C_2  and  C_3
REMARK    2  A    between atoms: C_3  and  C_4
REMARK                            x       y       z     vdW  Elec       q    Type
REMARK                         _______ _______ _______ _____ _____    ______ ____
ROOT
ATOM      1  O   UNL     1       1.241   8.067  21.872  0.00  0.00    +0.000 OA
ATOM      2  C   UNL     1       1.461   8.207  20.666  0.00  0.00    +0.000 C 
ATOM      3  N   UNL     1       1.545   7.081  19.820  0.00  0.00    +0.000 N 
ATOM      4  C   UNL     1       1.219   5.728  20.303  0.00  0.00    +0.000 C 
ATOM      5  C   UNL     1       2.365   5.006  21.008  0.00  0.00    +0.000 C 
ATOM      6  C   UNL     1       3.184   4.293  19.970  0.00  0.00    +0.000 A 
ATOM      7  N   UNL     1       3.178   2.940  20.042  0.00  0.00    +0.000 NA
ATOM      8  C   UNL     1       3.754   2.296  19.027  0.00  0.00    +0.000 A 
ATOM      9  N   UNL     1       4.320   2.869  17.958  0.00  0.00    +0.000 NA
ATOM     10  C   UNL     1       4.329   4.215  17.907  0.00  0.00    +0.000 A 
ATOM     11  N   UNL     1       4.875   4.855  16.782  0.00  0.00    +0.000 N 
ATOM     12  C   UNL     1       4.990   4.038  15.561  0.00  0.00    +0.000 C 
ATOM     13  C   UNL     1       6.480   3.966  15.259  0.00  0.00    +0.000 C 
ATOM     14  C   UNL     1       7.004   5.277  15.808  0.00  0.00    +0.000 C 
ATOM     15  C   UNL     1       6.199   5.449  17.084  0.00  0.00    +0.000 C 
ATOM     16  C   UNL     1       3.779   4.988  18.926  0.00  0.00    +0.000 A 
ATOM     17  C   UNL     1       3.731   6.502  18.874  0.00  0.00    +0.000 C 
ATOM     18  C   UNL     1       2.339   7.072  18.599  0.00  0.00    +0.000 C 
ENDROOT
BRANCH   2  19
ATOM     19  C   UNL     1       1.523   9.595  20.010  0.00  0.00    +0.000 C 
BRANCH  19  20
ATOM     20  C   UNL     1       0.423  10.571  20.378  0.00  0.00    +0.000 A 
ATOM     21  C   UNL     1      -0.720  10.732  19.591  0.00  0.00    +0.000 A 
ATOM     22  C   UNL     1      -1.643  11.730  19.928  0.00  0.00    +0.000 A 
ATOM     23  C   UNL     1      -1.406  12.540  21.029  0.00  0.00    +0.000 A 
ATOM     24  C   UNL     1      -0.248  12.323  21.755  0.00  0.00    +0.000 A 
ATOM     25  N   UNL     1       0.666  11.367  21.456  0.00  0.00    +0.000 NA
ENDBRANCH  19  20
ENDBRANCH   2  19
TORSDOF 2
ENDMDL
MODEL 4
REMARK VINA RESULT:      -6.5      4.771      9.039
REMARK  Name = 
REMARK  2 active torsions:
REMARK  status: ('A' for Active; 'I' for Inactive)
REMARK    1  A    between atoms: C_2  and  C_3
REMARK    2  A    between atoms: C_3  and  C_4
REMARK                            x       y       z     vdW  Elec       q    Type
REMARK                         _______ _______ _______ _____ _____    ______ ____
ROOT
ATOM      1  O   UNL     1      -1.402  11.425  19.980  0.00  0.00    +0.000 OA
ATOM      2  C   UNL     1      -0.277  11.503  20.481  0.00  0.00    +0.000 C 
ATOM      3  N   UNL     1       0.330  12.760  20.680  0.00  0.00    +0.000 N 
ATOM      4  C   UNL     1      -0.406  14.016  20.452  0.00  0.00    +0.000 C 
ATOM      5  C   UNL     1      -0.417  14.500  19.004  0.00  0.00    +0.000 C 
ATOM      6  C   UNL     1       0.811  15.334  18.775  0.00  0.00    +0.000 A 
ATOM      7  N   UNL     1       0.591  16.645  18.508  0.00  0.00    +0.000 NA
ATOM      8  C   UNL     1       1.670  17.426  18.478  0.00  0.00    +0.000 A 
ATOM      9  N   UNL     1       2.929  17.028  18.694  0.00  0.00    +0.000 NA
ATOM     10  C   UNL     1       3.133  15.720  18.945  0.00  0.00    +0.000 A 
ATOM     11  N   UNL     1       4.435  15.268  19.219  0.00  0.00    +0.000 N 
ATOM     12  C   UNL     1       5.402  16.294  19.649  0.00  0.00    +0.000 C 
ATOM     13  C   UNL     1       6.483  16.309  18.578  0.00  0.00    +0.000 C 
ATOM     14  C   UNL     1       6.484  14.880  18.074  0.00  0.00    +0.000 C 
ATOM     15  C   UNL     1       5.007  14.528  18.070  0.00  0.00    +0.000 C 
ATOM     16  C   UNL     1       2.080  14.809  18.974  0.00  0.00    +0.000 A 
ATOM     17  C   UNL     1       2.272  13.342  19.301  0.00  0.00    +0.000 C 
ATOM     18  C   UNL     1       1.775  12.944  20.691  0.00  0.00    +0.000 C 
ENDROOT
BRANCH   2  19
ATOM     19  C   UNL     1       0.455  10.266  21.025  0.00  0.00    +0.000 C 
BRANCH  19  20
ATOM     20  C   UNL     1       1.188   9.410  20.013  0.00  0.00    +0.000 A 
ATOM     21  C   UNL     1       1.296   9.775  18.669  0.00  0.00    +0.000 A 
ATOM     22  C   UNL     1       1.889   8.884  17.767  0.00  0.00    +0.000 A 
ATOM     23  C   UNL     1       2.355   7.658  18.219  0.00  0.00    +0.000 A 
ATOM     24  C   UNL     1       2.208   7.366  19.564  0.00  0.00    +0.000 A 
ATOM     25  N   UNL     1       1.638   8.205  20.463  0.00  0.00    +0.000 NA
ENDBRANCH  19  20
ENDBRANCH   2  19
TORSDOF 2
ENDMDL
MODEL 5
REMARK VINA RESULT:      -6.3      6.980      9.375
REMARK  Name = 
REMARK  2 active torsions:
REMARK  status: ('A' for Active; 'I' for Inactive)
REMARK    1  A    between atoms: C_2  and  C_3
REMARK    2  A    between atoms: C_3  and  C_4
REMARK                            x       y       z     vdW  Elec       q    Type
REMARK                         _______ _______ _______ _____ _____    ______ ____
ROOT
ATOM      1  O   UNL     1      -2.701  15.161  24.427  0.00  0.00    +0.000 OA
ATOM      2  C   UNL     1      -2.904  13.992  24.088  0.00  0.00    +0.000 C 
ATOM      3  N   UNL     1      -2.012  13.336  23.214  0.00  0.00    +0.000 N 
ATOM      4  C   UNL     1      -0.738  13.955  22.807  0.00  0.00    +0.000 C 
ATOM      5  C   UNL     1      -0.841  14.914  21.623  0.00  0.00    +0.000 C 
ATOM      6  C   UNL     1      -0.706  14.118  20.357  0.00  0.00    +0.000 A 
ATOM      7  N   UNL     1       0.394  14.381  19.610  0.00  0.00    +0.000 NA
ATOM      8  C   UNL     1       0.614  13.563  18.582  0.00  0.00    +0.000 A 
ATOM      9  N   UNL     1      -0.146  12.516  18.239  0.00  0.00    +0.000 NA
ATOM     10  C   UNL     1      -1.243  12.275  18.982  0.00  0.00    +0.000 A 
ATOM     11  N   UNL     1      -2.046  11.162  18.682  0.00  0.00    +0.000 N 
ATOM     12  C   UNL     1      -1.410  10.100  17.882  0.00  0.00    +0.000 C 
ATOM     13  C   UNL     1      -2.209  10.031  16.589  0.00  0.00    +0.000 C 
ATOM     14  C   UNL     1      -3.597  10.457  17.022  0.00  0.00    +0.000 C 
ATOM     15  C   UNL     1      -3.309  11.565  18.020  0.00  0.00    +0.000 C 
ATOM     16  C   UNL     1      -1.584  13.084  20.065  0.00  0.00    +0.000 A 
ATOM     17  C   UNL     1      -2.784  12.810  20.948  0.00  0.00    +0.000 C 
ATOM     18  C   UNL     1      -2.427  12.257  22.329  0.00  0.00    +0.000 C 
ENDROOT
BRANCH   2  19
ATOM     19  C   UNL     1      -4.046  13.161  24.692  0.00  0.00    +0.000 C 
BRANCH  19  20
ATOM     20  C   UNL     1      -5.376  13.204  23.967  0.00  0.00    +0.000 A 
ATOM     21  C   UNL     1      -5.772  14.306  23.204  0.00  0.00    +0.000 A 
ATOM     22  C   UNL     1      -7.058  14.326  22.654  0.00  0.00    +0.000 A 
ATOM     23  C   UNL     1      -7.916  13.259  22.875  0.00  0.00    +0.000 A 
ATOM     24  C   UNL     1      -7.454  12.206  23.646  0.00  0.00    +0.000 A 
ATOM     25  N   UNL     1      -6.216  12.156  24.194  0.00  0.00    +0.000 NA
ENDBRANCH  19  20
ENDBRANCH   2  19
TORSDOF 2
ENDMDL
MODEL 6
REMARK VINA RESULT:      -6.3      4.609     11.402
REMARK  Name = 
REMARK  2 active torsions:
REMARK  status: ('A' for Active; 'I' for Inactive)
REMARK    1  A    between atoms: C_2  and  C_3
REMARK    2  A    between atoms: C_3  and  C_4
REMARK                            x       y       z     vdW  Elec       q    Type
REMARK                         _______ _______ _______ _____ _____    ______ ____
ROOT
ATOM      1  O   UNL     1       0.885  11.695  21.660  0.00  0.00    +0.000 OA
ATOM      2  C   UNL     1      -0.229  11.657  21.129  0.00  0.00    +0.000 C 
ATOM      3  N   UNL     1      -1.112  12.751  21.242  0.00  0.00    +0.000 N 
ATOM      4  C   UNL     1      -0.687  14.025  21.848  0.00  0.00    +0.000 C 
ATOM      5  C   UNL     1      -0.786  14.075  23.371  0.00  0.00    +0.000 C 
ATOM      6  C   UNL     1      -2.173  14.516  23.740  0.00  0.00    +0.000 A 
ATOM      7  N   UNL     1      -2.263  15.715  24.366  0.00  0.00    +0.000 NA
ATOM      8  C   UNL     1      -3.495  16.194  24.539  0.00  0.00    +0.000 A 
ATOM      9  N   UNL     1      -4.628  15.601  24.144  0.00  0.00    +0.000 NA
ATOM     10  C   UNL     1      -4.523  14.405  23.534  0.00  0.00    +0.000 A 
ATOM     11  N   UNL     1      -5.684  13.768  23.066  0.00  0.00    +0.000 N 
ATOM     12  C   UNL     1      -6.864  14.630  22.871  0.00  0.00    +0.000 C 
ATOM     13  C   UNL     1      -7.917  14.104  23.835  0.00  0.00    +0.000 C 
ATOM     14  C   UNL     1      -7.585  12.628  23.931  0.00  0.00    +0.000 C 
ATOM     15  C   UNL     1      -6.066  12.628  23.933  0.00  0.00    +0.000 C 
ATOM     16  C   UNL     1      -3.286  13.798  23.326  0.00  0.00    +0.000 A 
ATOM     17  C   UNL     1      -3.133  12.475  22.601  0.00  0.00    +0.000 C 
ATOM     18  C   UNL     1      -2.560  12.603  21.189  0.00  0.00    +0.000 C 
ENDROOT
BRANCH   2  19
ATOM     19  C   UNL     1      -0.654  10.490  20.225  0.00  0.00    +0.000 C 
BRANCH  19  20
ATOM     20  C   UNL     1       0.457   9.637  19.647  0.00  0.00    +0.000 A 
ATOM     21  C   UNL     1       0.900   9.786  18.331  0.00  0.00    +0.000 A 
ATOM     22  C   UNL     1       1.851   8.890  17.828  0.00  0.00    +0.000 A 
ATOM     23  C   UNL     1       2.333   7.873  18.639  0.00  0.00    +0.000 A 
ATOM     24  C   UNL     1       1.842   7.787  19.930  0.00  0.00    +0.000 A 
ATOM     25  N   UNL     1       0.921   8.636  20.447  0.00  0.00    +0.000 NA
ENDBRANCH  19  20
ENDBRANCH   2  19
TORSDOF 2
ENDMDL
MODEL 7
REMARK VINA RESULT:      -6.2      2.868      5.248
REMARK  Name = 
REMARK  2 active torsions:
REMARK  status: ('A' for Active; 'I' for Inactive)
REMARK    1  A    between atoms: C_2  and  C_3
REMARK    2  A    between atoms: C_3  and  C_4
REMARK                            x       y       z     vdW  Elec       q    Type
REMARK                         _______ _______ _______ _____ _____    ______ ____
ROOT
ATOM      1  O   UNL     1      -0.860  12.128  20.596  0.00  0.00    +0.000 OA
ATOM      2  C   UNL     1      -0.402  11.302  21.392  0.00  0.00    +0.000 C 
ATOM      3  N   UNL     1       0.765  10.578  21.074  0.00  0.00    +0.000 N 
ATOM      4  C   UNL     1       1.562  10.886  19.875  0.00  0.00    +0.000 C 
ATOM      5  C   UNL     1       1.070  10.223  18.590  0.00  0.00    +0.000 C 
ATOM      6  C   UNL     1       1.697   8.862  18.491  0.00  0.00    +0.000 A 
ATOM      7  N   UNL     1       2.556   8.682  17.459  0.00  0.00    +0.000 NA
ATOM      8  C   UNL     1       3.247   7.543  17.464  0.00  0.00    +0.000 A 
ATOM      9  N   UNL     1       3.167   6.583  18.394  0.00  0.00    +0.000 NA
ATOM     10  C   UNL     1       2.299   6.771  19.406  0.00  0.00    +0.000 A 
ATOM     11  N   UNL     1       2.215   5.808  20.426  0.00  0.00    +0.000 N 
ATOM     12  C   UNL     1       3.369   4.901  20.560  0.00  0.00    +0.000 C 
ATOM     13  C   UNL     1       2.824   3.507  20.284  0.00  0.00    +0.000 C 
ATOM     14  C   UNL     1       1.387   3.602  20.754  0.00  0.00    +0.000 C 
ATOM     15  C   UNL     1       0.982   4.995  20.305  0.00  0.00    +0.000 C 
ATOM     16  C   UNL     1       1.507   7.914  19.486  0.00  0.00    +0.000 A 
ATOM     17  C   UNL     1       0.556   8.174  20.638  0.00  0.00    +0.000 C 
ATOM     18  C   UNL     1       1.039   9.251  21.611  0.00  0.00    +0.000 C 
ENDROOT
BRANCH   2  19
ATOM     19  C   UNL     1      -0.993  11.119  22.798  0.00  0.00    +0.000 C 
BRANCH  19  20
ATOM     20  C   UNL     1      -1.911  12.216  23.299  0.00  0.00    +0.000 A 
ATOM     21  C   UNL     1      -1.455  13.514  23.539  0.00  0.00    +0.000 A 
ATOM     22  C   UNL     1      -2.329  14.448  24.108  0.00  0.00    +0.000 A 
ATOM     23  C   UNL     1      -3.626  14.070  24.424  0.00  0.00    +0.000 A 
ATOM     24  C   UNL     1      -4.002  12.765  24.162  0.00  0.00    +0.000 A 
ATOM     25  N   UNL     1      -3.181  11.836  23.613  0.00  0.00    +0.000 NA
ENDBRANCH  19  20
ENDBRANCH   2  19
TORSDOF 2
ENDMDL
MODEL 8
REMARK VINA RESULT:      -6.2      4.284      8.984
REMARK  Name = 
REMARK  2 active torsions:
REMARK  status: ('A' for Active; 'I' for Inactive)
REMARK    1  A    between atoms: C_2  and  C_3
REMARK    2  A    between atoms: C_3  and  C_4
REMARK                            x       y       z     vdW  Elec       q    Type
REMARK                         _______ _______ _______ _____ _____    ______ ____
ROOT
ATOM      1  O   UNL     1      -1.221  10.192  19.430  0.00  0.00    +0.000 OA
ATOM      2  C   UNL     1      -0.224  10.483  20.097  0.00  0.00    +0.000 C 
ATOM      3  N   UNL     1       0.048  11.828  20.424  0.00  0.00    +0.000 N 
ATOM      4  C   UNL     1      -0.913  12.904  20.127  0.00  0.00    +0.000 C 
ATOM      5  C   UNL     1      -0.830  13.465  18.709  0.00  0.00    +0.000 C 
ATOM      6  C   UNL     1       0.197  14.561  18.695  0.00  0.00    +0.000 A 
ATOM      7  N   UNL     1      -0.274  15.805  18.438  0.00  0.00    +0.000 NA
ATOM      8  C   UNL     1       0.593  16.805  18.595  0.00  0.00    +0.000 A 
ATOM      9  N   UNL     1       1.867  16.680  18.987  0.00  0.00    +0.000 NA
ATOM     10  C   UNL     1       2.324  15.435  19.226  0.00  0.00    +0.000 A 
ATOM     11  N   UNL     1       3.642  15.263  19.680  0.00  0.00    +0.000 N 
ATOM     12  C   UNL     1       4.282  16.446  20.283  0.00  0.00    +0.000 C 
ATOM     13  C   UNL     1       5.471  16.767  19.389  0.00  0.00    +0.000 C 
ATOM     14  C   UNL     1       5.866  15.408  18.847  0.00  0.00    +0.000 C 
ATOM     15  C   UNL     1       4.523  14.742  18.608  0.00  0.00    +0.000 C 
ATOM     16  C   UNL     1       1.511  14.316  19.067  0.00  0.00    +0.000 A 
ATOM     17  C   UNL     1       1.982  12.908  19.374  0.00  0.00    +0.000 C 
ATOM     18  C   UNL     1       1.398  12.323  20.660  0.00  0.00    +0.000 C 
ENDROOT
BRANCH   2  19
ATOM     19  C   UNL     1       0.684   9.405  20.707  0.00  0.00    +0.000 C 
BRANCH  19  20
ATOM     20  C   UNL     1       1.558   8.626  19.744  0.00  0.00    +0.000 A 
ATOM     21  C   UNL     1       1.776   9.049  18.431  0.00  0.00    +0.000 A 
ATOM     22  C   UNL     1       2.501   8.225  17.562  0.00  0.00    +0.000 A 
ATOM     23  C   UNL     1       2.985   7.007  18.016  0.00  0.00    +0.000 A 
ATOM     24  C   UNL     1       2.723   6.655  19.329  0.00  0.00    +0.000 A 
ATOM     25  N   UNL     1       2.024   7.429  20.195  0.00  0.00    +0.000 NA
ENDBRANCH  19  20
ENDBRANCH   2  19
TORSDOF 2
ENDMDL
MODEL 9
REMARK VINA RESULT:      -6.2      2.709      4.929
REMARK  Name = 
REMARK  2 active torsions:
REMARK  status: ('A' for Active; 'I' for Inactive)
REMARK    1  A    between atoms: C_2  and  C_3
REMARK    2  A    between atoms: C_3  and  C_4
REMARK                            x       y       z     vdW  Elec       q    Type
REMARK                         _______ _______ _______ _____ _____    ______ ____
ROOT
ATOM      1  O   UNL     1      -0.565  11.646  20.436  0.00  0.00    +0.000 OA
ATOM      2  C   UNL     1      -0.194  10.829  21.283  0.00  0.00    +0.000 C 
ATOM      3  N   UNL     1       0.963  10.052  21.068  0.00  0.00    +0.000 N 
ATOM      4  C   UNL     1       1.851  10.295  19.918  0.00  0.00    +0.000 C 
ATOM      5  C   UNL     1       1.423   9.612  18.621  0.00  0.00    +0.000 C 
ATOM      6  C   UNL     1       2.001   8.226  18.604  0.00  0.00    +0.000 A 
ATOM      7  N   UNL     1       2.921   7.983  17.639  0.00  0.00    +0.000 NA
ATOM      8  C   UNL     1       3.565   6.820  17.723  0.00  0.00    +0.000 A 
ATOM      9  N   UNL     1       3.385   5.893  18.671  0.00  0.00    +0.000 NA
ATOM     10  C   UNL     1       2.458   6.143  19.616  0.00  0.00    +0.000 A 
ATOM     11  N   UNL     1       2.267   5.215  20.653  0.00  0.00    +0.000 N 
ATOM     12  C   UNL     1       3.373   4.270  20.892  0.00  0.00    +0.000 C 
ATOM     13  C   UNL     1       2.795   2.889  20.617  0.00  0.00    +0.000 C 
ATOM     14  C   UNL     1       1.334   3.052  20.984  0.00  0.00    +0.000 C 
ATOM     15  C   UNL     1       1.015   4.444  20.470  0.00  0.00    +0.000 C 
ATOM     16  C   UNL     1       1.707   7.316  19.609  0.00  0.00    +0.000 A 
ATOM     17  C   UNL     1       0.691   7.646  20.685  0.00  0.00    +0.000 C 
ATOM     18  C   UNL     1       1.148   8.733  21.658  0.00  0.00    +0.000 C 
ENDROOT
BRANCH   2  19
ATOM     19  C   UNL     1      -0.886  10.710  22.650  0.00  0.00    +0.000 C 
BRANCH  19  20
ATOM     20  C   UNL     1      -1.542  11.963  23.192  0.00  0.00    +0.000 A 
ATOM     21  C   UNL     1      -2.924  12.058  23.378  0.00  0.00    +0.000 A 
ATOM     22  C   UNL     1      -3.475  13.282  23.775  0.00  0.00    +0.000 A 
ATOM     23  C   UNL     1      -2.645  14.376  23.974  0.00  0.00    +0.000 A 
ATOM     24  C   UNL     1      -1.288  14.205  23.765  0.00  0.00    +0.000 A 
ATOM     25  N   UNL     1      -0.722  13.035  23.379  0.00  0.00    +0.000 NA
ENDBRANCH  19  20
ENDBRANCH   2  19
TORSDOF 2
ENDMDL
