MODEL 1
REMARK VINA RESULT:      -7.6      0.000      0.000
REMARK  Name = 
REMARK  4 active torsions:
REMARK  status: ('A' for Active; 'I' for Inactive)
REMARK    1  A    between atoms: C_2  and  C_10
REMARK    2  A    between atoms: N_3  and  C_4
REMARK    3  A    between atoms: C_13  and  S_14
REMARK    4  A    between atoms: S_14  and  N_17
REMARK                            x       y       z     vdW  Elec       q    Type
REMARK                         _______ _______ _______ _____ _____    ______ ____
ROOT
ATOM      1  C   UNL     1       2.207   7.785  19.076  0.00  0.00    +0.000 A 
ATOM      2  C   UNL     1       1.583   8.099  20.287  0.00  0.00    +0.000 A 
ATOM      3  C   UNL     1       0.830   9.272  20.391  0.00  0.00    +0.000 A 
ATOM      4  C   UNL     1       0.780  10.169  19.314  0.00  0.00    +0.000 A 
ATOM      5  C   UNL     1       1.411   9.859  18.107  0.00  0.00    +0.000 A 
ATOM      6  C   UNL     1       2.129   8.676  17.995  0.00  0.00    +0.000 A 
ENDROOT
BRANCH   1   8
ATOM      7  O   UNL     1       3.896   6.537  18.142  0.00  0.00    +0.000 OA
ATOM      8  C   UNL     1       2.861   6.489  18.793  0.00  0.00    +0.000 C 
ATOM      9  N   UNL     1       2.230   5.341  19.234  0.00  0.00    +0.000 N 
ATOM     10  H   UNL     1       1.333   5.410  19.694  0.00  0.00    +0.000 HD
BRANCH   9  11
ATOM     11  C   UNL     1       2.694   4.042  18.943  0.00  0.00    +0.000 A 
ATOM     12  C   UNL     1       2.222   3.298  17.857  0.00  0.00    +0.000 A 
ATOM     13  C   UNL     1       2.664   1.991  17.650  0.00  0.00    +0.000 A 
ATOM     14  C   UNL     1       3.624   1.446  18.489  0.00  0.00    +0.000 A 
ATOM     15  C   UNL     1       4.115   2.190  19.563  0.00  0.00    +0.000 A 
ATOM     16  C   UNL     1       3.644   3.484  19.795  0.00  0.00    +0.000 A 
ENDBRANCH   9  11
ENDBRANCH   1   8
BRANCH   4  17
ATOM     17  S   UNL     1      -0.129  11.702  19.503  0.00  0.00    +0.000 S 
ATOM     18  O   UNL     1      -0.105  12.040  20.910  0.00  0.00    +0.000 OA
ATOM     19  O   UNL     1       0.363  12.607  18.495  0.00  0.00    +0.000 OA
BRANCH  17  20
ATOM     20  N   UNL     1      -1.745  11.262  19.078  0.00  0.00    +0.000 NA
ATOM     21  C   UNL     1      -2.754  12.347  19.225  0.00  0.00    +0.000 C 
ATOM     22  C   UNL     1      -4.173  11.848  18.973  0.00  0.00    +0.000 C 
ATOM     23  C   UNL     1      -4.284  11.121  17.641  0.00  0.00    +0.000 C 
ATOM     24  C   UNL     1      -3.283   9.978  17.579  0.00  0.00    +0.000 C 
ATOM     25  C   UNL     1      -1.859  10.460  17.831  0.00  0.00    +0.000 C 
ENDBRANCH  17  20
ENDBRANCH   4  17
TORSDOF 4
ENDMDL
MODEL 2
REMARK VINA RESULT:      -7.6      0.398      1.471
REMARK  Name = 
REMARK  4 active torsions:
REMARK  status: ('A' for Active; 'I' for Inactive)
REMARK    1  A    between atoms: C_2  and  C_10
REMARK    2  A    between atoms: N_3  and  C_4
REMARK    3  A    between atoms: C_13  and  S_14
REMARK    4  A    between atoms: S_14  and  N_17
REMARK                            x       y       z     vdW  Elec       q    Type
REMARK                         _______ _______ _______ _____ _____    ______ ____
ROOT
ATOM      1  C   UNL     1       2.269   7.822  19.001  0.00  0.00    +0.000 A 
ATOM      2  C   UNL     1       1.590   8.186  20.167  0.00  0.00    +0.000 A 
ATOM      3  C   UNL     1       0.858   9.377  20.196  0.00  0.00    +0.000 A 
ATOM      4  C   UNL     1       0.885  10.241  19.092  0.00  0.00    +0.000 A 
ATOM      5  C   UNL     1       1.573   9.881  17.930  0.00  0.00    +0.000 A 
ATOM      6  C   UNL     1       2.269   8.681  17.892  0.00  0.00    +0.000 A 
ENDROOT
BRANCH   1   8
ATOM      7  O   UNL     1       3.978   6.511  18.199  0.00  0.00    +0.000 OA
ATOM      8  C   UNL     1       2.908   6.504  18.792  0.00  0.00    +0.000 C 
ATOM      9  N   UNL     1       2.228   5.384  19.230  0.00  0.00    +0.000 N 
ATOM     10  H   UNL     1       1.308   5.486  19.637  0.00  0.00    +0.000 HD
BRANCH   9  11
ATOM     11  C   UNL     1       2.677   4.068  19.002  0.00  0.00    +0.000 A 
ATOM     12  C   UNL     1       3.618   3.438  19.825  0.00  0.00    +0.000 A 
ATOM     13  C   UNL     1       4.080   2.158  19.519  0.00  0.00    +0.000 A 
ATOM     14  C   UNL     1       3.560   1.479  18.427  0.00  0.00    +0.000 A 
ATOM     15  C   UNL     1       2.607   2.092  17.613  0.00  0.00    +0.000 A 
ATOM     16  C   UNL     1       2.172   3.389  17.895  0.00  0.00    +0.000 A 
ENDBRANCH   9  11
ENDBRANCH   1   8
BRANCH   4  17
ATOM     17  S   UNL     1       0.003  11.798  19.186  0.00  0.00    +0.000 S 
ATOM     18  O   UNL     1      -0.304  12.030  20.581  0.00  0.00    +0.000 OA
ATOM     19  O   UNL     1       0.750  12.751  18.403  0.00  0.00    +0.000 OA
BRANCH  17  20
ATOM     20  N   UNL     1      -1.475  11.469  18.354  0.00  0.00    +0.000 NA
ATOM     21  C   UNL     1      -1.562  10.120  17.730  0.00  0.00    +0.000 C 
ATOM     22  C   UNL     1      -2.828   9.955  16.895  0.00  0.00    +0.000 C 
ATOM     23  C   UNL     1      -4.074  10.314  17.689  0.00  0.00    +0.000 C 
ATOM     24  C   UNL     1      -3.962  11.728  18.238  0.00  0.00    +0.000 C 
ATOM     25  C   UNL     1      -2.700  11.910  19.073  0.00  0.00    +0.000 C 
ENDBRANCH  17  20
ENDBRANCH   4  17
TORSDOF 4
ENDMDL
MODEL 3
REMARK VINA RESULT:      -7.6      2.364      2.655
REMARK  Name = 
REMARK  4 active torsions:
REMARK  status: ('A' for Active; 'I' for Inactive)
REMARK    1  A    between atoms: C_2  and  C_10
REMARK    2  A    between atoms: N_3  and  C_4
REMARK    3  A    between atoms: C_13  and  S_14
REMARK    4  A    between atoms: S_14  and  N_17
REMARK                            x       y       z     vdW  Elec       q    Type
REMARK                         _______ _______ _______ _____ _____    ______ ____
ROOT
ATOM      1  C   UNL     1       2.480   7.881  18.600  0.00  0.00    +0.000 A 
ATOM      2  C   UNL     1       1.857   7.828  19.851  0.00  0.00    +0.000 A 
ATOM      3  C   UNL     1       0.983   8.850  20.230  0.00  0.00    +0.000 A 
ATOM      4  C   UNL     1       0.806   9.964  19.397  0.00  0.00    +0.000 A 
ATOM      5  C   UNL     1       1.435  10.021  18.150  0.00  0.00    +0.000 A 
ATOM      6  C   UNL     1       2.276   8.987  17.761  0.00  0.00    +0.000 A 
ENDROOT
BRANCH   1   8
ATOM      7  O   UNL     1       2.813   5.646  18.182  0.00  0.00    +0.000 OA
ATOM      8  C   UNL     1       3.265   6.771  18.017  0.00  0.00    +0.000 C 
ATOM      9  N   UNL     1       4.455   7.085  17.390  0.00  0.00    +0.000 N 
ATOM     10  H   UNL     1       4.776   8.044  17.380  0.00  0.00    +0.000 HD
BRANCH   9  11
ATOM     11  C   UNL     1       5.343   6.115  16.884  0.00  0.00    +0.000 A 
ATOM     12  C   UNL     1       6.327   5.508  17.673  0.00  0.00    +0.000 A 
ATOM     13  C   UNL     1       7.226   4.602  17.109  0.00  0.00    +0.000 A 
ATOM     14  C   UNL     1       7.106   4.252  15.772  0.00  0.00    +0.000 A 
ATOM     15  C   UNL     1       6.114   4.838  14.984  0.00  0.00    +0.000 A 
ATOM     16  C   UNL     1       5.239   5.775  15.537  0.00  0.00    +0.000 A 
ENDBRANCH   9  11
ENDBRANCH   1   8
BRANCH   4  17
ATOM     17  S   UNL     1      -0.260  11.297  19.943  0.00  0.00    +0.000 S 
ATOM     18  O   UNL     1      -0.448  11.135  21.369  0.00  0.00    +0.000 OA
ATOM     19  O   UNL     1       0.267  12.513  19.378  0.00  0.00    +0.000 OA
BRANCH  17  20
ATOM     20  N   UNL     1      -1.761  10.953  19.157  0.00  0.00    +0.000 NA
ATOM     21  C   UNL     1      -2.742  12.073  19.154  0.00  0.00    +0.000 C 
ATOM     22  C   UNL     1      -4.090  11.652  18.575  0.00  0.00    +0.000 C 
ATOM     23  C   UNL     1      -3.935  11.005  17.207  0.00  0.00    +0.000 C 
ATOM     24  C   UNL     1      -2.980   9.823  17.287  0.00  0.00    +0.000 C 
ATOM     25  C   UNL     1      -1.630  10.227  17.866  0.00  0.00    +0.000 C 
ENDBRANCH  17  20
ENDBRANCH   4  17
TORSDOF 4
ENDMDL
MODEL 4
REMARK VINA RESULT:      -7.6      3.519      8.852
REMARK  Name = 
REMARK  4 active torsions:
REMARK  status: ('A' for Active; 'I' for Inactive)
REMARK    1  A    between atoms: C_2  and  C_10
REMARK    2  A    between atoms: N_3  and  C_4
REMARK    3  A    between atoms: C_13  and  S_14
REMARK    4  A    between atoms: S_14  and  N_17
REMARK                            x       y       z     vdW  Elec       q    Type
REMARK                         _______ _______ _______ _____ _____    ______ ____
ROOT
ATOM      1  C   UNL     1       1.797   7.320  20.090  0.00  0.00    +0.000 A 
ATOM      2  C   UNL     1       1.786   6.097  20.769  0.00  0.00    +0.000 A 
ATOM      3  C   UNL     1       2.568   5.039  20.296  0.00  0.00    +0.000 A 
ATOM      4  C   UNL     1       3.284   5.179  19.099  0.00  0.00    +0.000 A 
ATOM      5  C   UNL     1       3.288   6.399  18.417  0.00  0.00    +0.000 A 
ATOM      6  C   UNL     1       2.538   7.459  18.907  0.00  0.00    +0.000 A 
ENDROOT
BRANCH   1   8
ATOM      7  O   UNL     1       0.796   8.531  21.767  0.00  0.00    +0.000 OA
ATOM      8  C   UNL     1       1.169   8.557  20.602  0.00  0.00    +0.000 C 
ATOM      9  N   UNL     1       1.008   9.609  19.720  0.00  0.00    +0.000 N 
ATOM     10  H   UNL     1       1.280   9.495  18.753  0.00  0.00    +0.000 HD
BRANCH   9  11
ATOM     11  C   UNL     1       0.335  10.802  20.053  0.00  0.00    +0.000 A 
ATOM     12  C   UNL     1       0.953  11.849  20.744  0.00  0.00    +0.000 A 
ATOM     13  C   UNL     1       0.225  12.982  21.108  0.00  0.00    +0.000 A 
ATOM     14  C   UNL     1      -1.104  13.101  20.729  0.00  0.00    +0.000 A 
ATOM     15  C   UNL     1      -1.722  12.068  20.022  0.00  0.00    +0.000 A 
ATOM     16  C   UNL     1      -1.005  10.916  19.692  0.00  0.00    +0.000 A 
ENDBRANCH   9  11
ENDBRANCH   1   8
BRANCH   4  17
ATOM     17  S   UNL     1       4.215   3.781  18.476  0.00  0.00    +0.000 S 
ATOM     18  O   UNL     1       5.133   3.381  19.521  0.00  0.00    +0.000 OA
ATOM     19  O   UNL     1       3.262   2.862  17.908  0.00  0.00    +0.000 OA
BRANCH  17  20
ATOM     20  N   UNL     1       5.135   4.461  17.179  0.00  0.00    +0.000 NA
ATOM     21  C   UNL     1       6.565   4.731  17.494  0.00  0.00    +0.000 C 
ATOM     22  C   UNL     1       7.273   5.461  16.356  0.00  0.00    +0.000 C 
ATOM     23  C   UNL     1       7.090   4.740  15.028  0.00  0.00    +0.000 C 
ATOM     24  C   UNL     1       5.611   4.560  14.725  0.00  0.00    +0.000 C 
ATOM     25  C   UNL     1       4.888   3.834  15.853  0.00  0.00    +0.000 C 
ENDBRANCH  17  20
ENDBRANCH   4  17
TORSDOF 4
ENDMDL
MODEL 5
REMARK VINA RESULT:      -7.6      0.259      1.015
REMARK  Name = 
REMARK  4 active torsions:
REMARK  status: ('A' for Active; 'I' for Inactive)
REMARK    1  A    between atoms: C_2  and  C_10
REMARK    2  A    between atoms: N_3  and  C_4
REMARK    3  A    between atoms: C_13  and  S_14
REMARK    4  A    between atoms: S_14  and  N_17
REMARK                            x       y       z     vdW  Elec       q    Type
REMARK                         _______ _______ _______ _____ _____    ______ ____
ROOT
ATOM      1  C   UNL     1       2.206   7.855  19.050  0.00  0.00    +0.000 A 
ATOM      2  C   UNL     1       1.559   8.174  20.249  0.00  0.00    +0.000 A 
ATOM      3  C   UNL     1       0.850   9.375  20.351  0.00  0.00    +0.000 A 
ATOM      4  C   UNL     1       0.867  10.290  19.289  0.00  0.00    +0.000 A 
ATOM      5  C   UNL     1       1.522   9.975  18.095  0.00  0.00    +0.000 A 
ATOM      6  C   UNL     1       2.196   8.766  17.984  0.00  0.00    +0.000 A 
ENDROOT
BRANCH   1   8
ATOM      7  O   UNL     1       3.767   6.541  17.995  0.00  0.00    +0.000 OA
ATOM      8  C   UNL     1       2.816   6.539  18.764  0.00  0.00    +0.000 C 
ATOM      9  N   UNL     1       2.236   5.424  19.338  0.00  0.00    +0.000 N 
ATOM     10  H   UNL     1       1.400   5.527  19.896  0.00  0.00    +0.000 HD
BRANCH   9  11
ATOM     11  C   UNL     1       2.657   4.106  19.066  0.00  0.00    +0.000 A 
ATOM     12  C   UNL     1       3.626   3.450  19.833  0.00  0.00    +0.000 A 
ATOM     13  C   UNL     1       4.057   2.170  19.483  0.00  0.00    +0.000 A 
ATOM     14  C   UNL     1       3.477   1.517  18.405  0.00  0.00    +0.000 A 
ATOM     15  C   UNL     1       2.496   2.158  17.647  0.00  0.00    +0.000 A 
ATOM     16  C   UNL     1       2.092   3.455  17.972  0.00  0.00    +0.000 A 
ENDBRANCH   9  11
ENDBRANCH   1   8
BRANCH   4  17
ATOM     17  S   UNL     1       0.016  11.856  19.478  0.00  0.00    +0.000 S 
ATOM     18  O   UNL     1       0.085  12.212  20.878  0.00  0.00    +0.000 OA
ATOM     19  O   UNL     1       0.512  12.730  18.445  0.00  0.00    +0.000 OA
BRANCH  17  20
ATOM     20  N   UNL     1      -1.625  11.464  19.100  0.00  0.00    +0.000 NA
ATOM     21  C   UNL     1      -2.634  12.454  19.568  0.00  0.00    +0.000 C 
ATOM     22  C   UNL     1      -4.062  11.973  19.329  0.00  0.00    +0.000 C 
ATOM     23  C   UNL     1      -4.278  11.557  17.881  0.00  0.00    +0.000 C 
ATOM     24  C   UNL     1      -3.268  10.491  17.482  0.00  0.00    +0.000 C 
ATOM     25  C   UNL     1      -1.835  10.956  17.718  0.00  0.00    +0.000 C 
ENDBRANCH  17  20
ENDBRANCH   4  17
TORSDOF 4
ENDMDL
MODEL 6
REMARK VINA RESULT:      -7.6      3.403      8.887
REMARK  Name = 
REMARK  4 active torsions:
REMARK  status: ('A' for Active; 'I' for Inactive)
REMARK    1  A    between atoms: C_2  and  C_10
REMARK    2  A    between atoms: N_3  and  C_4
REMARK    3  A    between atoms: C_13  and  S_14
REMARK    4  A    between atoms: S_14  and  N_17
REMARK                            x       y       z     vdW  Elec       q    Type
REMARK                         _______ _______ _______ _____ _____    ______ ____
ROOT
ATOM      1  C   UNL     1       1.937   7.399  19.881  0.00  0.00    +0.000 A 
ATOM      2  C   UNL     1       2.414   7.342  18.568  0.00  0.00    +0.000 A 
ATOM      3  C   UNL     1       2.755   6.106  18.011  0.00  0.00    +0.000 A 
ATOM      4  C   UNL     1       2.705   4.947  18.797  0.00  0.00    +0.000 A 
ATOM      5  C   UNL     1       2.237   5.005  20.113  0.00  0.00    +0.000 A 
ATOM      6  C   UNL     1       1.865   6.229  20.653  0.00  0.00    +0.000 A 
ENDROOT
BRANCH   1   8
ATOM      7  O   UNL     1       1.170   8.560  21.710  0.00  0.00    +0.000 OA
ATOM      8  C   UNL     1       1.366   8.613  20.504  0.00  0.00    +0.000 C 
ATOM      9  N   UNL     1       1.057   9.675  19.675  0.00  0.00    +0.000 N 
ATOM     10  H   UNL     1       1.186   9.583  18.677  0.00  0.00    +0.000 HD
BRANCH   9  11
ATOM     11  C   UNL     1       0.417  10.847  20.126  0.00  0.00    +0.000 A 
ATOM     12  C   UNL     1       1.114  11.908  20.715  0.00  0.00    +0.000 A 
ATOM     13  C   UNL     1       0.426  13.019  21.206  0.00  0.00    +0.000 A 
ATOM     14  C   UNL     1      -0.950  13.102  21.054  0.00  0.00    +0.000 A 
ATOM     15  C   UNL     1      -1.649  12.056  20.449  0.00  0.00    +0.000 A 
ATOM     16  C   UNL     1      -0.967  10.926  19.994  0.00  0.00    +0.000 A 
ENDBRANCH   9  11
ENDBRANCH   1   8
BRANCH   4  17
ATOM     17  S   UNL     1       3.224   3.388  18.081  0.00  0.00    +0.000 S 
ATOM     18  O   UNL     1       3.333   2.437  19.166  0.00  0.00    +0.000 OA
ATOM     19  O   UNL     1       2.375   3.148  16.941  0.00  0.00    +0.000 OA
BRANCH  17  20
ATOM     20  N   UNL     1       4.814   3.729  17.497  0.00  0.00    +0.000 NA
ATOM     21  C   UNL     1       4.886   4.150  16.070  0.00  0.00    +0.000 C 
ATOM     22  C   UNL     1       6.326   4.292  15.587  0.00  0.00    +0.000 C 
ATOM     23  C   UNL     1       7.140   5.191  16.505  0.00  0.00    +0.000 C 
ATOM     24  C   UNL     1       7.092   4.670  17.934  0.00  0.00    +0.000 C 
ATOM     25  C   UNL     1       5.659   4.520  18.431  0.00  0.00    +0.000 C 
ENDBRANCH  17  20
ENDBRANCH   4  17
TORSDOF 4
ENDMDL
MODEL 7
REMARK VINA RESULT:      -7.5      3.097      8.941
REMARK  Name = 
REMARK  4 active torsions:
REMARK  status: ('A' for Active; 'I' for Inactive)
REMARK    1  A    between atoms: C_2  and  C_10
REMARK    2  A    between atoms: N_3  and  C_4
REMARK    3  A    between atoms: C_13  and  S_14
REMARK    4  A    between atoms: S_14  and  N_17
REMARK                            x       y       z     vdW  Elec       q    Type
REMARK                         _______ _______ _______ _____ _____    ______ ____
ROOT
ATOM      1  C   UNL     1       1.534   8.904  19.476  0.00  0.00    +0.000 A 
ATOM      2  C   UNL     1       2.042   8.585  18.213  0.00  0.00    +0.000 A 
ATOM      3  C   UNL     1       2.485   7.285  17.956  0.00  0.00    +0.000 A 
ATOM      4  C   UNL     1       2.503   6.335  18.987  0.00  0.00    +0.000 A 
ATOM      5  C   UNL     1       2.004   6.657  20.253  0.00  0.00    +0.000 A 
ATOM      6  C   UNL     1       1.532   7.940  20.495  0.00  0.00    +0.000 A 
ENDROOT
BRANCH   1   8
ATOM      7  O   UNL     1       1.354  11.189  19.309  0.00  0.00    +0.000 OA
ATOM      8  C   UNL     1       0.863  10.182  19.800  0.00  0.00    +0.000 C 
ATOM      9  N   UNL     1      -0.217  10.139  20.662  0.00  0.00    +0.000 N 
ATOM     10  H   UNL     1      -0.492   9.259  21.075  0.00  0.00    +0.000 HD
BRANCH   9  11
ATOM     11  C   UNL     1      -0.880  11.293  21.129  0.00  0.00    +0.000 A 
ATOM     12  C   UNL     1      -0.703  11.791  22.424  0.00  0.00    +0.000 A 
ATOM     13  C   UNL     1      -1.433  12.897  22.861  0.00  0.00    +0.000 A 
ATOM     14  C   UNL     1      -2.293  13.546  21.988  0.00  0.00    +0.000 A 
ATOM     15  C   UNL     1      -2.459  13.066  20.688  0.00  0.00    +0.000 A 
ATOM     16  C   UNL     1      -1.760  11.935  20.262  0.00  0.00    +0.000 A 
ENDBRANCH   9  11
ENDBRANCH   1   8
BRANCH   4  17
ATOM     17  S   UNL     1       3.150   4.698  18.651  0.00  0.00    +0.000 S 
ATOM     18  O   UNL     1       3.210   3.996  19.915  0.00  0.00    +0.000 OA
ATOM     19  O   UNL     1       2.413   4.179  17.527  0.00  0.00    +0.000 OA
BRANCH  17  20
ATOM     20  N   UNL     1       4.768   5.010  18.127  0.00  0.00    +0.000 NA
ATOM     21  C   UNL     1       5.757   5.215  19.221  0.00  0.00    +0.000 C 
ATOM     22  C   UNL     1       7.125   5.626  18.686  0.00  0.00    +0.000 C 
ATOM     23  C   UNL     1       7.623   4.662  17.619  0.00  0.00    +0.000 C 
ATOM     24  C   UNL     1       6.606   4.550  16.493  0.00  0.00    +0.000 C 
ATOM     25  C   UNL     1       5.233   4.142  17.012  0.00  0.00    +0.000 C 
ENDBRANCH  17  20
ENDBRANCH   4  17
TORSDOF 4
ENDMDL
MODEL 8
REMARK VINA RESULT:      -7.5      3.071      3.927
REMARK  Name = 
REMARK  4 active torsions:
REMARK  status: ('A' for Active; 'I' for Inactive)
REMARK    1  A    between atoms: C_2  and  C_10
REMARK    2  A    between atoms: N_3  and  C_4
REMARK    3  A    between atoms: C_13  and  S_14
REMARK    4  A    between atoms: S_14  and  N_17
REMARK                            x       y       z     vdW  Elec       q    Type
REMARK                         _______ _______ _______ _____ _____    ______ ____
ROOT
ATOM      1  C   UNL     1       2.291   7.852  18.503  0.00  0.00    +0.000 A 
ATOM      2  C   UNL     1       1.915   8.997  17.792  0.00  0.00    +0.000 A 
ATOM      3  C   UNL     1       1.263  10.039  18.458  0.00  0.00    +0.000 A 
ATOM      4  C   UNL     1       0.909   9.894  19.806  0.00  0.00    +0.000 A 
ATOM      5  C   UNL     1       1.276   8.745  20.514  0.00  0.00    +0.000 A 
ATOM      6  C   UNL     1       1.955   7.727  19.859  0.00  0.00    +0.000 A 
ENDROOT
BRANCH   1   8
ATOM      7  O   UNL     1       2.749   5.635  18.108  0.00  0.00    +0.000 OA
ATOM      8  C   UNL     1       3.150   6.781  17.953  0.00  0.00    +0.000 C 
ATOM      9  N   UNL     1       4.344   7.153  17.366  0.00  0.00    +0.000 N 
ATOM     10  H   UNL     1       4.617   8.126  17.363  0.00  0.00    +0.000 HD
BRANCH   9  11
ATOM     11  C   UNL     1       5.297   6.226  16.896  0.00  0.00    +0.000 A 
ATOM     12  C   UNL     1       5.297   5.745  15.582  0.00  0.00    +0.000 A 
ATOM     13  C   UNL     1       6.221   4.778  15.184  0.00  0.00    +0.000 A 
ATOM     14  C   UNL     1       7.185   4.335  16.077  0.00  0.00    +0.000 A 
ATOM     15  C   UNL     1       7.203   4.825  17.384  0.00  0.00    +0.000 A 
ATOM     16  C   UNL     1       6.254   5.763  17.795  0.00  0.00    +0.000 A 
ENDBRANCH   9  11
ENDBRANCH   1   8
BRANCH   4  17
ATOM     17  S   UNL     1       0.003  11.213  20.613  0.00  0.00    +0.000 S 
ATOM     18  O   UNL     1      -1.380  11.089  20.208  0.00  0.00    +0.000 OA
ATOM     19  O   UNL     1       0.394  11.202  22.000  0.00  0.00    +0.000 OA
BRANCH  17  20
ATOM     20  N   UNL     1       0.653  12.642  19.889  0.00  0.00    +0.000 NA
ATOM     21  C   UNL     1      -0.338  13.721  19.623  0.00  0.00    +0.000 C 
ATOM     22  C   UNL     1       0.277  14.887  18.855  0.00  0.00    +0.000 C 
ATOM     23  C   UNL     1       1.537  15.403  19.535  0.00  0.00    +0.000 C 
ATOM     24  C   UNL     1       2.541  14.274  19.712  0.00  0.00    +0.000 C 
ATOM     25  C   UNL     1       1.941  13.100  20.475  0.00  0.00    +0.000 C 
ENDBRANCH  17  20
ENDBRANCH   4  17
TORSDOF 4
ENDMDL
MODEL 9
REMARK VINA RESULT:      -7.5      3.655      8.812
REMARK  Name = 
REMARK  4 active torsions:
REMARK  status: ('A' for Active; 'I' for Inactive)
REMARK    1  A    between atoms: C_2  and  C_10
REMARK    2  A    between atoms: N_3  and  C_4
REMARK    3  A    between atoms: C_13  and  S_14
REMARK    4  A    between atoms: S_14  and  N_17
REMARK                            x       y       z     vdW  Elec       q    Type
REMARK                         _______ _______ _______ _____ _____    ______ ____
ROOT
ATOM      1  C   UNL     1       1.583   7.566  20.516  0.00  0.00    +0.000 A 
ATOM      2  C   UNL     1       1.395   6.274  21.016  0.00  0.00    +0.000 A 
ATOM      3  C   UNL     1       1.907   5.180  20.311  0.00  0.00    +0.000 A 
ATOM      4  C   UNL     1       2.523   5.376  19.067  0.00  0.00    +0.000 A 
ATOM      5  C   UNL     1       2.703   6.668  18.564  0.00  0.00    +0.000 A 
ATOM      6  C   UNL     1       2.224   7.755  19.283  0.00  0.00    +0.000 A 
ENDROOT
BRANCH   1   8
ATOM      7  O   UNL     1       1.768   8.907  22.373  0.00  0.00    +0.000 OA
ATOM      8  C   UNL     1       1.259   8.799  21.266  0.00  0.00    +0.000 C 
ATOM      9  N   UNL     1       0.379   9.692  20.685  0.00  0.00    +0.000 N 
ATOM     10  H   UNL     1      -0.048   9.466  19.797  0.00  0.00    +0.000 HD
BRANCH   9  11
ATOM     11  C   UNL     1      -0.089  10.852  21.335  0.00  0.00    +0.000 A 
ATOM     12  C   UNL     1       0.328  12.138  20.976  0.00  0.00    +0.000 A 
ATOM     13  C   UNL     1      -0.114  13.250  21.695  0.00  0.00    +0.000 A 
ATOM     14  C   UNL     1      -1.020  13.087  22.732  0.00  0.00    +0.000 A 
ATOM     15  C   UNL     1      -1.455  11.808  23.083  0.00  0.00    +0.000 A 
ATOM     16  C   UNL     1      -0.984  10.691  22.390  0.00  0.00    +0.000 A 
ENDBRANCH   9  11
ENDBRANCH   1   8
BRANCH   4  17
ATOM     17  S   UNL     1       3.100   3.950  18.149  0.00  0.00    +0.000 S 
ATOM     18  O   UNL     1       3.425   2.924  19.117  0.00  0.00    +0.000 OA
ATOM     19  O   UNL     1       2.151   3.722  17.089  0.00  0.00    +0.000 OA
BRANCH  17  20
ATOM     20  N   UNL     1       4.572   4.505  17.434  0.00  0.00    +0.000 NA
ATOM     21  C   UNL     1       5.767   4.440  18.320  0.00  0.00    +0.000 C 
ATOM     22  C   UNL     1       6.994   5.079  17.675  0.00  0.00    +0.000 C 
ATOM     23  C   UNL     1       7.259   4.508  16.289  0.00  0.00    +0.000 C 
ATOM     24  C   UNL     1       6.031   4.669  15.407  0.00  0.00    +0.000 C 
ATOM     25  C   UNL     1       4.796   4.039  16.040  0.00  0.00    +0.000 C 
ENDBRANCH  17  20
ENDBRANCH   4  17
TORSDOF 4
ENDMDL
