MODEL 1
REMARK VINA RESULT:      -7.8      0.000      0.000
REMARK  Name = 
REMARK  4 active torsions:
REMARK  status: ('A' for Active; 'I' for Inactive)
REMARK    1  A    between atoms: C_2  and  C_3
REMARK    2  A    between atoms: C_3  and  N_4
REMARK    3  A    between atoms: N_11  and  C_12
REMARK    4  A    between atoms: C_17  and  C_18
REMARK                            x       y       z     vdW  Elec       q    Type
REMARK                         _______ _______ _______ _____ _____    ______ ____
ROOT
ATOM      1  O   UNL     1       3.489   4.920  17.214  0.00  0.00    +0.000 OA
ATOM      2  C   UNL     1       4.148   3.961  17.618  0.00  0.00    +0.000 C 
ATOM      3  N   UNL     1       5.519   3.961  17.846  0.00  0.00    +0.000 N 
ATOM      4  H   UNL     1       5.964   3.076  18.062  0.00  0.00    +0.000 HD
ENDROOT
BRANCH   3   5
ATOM      5  C   UNL     1       6.382   5.089  17.748  0.00  0.00    +0.000 A 
ATOM      6  C   UNL     1       7.046   5.599  18.874  0.00  0.00    +0.000 A 
ATOM      7  C   UNL     1       7.880   6.706  18.770  0.00  0.00    +0.000 A 
ATOM      8  C   UNL     1       8.038   7.281  17.531  0.00  0.00    +0.000 A 
ATOM      9  N   UNL     1       7.450   6.810  16.416  0.00  0.00    +0.000 NA
ATOM     10  C   UNL     1       6.634   5.716  16.506  0.00  0.00    +0.000 A 
BRANCH  10  11
ATOM     11  C   UNL     1       6.099   5.224  15.172  0.00  0.00    +0.000 C 
ATOM     12  C   UNL     1       6.953   4.951  13.959  0.00  0.00    +0.000 C 
ATOM     13  C   UNL     1       6.443   3.799  14.766  0.00  0.00    +0.000 C 
ENDBRANCH  10  11
ENDBRANCH   3   5
BRANCH   2  14
ATOM     14  C   UNL     1       3.450   2.623  17.892  0.00  0.00    +0.000 C 
BRANCH  14  15
ATOM     15  N   UNL     1       2.743   2.674  19.177  0.00  0.00    +0.000 N 
ATOM     16  C   UNL     1       1.296   2.874  19.150  0.00  0.00    +0.000 C 
ATOM     17  C   UNL     1       0.721   3.357  20.471  0.00  0.00    +0.000 C 
ATOM     18  C   UNL     1       1.245   2.479  21.591  0.00  0.00    +0.000 C 
ATOM     19  C   UNL     1       2.756   2.602  21.662  0.00  0.00    +0.000 C 
ATOM     20  C   UNL     1       3.468   2.450  20.331  0.00  0.00    +0.000 C 
ATOM     21  O   UNL     1       4.679   2.217  20.303  0.00  0.00    +0.000 OA
ENDBRANCH  14  15
ENDBRANCH   2  14
TORSDOF 4
ENDMDL
MODEL 2
REMARK VINA RESULT:      -7.7      0.994      2.628
REMARK  Name = 
REMARK  4 active torsions:
REMARK  status: ('A' for Active; 'I' for Inactive)
REMARK    1  A    between atoms: C_2  and  C_3
REMARK    2  A    between atoms: C_3  and  N_4
REMARK    3  A    between atoms: N_11  and  C_12
REMARK    4  A    between atoms: C_17  and  C_18
REMARK                            x       y       z     vdW  Elec       q    Type
REMARK                         _______ _______ _______ _____ _____    ______ ____
ROOT
ATOM      1  O   UNL     1       3.252   3.922  16.959  0.00  0.00    +0.000 OA
ATOM      2  C   UNL     1       3.958   2.926  17.120  0.00  0.00    +0.000 C 
ATOM      3  N   UNL     1       5.216   2.729  16.563  0.00  0.00    +0.000 N 
ATOM      4  H   UNL     1       5.645   1.817  16.671  0.00  0.00    +0.000 HD
ENDROOT
BRANCH   3   5
ATOM      5  C   UNL     1       5.946   3.678  15.793  0.00  0.00    +0.000 A 
ATOM      6  C   UNL     1       5.764   3.787  14.406  0.00  0.00    +0.000 A 
ATOM      7  C   UNL     1       6.488   4.711  13.662  0.00  0.00    +0.000 A 
ATOM      8  C   UNL     1       7.383   5.517  14.327  0.00  0.00    +0.000 A 
ATOM      9  N   UNL     1       7.570   5.474  15.658  0.00  0.00    +0.000 NA
ATOM     10  C   UNL     1       6.856   4.573  16.402  0.00  0.00    +0.000 A 
BRANCH  10  11
ATOM     11  C   UNL     1       7.086   4.677  17.900  0.00  0.00    +0.000 C 
ATOM     12  C   UNL     1       7.500   5.940  18.613  0.00  0.00    +0.000 C 
ATOM     13  C   UNL     1       6.078   5.483  18.705  0.00  0.00    +0.000 C 
ENDBRANCH  10  11
ENDBRANCH   3   5
BRANCH   2  14
ATOM     14  C   UNL     1       3.448   1.766  17.984  0.00  0.00    +0.000 C 
BRANCH  14  15
ATOM     15  N   UNL     1       2.754   2.283  19.169  0.00  0.00    +0.000 N 
ATOM     16  C   UNL     1       1.304   2.438  19.094  0.00  0.00    +0.000 C 
ATOM     17  C   UNL     1       0.733   3.372  20.149  0.00  0.00    +0.000 C 
ATOM     18  C   UNL     1       1.287   2.984  21.507  0.00  0.00    +0.000 C 
ATOM     19  C   UNL     1       2.796   3.146  21.501  0.00  0.00    +0.000 C 
ATOM     20  C   UNL     1       3.496   2.518  20.310  0.00  0.00    +0.000 C 
ATOM     21  O   UNL     1       4.711   2.309  20.350  0.00  0.00    +0.000 OA
ENDBRANCH  14  15
ENDBRANCH   2  14
TORSDOF 4
ENDMDL
MODEL 3
REMARK VINA RESULT:      -7.4      1.535      3.107
REMARK  Name = 
REMARK  4 active torsions:
REMARK  status: ('A' for Active; 'I' for Inactive)
REMARK    1  A    between atoms: C_2  and  C_3
REMARK    2  A    between atoms: C_3  and  N_4
REMARK    3  A    between atoms: N_11  and  C_12
REMARK    4  A    between atoms: C_17  and  C_18
REMARK                            x       y       z     vdW  Elec       q    Type
REMARK                         _______ _______ _______ _____ _____    ______ ____
ROOT
ATOM      1  O   UNL     1       3.587   4.497  16.771  0.00  0.00    +0.000 OA
ATOM      2  C   UNL     1       4.228   3.480  17.038  0.00  0.00    +0.000 C 
ATOM      3  N   UNL     1       5.409   3.082  16.422  0.00  0.00    +0.000 N 
ATOM      4  H   UNL     1       5.776   2.165  16.647  0.00  0.00    +0.000 HD
ENDROOT
BRANCH   3   5
ATOM      5  C   UNL     1       6.133   3.826  15.448  0.00  0.00    +0.000 A 
ATOM      6  C   UNL     1       5.989   3.564  14.076  0.00  0.00    +0.000 A 
ATOM      7  C   UNL     1       6.706   4.290  13.133  0.00  0.00    +0.000 A 
ATOM      8  C   UNL     1       7.555   5.274  13.583  0.00  0.00    +0.000 A 
ATOM      9  N   UNL     1       7.703   5.585  14.883  0.00  0.00    +0.000 NA
ATOM     10  C   UNL     1       6.995   4.883  15.821  0.00  0.00    +0.000 A 
BRANCH  10  11
ATOM     11  C   UNL     1       7.176   5.381  17.244  0.00  0.00    +0.000 C 
ATOM     12  C   UNL     1       7.656   6.763  17.609  0.00  0.00    +0.000 C 
ATOM     13  C   UNL     1       6.202   6.438  17.742  0.00  0.00    +0.000 C 
ENDBRANCH  10  11
ENDBRANCH   3   5
BRANCH   2  14
ATOM     14  C   UNL     1       3.716   2.524  18.124  0.00  0.00    +0.000 C 
BRANCH  14  15
ATOM     15  N   UNL     1       2.839   3.240  19.057  0.00  0.00    +0.000 N 
ATOM     16  C   UNL     1       3.439   4.270  19.902  0.00  0.00    +0.000 C 
ATOM     17  C   UNL     1       2.598   4.632  21.115  0.00  0.00    +0.000 C 
ATOM     18  C   UNL     1       1.172   4.890  20.672  0.00  0.00    +0.000 C 
ATOM     19  C   UNL     1       0.597   3.625  20.061  0.00  0.00    +0.000 C 
ATOM     20  C   UNL     1       1.487   2.958  19.029  0.00  0.00    +0.000 C 
ATOM     21  O   UNL     1       1.012   2.127  18.251  0.00  0.00    +0.000 OA
ENDBRANCH  14  15
ENDBRANCH   2  14
TORSDOF 4
ENDMDL
MODEL 4
REMARK VINA RESULT:      -7.3      1.224      1.667
REMARK  Name = 
REMARK  4 active torsions:
REMARK  status: ('A' for Active; 'I' for Inactive)
REMARK    1  A    between atoms: C_2  and  C_3
REMARK    2  A    between atoms: C_3  and  N_4
REMARK    3  A    between atoms: N_11  and  C_12
REMARK    4  A    between atoms: C_17  and  C_18
REMARK                            x       y       z     vdW  Elec       q    Type
REMARK                         _______ _______ _______ _____ _____    ______ ____
ROOT
ATOM      1  O   UNL     1       4.194   5.132  19.409  0.00  0.00    +0.000 OA
ATOM      2  C   UNL     1       4.980   4.202  19.226  0.00  0.00    +0.000 C 
ATOM      3  N   UNL     1       6.237   4.309  18.641  0.00  0.00    +0.000 N 
ATOM      4  H   UNL     1       6.739   3.453  18.436  0.00  0.00    +0.000 HD
ENDROOT
BRANCH   3   5
ATOM      5  C   UNL     1       6.872   5.519  18.243  0.00  0.00    +0.000 A 
ATOM      6  C   UNL     1       7.765   6.188  19.095  0.00  0.00    +0.000 A 
ATOM      7  C   UNL     1       8.374   7.373  18.701  0.00  0.00    +0.000 A 
ATOM      8  C   UNL     1       8.079   7.866  17.451  0.00  0.00    +0.000 A 
ATOM      9  N   UNL     1       7.257   7.247  16.586  0.00  0.00    +0.000 NA
ATOM     10  C   UNL     1       6.659   6.074  16.960  0.00  0.00    +0.000 A 
BRANCH  10  11
ATOM     11  C   UNL     1       5.824   5.422  15.871  0.00  0.00    +0.000 C 
ATOM     12  C   UNL     1       6.335   5.081  14.494  0.00  0.00    +0.000 C 
ATOM     13  C   UNL     1       6.162   3.986  15.500  0.00  0.00    +0.000 C 
ENDBRANCH  10  11
ENDBRANCH   3   5
BRANCH   2  14
ATOM     14  C   UNL     1       4.584   2.780  19.643  0.00  0.00    +0.000 C 
BRANCH  14  15
ATOM     15  N   UNL     1       3.134   2.698  19.850  0.00  0.00    +0.000 N 
ATOM     16  C   UNL     1       2.613   3.062  21.166  0.00  0.00    +0.000 C 
ATOM     17  C   UNL     1       1.214   2.534  21.437  0.00  0.00    +0.000 C 
ATOM     18  C   UNL     1       0.321   2.866  20.257  0.00  0.00    +0.000 C 
ATOM     19  C   UNL     1       0.851   2.177  19.013  0.00  0.00    +0.000 C 
ATOM     20  C   UNL     1       2.338   2.359  18.773  0.00  0.00    +0.000 C 
ATOM     21  O   UNL     1       2.816   2.125  17.661  0.00  0.00    +0.000 OA
ENDBRANCH  14  15
ENDBRANCH   2  14
TORSDOF 4
ENDMDL
MODEL 5
REMARK VINA RESULT:      -7.2      1.085      1.656
REMARK  Name = 
REMARK  4 active torsions:
REMARK  status: ('A' for Active; 'I' for Inactive)
REMARK    1  A    between atoms: C_2  and  C_3
REMARK    2  A    between atoms: C_3  and  N_4
REMARK    3  A    between atoms: N_11  and  C_12
REMARK    4  A    between atoms: C_17  and  C_18
REMARK                            x       y       z     vdW  Elec       q    Type
REMARK                         _______ _______ _______ _____ _____    ______ ____
ROOT
ATOM      1  O   UNL     1       3.498   4.423  16.890  0.00  0.00    +0.000 OA
ATOM      2  C   UNL     1       4.175   3.595  17.500  0.00  0.00    +0.000 C 
ATOM      3  N   UNL     1       5.524   3.724  17.811  0.00  0.00    +0.000 N 
ATOM      4  H   UNL     1       5.998   2.922  18.209  0.00  0.00    +0.000 HD
ENDROOT
BRANCH   3   5
ATOM      5  C   UNL     1       6.330   4.872  17.567  0.00  0.00    +0.000 A 
ATOM      6  C   UNL     1       6.646   5.773  18.596  0.00  0.00    +0.000 A 
ATOM      7  C   UNL     1       7.427   6.895  18.347  0.00  0.00    +0.000 A 
ATOM      8  C   UNL     1       7.884   7.092  17.064  0.00  0.00    +0.000 A 
ATOM      9  N   UNL     1       7.636   6.242  16.052  0.00  0.00    +0.000 NA
ATOM     10  C   UNL     1       6.876   5.129  16.288  0.00  0.00    +0.000 A 
BRANCH  10  11
ATOM     11  C   UNL     1       6.738   4.200  15.094  0.00  0.00    +0.000 C 
ATOM     12  C   UNL     1       5.594   4.237  14.113  0.00  0.00    +0.000 C 
ATOM     13  C   UNL     1       6.917   4.810  13.713  0.00  0.00    +0.000 C 
ENDBRANCH  10  11
ENDBRANCH   3   5
BRANCH   2  14
ATOM     14  C   UNL     1       3.532   2.282  17.965  0.00  0.00    +0.000 C 
BRANCH  14  15
ATOM     15  N   UNL     1       2.780   2.498  19.207  0.00  0.00    +0.000 N 
ATOM     16  C   UNL     1       3.533   2.547  20.457  0.00  0.00    +0.000 C 
ATOM     17  C   UNL     1       2.680   2.321  21.694  0.00  0.00    +0.000 C 
ATOM     18  C   UNL     1       1.457   3.215  21.624  0.00  0.00    +0.000 C 
ATOM     19  C   UNL     1       0.631   2.844  20.406  0.00  0.00    +0.000 C 
ATOM     20  C   UNL     1       1.420   2.721  19.117  0.00  0.00    +0.000 C 
ATOM     21  O   UNL     1       0.835   2.738  18.032  0.00  0.00    +0.000 OA
ENDBRANCH  14  15
ENDBRANCH   2  14
TORSDOF 4
ENDMDL
MODEL 6
REMARK VINA RESULT:      -7.2      1.807      3.385
REMARK  Name = 
REMARK  4 active torsions:
REMARK  status: ('A' for Active; 'I' for Inactive)
REMARK    1  A    between atoms: C_2  and  C_3
REMARK    2  A    between atoms: C_3  and  N_4
REMARK    3  A    between atoms: N_11  and  C_12
REMARK    4  A    between atoms: C_17  and  C_18
REMARK                            x       y       z     vdW  Elec       q    Type
REMARK                         _______ _______ _______ _____ _____    ______ ____
ROOT
ATOM      1  O   UNL     1       3.854   7.476  17.423  0.00  0.00    +0.000 OA
ATOM      2  C   UNL     1       3.476   6.373  17.819  0.00  0.00    +0.000 C 
ATOM      3  N   UNL     1       4.001   5.149  17.422  0.00  0.00    +0.000 N 
ATOM      4  H   UNL     1       3.525   4.307  17.727  0.00  0.00    +0.000 HD
ENDROOT
BRANCH   3   5
ATOM      5  C   UNL     1       5.124   4.959  16.568  0.00  0.00    +0.000 A 
ATOM      6  C   UNL     1       4.967   4.529  15.242  0.00  0.00    +0.000 A 
ATOM      7  C   UNL     1       6.070   4.339  14.418  0.00  0.00    +0.000 A 
ATOM      8  C   UNL     1       7.317   4.590  14.941  0.00  0.00    +0.000 A 
ATOM      9  N   UNL     1       7.518   5.034  16.194  0.00  0.00    +0.000 NA
ATOM     10  C   UNL     1       6.438   5.234  17.011  0.00  0.00    +0.000 A 
BRANCH  10  11
ATOM     11  C   UNL     1       6.782   5.820  18.370  0.00  0.00    +0.000 C 
ATOM     12  C   UNL     1       8.097   5.616  19.078  0.00  0.00    +0.000 C 
ATOM     13  C   UNL     1       7.825   6.926  18.407  0.00  0.00    +0.000 C 
ENDBRANCH  10  11
ENDBRANCH   3   5
BRANCH   2  14
ATOM     14  C   UNL     1       2.321   6.282  18.824  0.00  0.00    +0.000 C 
BRANCH  14  15
ATOM     15  N   UNL     1       2.137   4.893  19.260  0.00  0.00    +0.000 N 
ATOM     16  C   UNL     1       2.599   4.533  20.598  0.00  0.00    +0.000 C 
ATOM     17  C   UNL     1       2.787   3.039  20.799  0.00  0.00    +0.000 C 
ATOM     18  C   UNL     1       1.549   2.312  20.311  0.00  0.00    +0.000 C 
ATOM     19  C   UNL     1       1.367   2.569  18.826  0.00  0.00    +0.000 C 
ATOM     20  C   UNL     1       1.468   4.027  18.417  0.00  0.00    +0.000 C 
ATOM     21  O   UNL     1       1.034   4.391  17.322  0.00  0.00    +0.000 OA
ENDBRANCH  14  15
ENDBRANCH   2  14
TORSDOF 4
ENDMDL
MODEL 7
REMARK VINA RESULT:      -7.1      1.227      1.583
REMARK  Name = 
REMARK  4 active torsions:
REMARK  status: ('A' for Active; 'I' for Inactive)
REMARK    1  A    between atoms: C_2  and  C_3
REMARK    2  A    between atoms: C_3  and  N_4
REMARK    3  A    between atoms: N_11  and  C_12
REMARK    4  A    between atoms: C_17  and  C_18
REMARK                            x       y       z     vdW  Elec       q    Type
REMARK                         _______ _______ _______ _____ _____    ______ ____
ROOT
ATOM      1  O   UNL     1       4.322   5.205  19.799  0.00  0.00    +0.000 OA
ATOM      2  C   UNL     1       4.996   4.238  19.445  0.00  0.00    +0.000 C 
ATOM      3  N   UNL     1       6.156   4.297  18.681  0.00  0.00    +0.000 N 
ATOM      4  H   UNL     1       6.554   3.425  18.353  0.00  0.00    +0.000 HD
ENDROOT
BRANCH   3   5
ATOM      5  C   UNL     1       6.818   5.485  18.258  0.00  0.00    +0.000 A 
ATOM      6  C   UNL     1       7.728   6.150  19.095  0.00  0.00    +0.000 A 
ATOM      7  C   UNL     1       8.363   7.313  18.677  0.00  0.00    +0.000 A 
ATOM      8  C   UNL     1       8.075   7.789  17.419  0.00  0.00    +0.000 A 
ATOM      9  N   UNL     1       7.236   7.172  16.568  0.00  0.00    +0.000 NA
ATOM     10  C   UNL     1       6.612   6.020  16.966  0.00  0.00    +0.000 A 
BRANCH  10  11
ATOM     11  C   UNL     1       5.759   5.368  15.892  0.00  0.00    +0.000 C 
ATOM     12  C   UNL     1       6.217   5.112  14.478  0.00  0.00    +0.000 C 
ATOM     13  C   UNL     1       6.155   3.970  15.442  0.00  0.00    +0.000 C 
ENDBRANCH  10  11
ENDBRANCH   3   5
BRANCH   2  14
ATOM     14  C   UNL     1       4.558   2.821  19.838  0.00  0.00    +0.000 C 
BRANCH  14  15
ATOM     15  N   UNL     1       3.106   2.677  19.675  0.00  0.00    +0.000 N 
ATOM     16  C   UNL     1       2.584   2.551  18.317  0.00  0.00    +0.000 C 
ATOM     17  C   UNL     1       1.099   2.856  18.202  0.00  0.00    +0.000 C 
ATOM     18  C   UNL     1       0.350   2.085  19.272  0.00  0.00    +0.000 C 
ATOM     19  C   UNL     1       0.820   2.538  20.642  0.00  0.00    +0.000 C 
ATOM     20  C   UNL     1       2.327   2.588  20.812  0.00  0.00    +0.000 C 
ATOM     21  O   UNL     1       2.819   2.630  21.942  0.00  0.00    +0.000 OA
ENDBRANCH  14  15
ENDBRANCH   2  14
TORSDOF 4
ENDMDL
MODEL 8
REMARK VINA RESULT:      -7.0      1.698      3.063
REMARK  Name = 
REMARK  4 active torsions:
REMARK  status: ('A' for Active; 'I' for Inactive)
REMARK    1  A    between atoms: C_2  and  C_3
REMARK    2  A    between atoms: C_3  and  N_4
REMARK    3  A    between atoms: N_11  and  C_12
REMARK    4  A    between atoms: C_17  and  C_18
REMARK                            x       y       z     vdW  Elec       q    Type
REMARK                         _______ _______ _______ _____ _____    ______ ____
ROOT
ATOM      1  O   UNL     1       3.305   7.177  17.371  0.00  0.00    +0.000 OA
ATOM      2  C   UNL     1       3.444   6.195  18.100  0.00  0.00    +0.000 C 
ATOM      3  N   UNL     1       4.320   5.139  17.875  0.00  0.00    +0.000 N 
ATOM      4  H   UNL     1       4.255   4.332  18.484  0.00  0.00    +0.000 HD
ENDROOT
BRANCH   3   5
ATOM      5  C   UNL     1       5.273   5.055  16.821  0.00  0.00    +0.000 A 
ATOM      6  C   UNL     1       5.052   4.238  15.702  0.00  0.00    +0.000 A 
ATOM      7  C   UNL     1       5.992   4.157  14.682  0.00  0.00    +0.000 A 
ATOM      8  C   UNL     1       7.141   4.903  14.801  0.00  0.00    +0.000 A 
ATOM      9  N   UNL     1       7.385   5.725  15.837  0.00  0.00    +0.000 NA
ATOM     10  C   UNL     1       6.462   5.820  16.843  0.00  0.00    +0.000 A 
BRANCH  10  11
ATOM     11  C   UNL     1       6.805   6.843  17.912  0.00  0.00    +0.000 C 
ATOM     12  C   UNL     1       8.166   6.991  18.545  0.00  0.00    +0.000 C 
ATOM     13  C   UNL     1       7.729   7.984  17.515  0.00  0.00    +0.000 C 
ENDBRANCH  10  11
ENDBRANCH   3   5
BRANCH   2  14
ATOM     14  C   UNL     1       2.592   6.065  19.369  0.00  0.00    +0.000 C 
BRANCH  14  15
ATOM     15  N   UNL     1       2.056   4.703  19.482  0.00  0.00    +0.000 N 
ATOM     16  C   UNL     1       1.584   4.055  18.261  0.00  0.00    +0.000 C 
ATOM     17  C   UNL     1       0.658   2.876  18.514  0.00  0.00    +0.000 C 
ATOM     18  C   UNL     1       1.288   1.962  19.546  0.00  0.00    +0.000 C 
ATOM     19  C   UNL     1       1.457   2.717  20.852  0.00  0.00    +0.000 C 
ATOM     20  C   UNL     1       2.101   4.084  20.716  0.00  0.00    +0.000 C 
ATOM     21  O   UNL     1       2.571   4.645  21.708  0.00  0.00    +0.000 OA
ENDBRANCH  14  15
ENDBRANCH   2  14
TORSDOF 4
ENDMDL
MODEL 9
REMARK VINA RESULT:      -7.0      1.613      1.857
REMARK  Name = 
REMARK  4 active torsions:
REMARK  status: ('A' for Active; 'I' for Inactive)
REMARK    1  A    between atoms: C_2  and  C_3
REMARK    2  A    between atoms: C_3  and  N_4
REMARK    3  A    between atoms: N_11  and  C_12
REMARK    4  A    between atoms: C_17  and  C_18
REMARK                            x       y       z     vdW  Elec       q    Type
REMARK                         _______ _______ _______ _____ _____    ______ ____
ROOT
ATOM      1  O   UNL     1       3.162   7.044  17.764  0.00  0.00    +0.000 OA
ATOM      2  C   UNL     1       3.107   5.826  17.932  0.00  0.00    +0.000 C 
ATOM      3  N   UNL     1       4.200   4.977  18.064  0.00  0.00    +0.000 N 
ATOM      4  H   UNL     1       4.027   3.979  18.077  0.00  0.00    +0.000 HD
ENDROOT
BRANCH   3   5
ATOM      5  C   UNL     1       5.565   5.378  18.126  0.00  0.00    +0.000 A 
ATOM      6  C   UNL     1       6.236   5.495  19.353  0.00  0.00    +0.000 A 
ATOM      7  C   UNL     1       7.566   5.895  19.404  0.00  0.00    +0.000 A 
ATOM      8  C   UNL     1       8.204   6.167  18.216  0.00  0.00    +0.000 A 
ATOM      9  N   UNL     1       7.616   6.038  17.014  0.00  0.00    +0.000 NA
ATOM     10  C   UNL     1       6.309   5.637  16.951  0.00  0.00    +0.000 A 
BRANCH  10  11
ATOM     11  C   UNL     1       5.780   5.443  15.540  0.00  0.00    +0.000 C 
ATOM     12  C   UNL     1       6.615   4.978  14.374  0.00  0.00    +0.000 C 
ATOM     13  C   UNL     1       5.674   4.015  15.026  0.00  0.00    +0.000 C 
ENDBRANCH  10  11
ENDBRANCH   3   5
BRANCH   2  14
ATOM     14  C   UNL     1       1.742   5.128  17.992  0.00  0.00    +0.000 C 
BRANCH  14  15
ATOM     15  N   UNL     1       1.681   4.232  19.152  0.00  0.00    +0.000 N 
ATOM     16  C   UNL     1       1.722   4.836  20.481  0.00  0.00    +0.000 C 
ATOM     17  C   UNL     1       2.103   3.862  21.584  0.00  0.00    +0.000 C 
ATOM     18  C   UNL     1       1.259   2.610  21.454  0.00  0.00    +0.000 C 
ATOM     19  C   UNL     1       1.545   1.946  20.119  0.00  0.00    +0.000 C 
ATOM     20  C   UNL     1       1.508   2.880  18.925  0.00  0.00    +0.000 C 
ATOM     21  O   UNL     1       1.410   2.420  17.785  0.00  0.00    +0.000 OA
ENDBRANCH  14  15
ENDBRANCH   2  14
TORSDOF 4
ENDMDL
