MODEL 1
REMARK VINA RESULT:      -7.8      0.000      0.000
REMARK  Name = 
REMARK  10 active torsions:
REMARK  status: ('A' for Active; 'I' for Inactive)
REMARK    1  A    between atoms: C_1  and  C_2
REMARK    2  A    between atoms: C_2  and  C_3
REMARK    3  A    between atoms: C_2  and  C_22
REMARK    4  A    between atoms: C_4  and  C_5
REMARK    5  A    between atoms: C_5  and  C_6
REMARK    6  A    between atoms: C_6  and  N_7
REMARK    7  A    between atoms: N_7  and  C_8
REMARK    8  A    between atoms: N_7  and  C_9
REMARK    9  A    between atoms: C_9  and  C_10
REMARK   10  A    between atoms: C_10  and  C_11
REMARK                            x       y       z     vdW  Elec       q    Type
REMARK                         _______ _______ _______ _____ _____    ______ ____
ROOT
ATOM      1  C   UNL     1       3.687   5.614  17.608  0.00  0.00    +0.000 C 
ATOM      2  C   UNL     1       2.791   6.550  18.042  0.00  0.00    +0.000 C 
ATOM      3  C   UNL     1       1.548   5.906  18.636  0.00  0.00    +0.000 C 
ATOM      4  C   UNL     1       1.831   4.467  18.448  0.00  0.00    +0.000 A 
ATOM      5  C   UNL     1       1.011   3.390  18.784  0.00  0.00    +0.000 A 
ATOM      6  C   UNL     1       1.472   2.103  18.512  0.00  0.00    +0.000 A 
ATOM      7  C   UNL     1       2.728   1.912  17.928  0.00  0.00    +0.000 A 
ATOM      8  C   UNL     1       3.543   3.001  17.606  0.00  0.00    +0.000 A 
ATOM      9  C   UNL     1       3.084   4.287  17.864  0.00  0.00    +0.000 A 
ENDROOT
BRANCH   1  11
ATOM     10  C   UNL     1       5.102   6.419  15.604  0.00  0.00    +0.000 C 
ATOM     11  C   UNL     1       5.054   5.666  16.936  0.00  0.00    +0.000 C 
BRANCH  11  12
ATOM     12  C   UNL     1       6.181   5.991  17.909  0.00  0.00    +0.000 A 
ATOM     13  C   UNL     1       6.398   5.254  19.067  0.00  0.00    +0.000 A 
ATOM     14  N   UNL     1       7.490   5.411  19.859  0.00  0.00    +0.000 NA
ATOM     15  C   UNL     1       8.367   6.355  19.455  0.00  0.00    +0.000 A 
ATOM     16  C   UNL     1       8.141   7.145  18.348  0.00  0.00    +0.000 A 
ATOM     17  N   UNL     1       7.048   6.985  17.555  0.00  0.00    +0.000 NA
ENDBRANCH  11  12
ENDBRANCH   1  11
BRANCH   2  18
ATOM     18  C   UNL     1       2.834   8.061  18.016  0.00  0.00    +0.000 C 
BRANCH  18  19
ATOM     19  C   UNL     1       1.475   8.835  17.952  0.00  0.00    +0.000 C 
BRANCH  19  20
ATOM     20  N   UNL     1       1.137   9.803  19.022  0.00  0.00    +0.000 NA
ATOM     21  C   UNL     1      -0.070  10.576  18.685  0.00  0.00    +0.000 C 
BRANCH  20  22
ATOM     22  C   UNL     1       0.899   9.128  20.324  0.00  0.00    +0.000 C 
BRANCH  22  23
ATOM     23  C   UNL     1       0.795  10.043  21.546  0.00  0.00    +0.000 C 
BRANCH  23  24
ATOM     24  C   UNL     1      -0.238   9.524  22.529  0.00  0.00    +0.000 C 
ATOM     25  F   UNL     1       0.273   9.296  23.758  0.00  0.00    +0.000 F 
ATOM     26  F   UNL     1      -1.244  10.418  22.673  0.00  0.00    +0.000 F 
ATOM     27  F   UNL     1      -0.786   8.369  22.094  0.00  0.00    +0.000 F 
ENDBRANCH  23  24
ENDBRANCH  22  23
ENDBRANCH  20  22
ENDBRANCH  19  20
ENDBRANCH  18  19
ENDBRANCH   2  18
TORSDOF 8
ENDMDL
MODEL 2
REMARK VINA RESULT:      -7.6      1.234      1.412
REMARK  Name = 
REMARK  10 active torsions:
REMARK  status: ('A' for Active; 'I' for Inactive)
REMARK    1  A    between atoms: C_1  and  C_2
REMARK    2  A    between atoms: C_2  and  C_3
REMARK    3  A    between atoms: C_2  and  C_22
REMARK    4  A    between atoms: C_4  and  C_5
REMARK    5  A    between atoms: C_5  and  C_6
REMARK    6  A    between atoms: C_6  and  N_7
REMARK    7  A    between atoms: N_7  and  C_8
REMARK    8  A    between atoms: N_7  and  C_9
REMARK    9  A    between atoms: C_9  and  C_10
REMARK   10  A    between atoms: C_10  and  C_11
REMARK                            x       y       z     vdW  Elec       q    Type
REMARK                         _______ _______ _______ _____ _____    ______ ____
ROOT
ATOM      1  C   UNL     1       3.596   5.490  18.381  0.00  0.00    +0.000 C 
ATOM      2  C   UNL     1       2.806   6.597  18.510  0.00  0.00    +0.000 C 
ATOM      3  C   UNL     1       1.641   6.350  19.456  0.00  0.00    +0.000 C 
ATOM      4  C   UNL     1       1.844   4.932  19.824  0.00  0.00    +0.000 A 
ATOM      5  C   UNL     1       1.044   4.149  20.657  0.00  0.00    +0.000 A 
ATOM      6  C   UNL     1       1.416   2.823  20.867  0.00  0.00    +0.000 A 
ATOM      7  C   UNL     1       2.566   2.308  20.262  0.00  0.00    +0.000 A 
ATOM      8  C   UNL     1       3.362   3.107  19.437  0.00  0.00    +0.000 A 
ATOM      9  C   UNL     1       2.991   4.427  19.215  0.00  0.00    +0.000 A 
ENDROOT
BRANCH   1  11
ATOM     10  C   UNL     1       4.643   4.960  16.081  0.00  0.00    +0.000 C 
ATOM     11  C   UNL     1       4.852   5.152  17.585  0.00  0.00    +0.000 C 
BRANCH  11  12
ATOM     12  C   UNL     1       6.048   6.015  17.971  0.00  0.00    +0.000 A 
ATOM     13  C   UNL     1       6.946   5.638  18.963  0.00  0.00    +0.000 A 
ATOM     14  N   UNL     1       8.108   6.296  19.209  0.00  0.00    +0.000 NA
ATOM     15  C   UNL     1       8.340   7.371  18.425  0.00  0.00    +0.000 A 
ATOM     16  C   UNL     1       7.433   7.804  17.481  0.00  0.00    +0.000 A 
ATOM     17  N   UNL     1       6.272   7.143  17.235  0.00  0.00    +0.000 NA
ENDBRANCH  11  12
ENDBRANCH   1  11
BRANCH   2  18
ATOM     18  C   UNL     1       2.898   7.968  17.879  0.00  0.00    +0.000 C 
BRANCH  18  19
ATOM     19  C   UNL     1       1.629   8.884  17.923  0.00  0.00    +0.000 C 
BRANCH  19  20
ATOM     20  N   UNL     1       1.489   9.883  19.009  0.00  0.00    +0.000 NA
ATOM     21  C   UNL     1       1.664  11.255  18.502  0.00  0.00    +0.000 C 
BRANCH  20  22
ATOM     22  C   UNL     1       0.158   9.804  19.664  0.00  0.00    +0.000 C 
BRANCH  22  23
ATOM     23  C   UNL     1       0.118  10.176  21.148  0.00  0.00    +0.000 C 
BRANCH  23  24
ATOM     24  C   UNL     1       0.146   8.936  22.022  0.00  0.00    +0.000 C 
ATOM     25  F   UNL     1      -0.212   9.184  23.300  0.00  0.00    +0.000 F 
ATOM     26  F   UNL     1      -0.706   8.000  21.542  0.00  0.00    +0.000 F 
ATOM     27  F   UNL     1       1.378   8.383  22.043  0.00  0.00    +0.000 F 
ENDBRANCH  23  24
ENDBRANCH  22  23
ENDBRANCH  20  22
ENDBRANCH  19  20
ENDBRANCH  18  19
ENDBRANCH   2  18
TORSDOF 8
ENDMDL
MODEL 3
REMARK VINA RESULT:      -7.6      2.203      2.818
REMARK  Name = 
REMARK  10 active torsions:
REMARK  status: ('A' for Active; 'I' for Inactive)
REMARK    1  A    between atoms: C_1  and  C_2
REMARK    2  A    between atoms: C_2  and  C_3
REMARK    3  A    between atoms: C_2  and  C_22
REMARK    4  A    between atoms: C_4  and  C_5
REMARK    5  A    between atoms: C_5  and  C_6
REMARK    6  A    between atoms: C_6  and  N_7
REMARK    7  A    between atoms: N_7  and  C_8
REMARK    8  A    between atoms: N_7  and  C_9
REMARK    9  A    between atoms: C_9  and  C_10
REMARK   10  A    between atoms: C_10  and  C_11
REMARK                            x       y       z     vdW  Elec       q    Type
REMARK                         _______ _______ _______ _____ _____    ______ ____
ROOT
ATOM      1  C   UNL     1       2.687   5.913  18.749  0.00  0.00    +0.000 C 
ATOM      2  C   UNL     1       2.028   6.417  19.835  0.00  0.00    +0.000 C 
ATOM      3  C   UNL     1       1.239   5.341  20.564  0.00  0.00    +0.000 C 
ATOM      4  C   UNL     1       1.498   4.152  19.723  0.00  0.00    +0.000 A 
ATOM      5  C   UNL     1       0.994   2.863  19.898  0.00  0.00    +0.000 A 
ATOM      6  C   UNL     1       1.364   1.883  18.978  0.00  0.00    +0.000 A 
ATOM      7  C   UNL     1       2.224   2.195  17.922  0.00  0.00    +0.000 A 
ATOM      8  C   UNL     1       2.729   3.489  17.765  0.00  0.00    +0.000 A 
ATOM      9  C   UNL     1       2.355   4.473  18.672  0.00  0.00    +0.000 A 
ENDROOT
BRANCH   1  11
ATOM     10  C   UNL     1       3.427   8.006  17.429  0.00  0.00    +0.000 C 
ATOM     11  C   UNL     1       3.590   6.503  17.671  0.00  0.00    +0.000 C 
BRANCH  11  12
ATOM     12  C   UNL     1       5.029   6.012  17.769  0.00  0.00    +0.000 A 
ATOM     13  C   UNL     1       5.598   5.615  18.974  0.00  0.00    +0.000 A 
ATOM     14  N   UNL     1       6.812   5.015  19.066  0.00  0.00    +0.000 NA
ATOM     15  C   UNL     1       7.457   4.833  17.893  0.00  0.00    +0.000 A 
ATOM     16  C   UNL     1       6.944   5.278  16.694  0.00  0.00    +0.000 A 
ATOM     17  N   UNL     1       5.727   5.877  16.604  0.00  0.00    +0.000 NA
ENDBRANCH  11  12
ENDBRANCH   1  11
BRANCH   2  18
ATOM     18  C   UNL     1       1.956   7.819  20.398  0.00  0.00    +0.000 C 
BRANCH  18  19
ATOM     19  C   UNL     1       0.948   8.092  21.564  0.00  0.00    +0.000 C 
BRANCH  19  20
ATOM     20  N   UNL     1      -0.161   9.053  21.358  0.00  0.00    +0.000 NA
ATOM     21  C   UNL     1      -0.439   9.823  22.583  0.00  0.00    +0.000 C 
BRANCH  20  22
ATOM     22  C   UNL     1       0.140  10.018  20.269  0.00  0.00    +0.000 C 
BRANCH  22  23
ATOM     23  C   UNL     1      -1.065  10.739  19.660  0.00  0.00    +0.000 C 
BRANCH  23  24
ATOM     24  C   UNL     1      -1.238  10.370  18.198  0.00  0.00    +0.000 C 
ATOM     25  F   UNL     1      -0.213   9.634  17.716  0.00  0.00    +0.000 F 
ATOM     26  F   UNL     1      -2.367   9.644  18.024  0.00  0.00    +0.000 F 
ATOM     27  F   UNL     1      -1.346  11.473  17.426  0.00  0.00    +0.000 F 
ENDBRANCH  23  24
ENDBRANCH  22  23
ENDBRANCH  20  22
ENDBRANCH  19  20
ENDBRANCH  18  19
ENDBRANCH   2  18
TORSDOF 8
ENDMDL
MODEL 4
REMARK VINA RESULT:      -7.6      0.660      1.214
REMARK  Name = 
REMARK  10 active torsions:
REMARK  status: ('A' for Active; 'I' for Inactive)
REMARK    1  A    between atoms: C_1  and  C_2
REMARK    2  A    between atoms: C_2  and  C_3
REMARK    3  A    between atoms: C_2  and  C_22
REMARK    4  A    between atoms: C_4  and  C_5
REMARK    5  A    between atoms: C_5  and  C_6
REMARK    6  A    between atoms: C_6  and  N_7
REMARK    7  A    between atoms: N_7  and  C_8
REMARK    8  A    between atoms: N_7  and  C_9
REMARK    9  A    between atoms: C_9  and  C_10
REMARK   10  A    between atoms: C_10  and  C_11
REMARK                            x       y       z     vdW  Elec       q    Type
REMARK                         _______ _______ _______ _____ _____    ______ ____
ROOT
ATOM      1  C   UNL     1       3.740   5.772  17.499  0.00  0.00    +0.000 C 
ATOM      2  C   UNL     1       2.908   6.676  18.097  0.00  0.00    +0.000 C 
ATOM      3  C   UNL     1       1.786   5.989  18.859  0.00  0.00    +0.000 C 
ATOM      4  C   UNL     1       2.060   4.562  18.582  0.00  0.00    +0.000 A 
ATOM      5  C   UNL     1       1.321   3.458  19.009  0.00  0.00    +0.000 A 
ATOM      6  C   UNL     1       1.755   2.191  18.627  0.00  0.00    +0.000 A 
ATOM      7  C   UNL     1       2.906   2.043  17.848  0.00  0.00    +0.000 A 
ATOM      8  C   UNL     1       3.642   3.159  17.436  0.00  0.00    +0.000 A 
ATOM      9  C   UNL     1       3.208   4.426  17.804  0.00  0.00    +0.000 A 
ENDROOT
BRANCH   1  11
ATOM     10  C   UNL     1       4.814   6.684  15.334  0.00  0.00    +0.000 C 
ATOM     11  C   UNL     1       4.983   5.873  16.621  0.00  0.00    +0.000 C 
BRANCH  11  12
ATOM     12  C   UNL     1       6.248   6.173  17.418  0.00  0.00    +0.000 A 
ATOM     13  C   UNL     1       6.983   7.339  17.233  0.00  0.00    +0.000 A 
ATOM     14  N   UNL     1       8.009   7.711  18.041  0.00  0.00    +0.000 NA
ATOM     15  C   UNL     1       8.289   6.859  19.050  0.00  0.00    +0.000 A 
ATOM     16  C   UNL     1       7.619   5.665  19.213  0.00  0.00    +0.000 A 
ATOM     17  N   UNL     1       6.591   5.295  18.405  0.00  0.00    +0.000 NA
ENDBRANCH  11  12
ENDBRANCH   1  11
BRANCH   2  18
ATOM     18  C   UNL     1       2.922   8.188  18.113  0.00  0.00    +0.000 C 
BRANCH  18  19
ATOM     19  C   UNL     1       1.594   8.939  17.759  0.00  0.00    +0.000 C 
BRANCH  19  20
ATOM     20  N   UNL     1       1.017   9.896  18.732  0.00  0.00    +0.000 NA
ATOM     21  C   UNL     1      -0.369  10.248  18.383  0.00  0.00    +0.000 C 
BRANCH  20  22
ATOM     22  C   UNL     1       1.016   9.346  20.113  0.00  0.00    +0.000 C 
BRANCH  22  23
ATOM     23  C   UNL     1       0.451  10.264  21.200  0.00  0.00    +0.000 C 
BRANCH  23  24
ATOM     24  C   UNL     1      -0.181   9.457  22.319  0.00  0.00    +0.000 C 
ATOM     25  F   UNL     1      -1.186  10.113  22.938  0.00  0.00    +0.000 F 
ATOM     26  F   UNL     1      -0.695   8.301  21.836  0.00  0.00    +0.000 F 
ATOM     27  F   UNL     1       0.732   9.128  23.259  0.00  0.00    +0.000 F 
ENDBRANCH  23  24
ENDBRANCH  22  23
ENDBRANCH  20  22
ENDBRANCH  19  20
ENDBRANCH  18  19
ENDBRANCH   2  18
TORSDOF 8
ENDMDL
MODEL 5
REMARK VINA RESULT:      -7.5      1.308      1.802
REMARK  Name = 
REMARK  10 active torsions:
REMARK  status: ('A' for Active; 'I' for Inactive)
REMARK    1  A    between atoms: C_1  and  C_2
REMARK    2  A    between atoms: C_2  and  C_3
REMARK    3  A    between atoms: C_2  and  C_22
REMARK    4  A    between atoms: C_4  and  C_5
REMARK    5  A    between atoms: C_5  and  C_6
REMARK    6  A    between atoms: C_6  and  N_7
REMARK    7  A    between atoms: N_7  and  C_8
REMARK    8  A    between atoms: N_7  and  C_9
REMARK    9  A    between atoms: C_9  and  C_10
REMARK   10  A    between atoms: C_10  and  C_11
REMARK                            x       y       z     vdW  Elec       q    Type
REMARK                         _______ _______ _______ _____ _____    ______ ____
ROOT
ATOM      1  C   UNL     1       3.657   5.170  18.483  0.00  0.00    +0.000 C 
ATOM      2  C   UNL     1       2.963   6.329  18.686  0.00  0.00    +0.000 C 
ATOM      3  C   UNL     1       1.879   6.159  19.739  0.00  0.00    +0.000 C 
ATOM      4  C   UNL     1       2.017   4.728  20.088  0.00  0.00    +0.000 A 
ATOM      5  C   UNL     1       1.247   3.999  20.994  0.00  0.00    +0.000 A 
ATOM      6  C   UNL     1       1.544   2.648  21.169  0.00  0.00    +0.000 A 
ATOM      7  C   UNL     1       2.592   2.057  20.457  0.00  0.00    +0.000 A 
ATOM      8  C   UNL     1       3.360   2.804  19.559  0.00  0.00    +0.000 A 
ATOM      9  C   UNL     1       3.062   4.148  19.372  0.00  0.00    +0.000 A 
ENDROOT
BRANCH   1  11
ATOM     10  C   UNL     1       4.433   4.552  16.098  0.00  0.00    +0.000 C 
ATOM     11  C   UNL     1       4.804   4.751  17.570  0.00  0.00    +0.000 C 
BRANCH  11  12
ATOM     12  C   UNL     1       6.080   5.548  17.817  0.00  0.00    +0.000 A 
ATOM     13  C   UNL     1       6.440   6.637  17.032  0.00  0.00    +0.000 A 
ATOM     14  N   UNL     1       7.473   7.465  17.331  0.00  0.00    +0.000 NA
ATOM     15  C   UNL     1       8.156   7.156  18.454  0.00  0.00    +0.000 A 
ATOM     16  C   UNL     1       7.861   6.042  19.212  0.00  0.00    +0.000 A 
ATOM     17  N   UNL     1       6.825   5.215  18.912  0.00  0.00    +0.000 NA
ENDBRANCH  11  12
ENDBRANCH   1  11
BRANCH   2  18
ATOM     18  C   UNL     1       3.089   7.695  18.048  0.00  0.00    +0.000 C 
BRANCH  18  19
ATOM     19  C   UNL     1       1.777   8.425  17.607  0.00  0.00    +0.000 C 
BRANCH  19  20
ATOM     20  N   UNL     1       1.356   9.657  18.314  0.00  0.00    +0.000 NA
ATOM     21  C   UNL     1      -0.020  10.039  17.956  0.00  0.00    +0.000 C 
BRANCH  20  22
ATOM     22  C   UNL     1       1.417   9.496  19.790  0.00  0.00    +0.000 C 
BRANCH  22  23
ATOM     23  C   UNL     1       0.107   9.726  20.545  0.00  0.00    +0.000 C 
BRANCH  23  24
ATOM     24  C   UNL     1       0.094   8.964  21.858  0.00  0.00    +0.000 C 
ATOM     25  F   UNL     1      -0.857   8.006  21.901  0.00  0.00    +0.000 F 
ATOM     26  F   UNL     1       1.285   8.354  22.062  0.00  0.00    +0.000 F 
ATOM     27  F   UNL     1      -0.116   9.796  22.901  0.00  0.00    +0.000 F 
ENDBRANCH  23  24
ENDBRANCH  22  23
ENDBRANCH  20  22
ENDBRANCH  19  20
ENDBRANCH  18  19
ENDBRANCH   2  18
TORSDOF 8
ENDMDL
MODEL 6
REMARK VINA RESULT:      -7.5      1.525      2.332
REMARK  Name = 
REMARK  10 active torsions:
REMARK  status: ('A' for Active; 'I' for Inactive)
REMARK    1  A    between atoms: C_1  and  C_2
REMARK    2  A    between atoms: C_2  and  C_3
REMARK    3  A    between atoms: C_2  and  C_22
REMARK    4  A    between atoms: C_4  and  C_5
REMARK    5  A    between atoms: C_5  and  C_6
REMARK    6  A    between atoms: C_6  and  N_7
REMARK    7  A    between atoms: N_7  and  C_8
REMARK    8  A    between atoms: N_7  and  C_9
REMARK    9  A    between atoms: C_9  and  C_10
REMARK   10  A    between atoms: C_10  and  C_11
REMARK                            x       y       z     vdW  Elec       q    Type
REMARK                         _______ _______ _______ _____ _____    ______ ____
ROOT
ATOM      1  C   UNL     1       3.962   5.779  18.170  0.00  0.00    +0.000 C 
ATOM      2  C   UNL     1       2.913   6.653  18.180  0.00  0.00    +0.000 C 
ATOM      3  C   UNL     1       1.589   5.941  18.413  0.00  0.00    +0.000 C 
ATOM      4  C   UNL     1       2.015   4.527  18.494  0.00  0.00    +0.000 A 
ATOM      5  C   UNL     1       1.203   3.406  18.670  0.00  0.00    +0.000 A 
ATOM      6  C   UNL     1       1.814   2.154  18.711  0.00  0.00    +0.000 A 
ATOM      7  C   UNL     1       3.202   2.041  18.589  0.00  0.00    +0.000 A 
ATOM      8  C   UNL     1       4.003   3.175  18.422  0.00  0.00    +0.000 A 
ATOM      9  C   UNL     1       3.399   4.425  18.369  0.00  0.00    +0.000 A 
ENDROOT
BRANCH   1  11
ATOM     10  C   UNL     1       6.331   5.334  19.097  0.00  0.00    +0.000 C 
ATOM     11  C   UNL     1       5.468   5.910  17.971  0.00  0.00    +0.000 C 
BRANCH  11  12
ATOM     12  C   UNL     1       5.914   5.549  16.559  0.00  0.00    +0.000 A 
ATOM     13  C   UNL     1       7.225   5.718  16.128  0.00  0.00    +0.000 A 
ATOM     14  N   UNL     1       7.687   5.249  14.941  0.00  0.00    +0.000 NA
ATOM     15  C   UNL     1       6.777   4.605  14.179  0.00  0.00    +0.000 A 
ATOM     16  C   UNL     1       5.456   4.484  14.555  0.00  0.00    +0.000 A 
ATOM     17  N   UNL     1       4.995   4.952  15.744  0.00  0.00    +0.000 NA
ENDBRANCH  11  12
ENDBRANCH   1  11
BRANCH   2  18
ATOM     18  C   UNL     1       2.860   8.153  17.996  0.00  0.00    +0.000 C 
BRANCH  18  19
ATOM     19  C   UNL     1       1.491   8.798  17.595  0.00  0.00    +0.000 C 
BRANCH  19  20
ATOM     20  N   UNL     1       0.993   9.975  18.345  0.00  0.00    +0.000 NA
ATOM     21  C   UNL     1      -0.466  10.121  18.208  0.00  0.00    +0.000 C 
BRANCH  20  22
ATOM     22  C   UNL     1       1.310   9.882  19.794  0.00  0.00    +0.000 C 
BRANCH  22  23
ATOM     23  C   UNL     1       0.111   9.863  20.744  0.00  0.00    +0.000 C 
BRANCH  23  24
ATOM     24  C   UNL     1       0.195   8.691  21.704  0.00  0.00    +0.000 C 
ATOM     25  F   UNL     1       0.233   9.073  22.999  0.00  0.00    +0.000 F 
ATOM     26  F   UNL     1      -0.880   7.882  21.558  0.00  0.00    +0.000 F 
ATOM     27  F   UNL     1       1.295   7.945  21.466  0.00  0.00    +0.000 F 
ENDBRANCH  23  24
ENDBRANCH  22  23
ENDBRANCH  20  22
ENDBRANCH  19  20
ENDBRANCH  18  19
ENDBRANCH   2  18
TORSDOF 8
ENDMDL
MODEL 7
REMARK VINA RESULT:      -7.5      2.184      2.799
REMARK  Name = 
REMARK  10 active torsions:
REMARK  status: ('A' for Active; 'I' for Inactive)
REMARK    1  A    between atoms: C_1  and  C_2
REMARK    2  A    between atoms: C_2  and  C_3
REMARK    3  A    between atoms: C_2  and  C_22
REMARK    4  A    between atoms: C_4  and  C_5
REMARK    5  A    between atoms: C_5  and  C_6
REMARK    6  A    between atoms: C_6  and  N_7
REMARK    7  A    between atoms: N_7  and  C_8
REMARK    8  A    between atoms: N_7  and  C_9
REMARK    9  A    between atoms: C_9  and  C_10
REMARK   10  A    between atoms: C_10  and  C_11
REMARK                            x       y       z     vdW  Elec       q    Type
REMARK                         _______ _______ _______ _____ _____    ______ ____
ROOT
ATOM      1  C   UNL     1       2.771   5.823  18.776  0.00  0.00    +0.000 C 
ATOM      2  C   UNL     1       2.057   6.336  19.822  0.00  0.00    +0.000 C 
ATOM      3  C   UNL     1       1.180   5.281  20.478  0.00  0.00    +0.000 C 
ATOM      4  C   UNL     1       1.454   4.094  19.638  0.00  0.00    +0.000 A 
ATOM      5  C   UNL     1       0.893   2.823  19.757  0.00  0.00    +0.000 A 
ATOM      6  C   UNL     1       1.290   1.843  18.850  0.00  0.00    +0.000 A 
ATOM      7  C   UNL     1       2.232   2.136  17.860  0.00  0.00    +0.000 A 
ATOM      8  C   UNL     1       2.793   3.413  17.759  0.00  0.00    +0.000 A 
ATOM      9  C   UNL     1       2.393   4.398  18.654  0.00  0.00    +0.000 A 
ENDROOT
BRANCH   1  11
ATOM     10  C   UNL     1       3.388   7.748  17.170  0.00  0.00    +0.000 C 
ATOM     11  C   UNL     1       3.767   6.393  17.773  0.00  0.00    +0.000 C 
BRANCH  11  12
ATOM     12  C   UNL     1       5.213   6.269  18.237  0.00  0.00    +0.000 A 
ATOM     13  C   UNL     1       5.586   5.448  19.295  0.00  0.00    +0.000 A 
ATOM     14  N   UNL     1       6.878   5.185  19.619  0.00  0.00    +0.000 NA
ATOM     15  C   UNL     1       7.803   5.793  18.845  0.00  0.00    +0.000 A 
ATOM     16  C   UNL     1       7.458   6.665  17.834  0.00  0.00    +0.000 A 
ATOM     17  N   UNL     1       6.165   6.925  17.510  0.00  0.00    +0.000 NA
ENDBRANCH  11  12
ENDBRANCH   1  11
BRANCH   2  18
ATOM     18  C   UNL     1       1.997   7.732  20.401  0.00  0.00    +0.000 C 
BRANCH  18  19
ATOM     19  C   UNL     1       1.470   8.887  19.484  0.00  0.00    +0.000 C 
BRANCH  19  20
ATOM     20  N   UNL     1       0.217   9.589  19.845  0.00  0.00    +0.000 NA
ATOM     21  C   UNL     1       0.388  10.403  21.061  0.00  0.00    +0.000 C 
BRANCH  20  22
ATOM     22  C   UNL     1      -0.248  10.486  18.756  0.00  0.00    +0.000 C 
BRANCH  22  23
ATOM     23  C   UNL     1      -1.750  10.779  18.722  0.00  0.00    +0.000 C 
BRANCH  23  24
ATOM     24  C   UNL     1      -2.419  10.058  17.565  0.00  0.00    +0.000 C 
ATOM     25  F   UNL     1      -3.292   9.111  17.970  0.00  0.00    +0.000 F 
ATOM     26  F   UNL     1      -3.108  10.934  16.797  0.00  0.00    +0.000 F 
ATOM     27  F   UNL     1      -1.505   9.459  16.771  0.00  0.00    +0.000 F 
ENDBRANCH  23  24
ENDBRANCH  22  23
ENDBRANCH  20  22
ENDBRANCH  19  20
ENDBRANCH  18  19
ENDBRANCH   2  18
TORSDOF 8
ENDMDL
MODEL 8
REMARK VINA RESULT:      -7.5      1.377      2.161
REMARK  Name = 
REMARK  10 active torsions:
REMARK  status: ('A' for Active; 'I' for Inactive)
REMARK    1  A    between atoms: C_1  and  C_2
REMARK    2  A    between atoms: C_2  and  C_3
REMARK    3  A    between atoms: C_2  and  C_22
REMARK    4  A    between atoms: C_4  and  C_5
REMARK    5  A    between atoms: C_5  and  C_6
REMARK    6  A    between atoms: C_6  and  N_7
REMARK    7  A    between atoms: N_7  and  C_8
REMARK    8  A    between atoms: N_7  and  C_9
REMARK    9  A    between atoms: C_9  and  C_10
REMARK   10  A    between atoms: C_10  and  C_11
REMARK                            x       y       z     vdW  Elec       q    Type
REMARK                         _______ _______ _______ _____ _____    ______ ____
ROOT
ATOM      1  C   UNL     1       3.885   5.791  18.265  0.00  0.00    +0.000 C 
ATOM      2  C   UNL     1       2.819   6.641  18.191  0.00  0.00    +0.000 C 
ATOM      3  C   UNL     1       1.497   5.896  18.286  0.00  0.00    +0.000 C 
ATOM      4  C   UNL     1       1.947   4.490  18.382  0.00  0.00    +0.000 A 
ATOM      5  C   UNL     1       1.149   3.348  18.462  0.00  0.00    +0.000 A 
ATOM      6  C   UNL     1       1.783   2.110  18.540  0.00  0.00    +0.000 A 
ATOM      7  C   UNL     1       3.179   2.030  18.547  0.00  0.00    +0.000 A 
ATOM      8  C   UNL     1       3.964   3.184  18.476  0.00  0.00    +0.000 A 
ATOM      9  C   UNL     1       3.338   4.421  18.387  0.00  0.00    +0.000 A 
ENDROOT
BRANCH   1  11
ATOM     10  C   UNL     1       6.164   5.407  19.417  0.00  0.00    +0.000 C 
ATOM     11  C   UNL     1       5.400   5.959  18.212  0.00  0.00    +0.000 C 
BRANCH  11  12
ATOM     12  C   UNL     1       5.988   5.607  16.851  0.00  0.00    +0.000 A 
ATOM     13  C   UNL     1       7.253   5.047  16.711  0.00  0.00    +0.000 A 
ATOM     14  N   UNL     1       7.732   4.567  15.534  0.00  0.00    +0.000 NA
ATOM     15  C   UNL     1       6.895   4.679  14.480  0.00  0.00    +0.000 A 
ATOM     16  C   UNL     1       5.663   5.291  14.580  0.00  0.00    +0.000 A 
ATOM     17  N   UNL     1       5.185   5.769  15.759  0.00  0.00    +0.000 NA
ENDBRANCH  11  12
ENDBRANCH   1  11
BRANCH   2  18
ATOM     18  C   UNL     1       2.748   8.143  18.028  0.00  0.00    +0.000 C 
BRANCH  18  19
ATOM     19  C   UNL     1       1.402   8.859  18.383  0.00  0.00    +0.000 C 
BRANCH  19  20
ATOM     20  N   UNL     1       1.382   9.881  19.456  0.00  0.00    +0.000 NA
ATOM     21  C   UNL     1       0.505  11.011  19.106  0.00  0.00    +0.000 C 
BRANCH  20  22
ATOM     22  C   UNL     1       0.910   9.317  20.747  0.00  0.00    +0.000 C 
BRANCH  22  23
ATOM     23  C   UNL     1       0.244  10.305  21.708  0.00  0.00    +0.000 C 
BRANCH  23  24
ATOM     24  C   UNL     1      -0.433   9.577  22.854  0.00  0.00    +0.000 C 
ATOM     25  F   UNL     1      -1.479  10.261  23.368  0.00  0.00    +0.000 F 
ATOM     26  F   UNL     1      -0.905   8.378  22.440  0.00  0.00    +0.000 F 
ATOM     27  F   UNL     1       0.435   9.341  23.862  0.00  0.00    +0.000 F 
ENDBRANCH  23  24
ENDBRANCH  22  23
ENDBRANCH  20  22
ENDBRANCH  19  20
ENDBRANCH  18  19
ENDBRANCH   2  18
TORSDOF 8
ENDMDL
MODEL 9
REMARK VINA RESULT:      -7.3      1.983      2.685
REMARK  Name = 
REMARK  10 active torsions:
REMARK  status: ('A' for Active; 'I' for Inactive)
REMARK    1  A    between atoms: C_1  and  C_2
REMARK    2  A    between atoms: C_2  and  C_3
REMARK    3  A    between atoms: C_2  and  C_22
REMARK    4  A    between atoms: C_4  and  C_5
REMARK    5  A    between atoms: C_5  and  C_6
REMARK    6  A    between atoms: C_6  and  N_7
REMARK    7  A    between atoms: N_7  and  C_8
REMARK    8  A    between atoms: N_7  and  C_9
REMARK    9  A    between atoms: C_9  and  C_10
REMARK   10  A    between atoms: C_10  and  C_11
REMARK                            x       y       z     vdW  Elec       q    Type
REMARK                         _______ _______ _______ _____ _____    ______ ____
ROOT
ATOM      1  C   UNL     1       3.684   5.211  18.360  0.00  0.00    +0.000 C 
ATOM      2  C   UNL     1       2.997   6.384  18.499  0.00  0.00    +0.000 C 
ATOM      3  C   UNL     1       1.868   6.258  19.510  0.00  0.00    +0.000 C 
ATOM      4  C   UNL     1       1.970   4.836  19.905  0.00  0.00    +0.000 A 
ATOM      5  C   UNL     1       1.153   4.144  20.798  0.00  0.00    +0.000 A 
ATOM      6  C   UNL     1       1.423   2.795  21.024  0.00  0.00    +0.000 A 
ATOM      7  C   UNL     1       2.491   2.170  20.375  0.00  0.00    +0.000 A 
ATOM      8  C   UNL     1       3.307   2.881  19.489  0.00  0.00    +0.000 A 
ATOM      9  C   UNL     1       3.037   4.223  19.251  0.00  0.00    +0.000 A 
ENDROOT
BRANCH   1  11
ATOM     10  C   UNL     1       4.550   4.509  16.030  0.00  0.00    +0.000 C 
ATOM     11  C   UNL     1       4.862   4.750  17.509  0.00  0.00    +0.000 C 
BRANCH  11  12
ATOM     12  C   UNL     1       6.136   5.540  17.785  0.00  0.00    +0.000 A 
ATOM     13  C   UNL     1       6.515   6.632  17.012  0.00  0.00    +0.000 A 
ATOM     14  N   UNL     1       7.546   7.455  17.335  0.00  0.00    +0.000 NA
ATOM     15  C   UNL     1       8.206   7.137  18.469  0.00  0.00    +0.000 A 
ATOM     16  C   UNL     1       7.892   6.021  19.216  0.00  0.00    +0.000 A 
ATOM     17  N   UNL     1       6.859   5.200  18.892  0.00  0.00    +0.000 NA
ENDBRANCH  11  12
ENDBRANCH   1  11
BRANCH   2  18
ATOM     18  C   UNL     1       3.170   7.728  17.829  0.00  0.00    +0.000 C 
BRANCH  18  19
ATOM     19  C   UNL     1       1.913   8.653  17.701  0.00  0.00    +0.000 C 
BRANCH  19  20
ATOM     20  N   UNL     1       1.733   9.772  18.655  0.00  0.00    +0.000 NA
ATOM     21  C   UNL     1       2.133  11.057  18.057  0.00  0.00    +0.000 C 
BRANCH  20  22
ATOM     22  C   UNL     1       0.321   9.895  19.101  0.00  0.00    +0.000 C 
BRANCH  22  23
ATOM     23  C   UNL     1      -0.722  10.059  17.993  0.00  0.00    +0.000 C 
BRANCH  23  24
ATOM     24  C   UNL     1      -1.742  11.121  18.359  0.00  0.00    +0.000 C 
ATOM     25  F   UNL     1      -3.011  10.751  18.080  0.00  0.00    +0.000 F 
ATOM     26  F   UNL     1      -1.688  11.393  19.684  0.00  0.00    +0.000 F 
ATOM     27  F   UNL     1      -1.500  12.276  17.702  0.00  0.00    +0.000 F 
ENDBRANCH  23  24
ENDBRANCH  22  23
ENDBRANCH  20  22
ENDBRANCH  19  20
ENDBRANCH  18  19
ENDBRANCH   2  18
TORSDOF 8
ENDMDL
