MODEL 1
REMARK VINA RESULT:      -7.8      0.000      0.000
REMARK  Name = 
REMARK  5 active torsions:
REMARK  status: ('A' for Active; 'I' for Inactive)
REMARK    1  A    between atoms: C_1  and  C_2
REMARK    2  A    between atoms: C_5  and  C_6
REMARK    3  A    between atoms: N_8  and  C_9
REMARK    4  A    between atoms: C_9  and  C_10
REMARK    5  A    between atoms: C_9  and  C_11
REMARK                            x       y       z     vdW  Elec       q    Type
REMARK                         _______ _______ _______ _____ _____    ______ ____
ROOT
ATOM      1  C   UNL     1       2.645   6.193  20.090  0.00  0.00    +0.000 C 
ATOM      2  C   UNL     1       1.902   4.997  20.694  0.00  0.00    +0.000 C 
ENDROOT
BRANCH   1   3
ATOM      3  C   UNL     1       1.828   7.478  20.062  0.00  0.00    +0.000 A 
ATOM      4  C   UNL     1       1.885   8.270  18.907  0.00  0.00    +0.000 A 
ATOM      5  C   UNL     1       1.329   9.551  18.884  0.00  0.00    +0.000 A 
ATOM      6  C   UNL     1       0.683  10.069  20.012  0.00  0.00    +0.000 A 
ATOM      7  C   UNL     1       0.243  11.402  20.044  0.00  0.00    +0.000 A 
ATOM      8  C   UNL     1      -0.407  11.912  21.166  0.00  0.00    +0.000 A 
ATOM      9  C   UNL     1      -0.675  11.078  22.246  0.00  0.00    +0.000 A 
ATOM     10  C   UNL     1      -0.229   9.753  22.234  0.00  0.00    +0.000 A 
ATOM     11  C   UNL     1       0.495   9.242  21.140  0.00  0.00    +0.000 A 
ATOM     12  C   UNL     1       1.072   7.951  21.151  0.00  0.00    +0.000 A 
ENDBRANCH   1   3
BRANCH   1  15
ATOM     13  C   UNL     1       4.502   5.515  18.610  0.00  0.00    +0.000 C 
ATOM     14  O   UNL     1       5.310   5.462  19.537  0.00  0.00    +0.000 OA
ATOM     15  N   UNL     1       3.181   5.877  18.773  0.00  0.00    +0.000 N 
ATOM     16  H   UNL     1       2.520   5.708  18.029  0.00  0.00    +0.000 HD
BRANCH  13  21
ATOM     17  C   UNL     1       6.268   3.973  13.293  0.00  0.00    +0.000 C 
ATOM     18  C   UNL     1       5.803   4.368  14.665  0.00  0.00    +0.000 A 
ATOM     19  C   UNL     1       5.589   3.409  15.660  0.00  0.00    +0.000 A 
ATOM     20  C   UNL     1       5.168   3.796  16.936  0.00  0.00    +0.000 A 
ATOM     21  C   UNL     1       4.938   5.143  17.231  0.00  0.00    +0.000 A 
ATOM     22  C   UNL     1       5.163   6.109  16.243  0.00  0.00    +0.000 A 
ATOM     23  C   UNL     1       5.589   5.721  14.967  0.00  0.00    +0.000 A 
ENDBRANCH  13  21
ENDBRANCH   1  15
TORSDOF 3
ENDMDL
MODEL 2
REMARK VINA RESULT:      -7.8      0.170      1.040
REMARK  Name = 
REMARK  5 active torsions:
REMARK  status: ('A' for Active; 'I' for Inactive)
REMARK    1  A    between atoms: C_1  and  C_2
REMARK    2  A    between atoms: C_5  and  C_6
REMARK    3  A    between atoms: N_8  and  C_9
REMARK    4  A    between atoms: C_9  and  C_10
REMARK    5  A    between atoms: C_9  and  C_11
REMARK                            x       y       z     vdW  Elec       q    Type
REMARK                         _______ _______ _______ _____ _____    ______ ____
ROOT
ATOM      1  C   UNL     1       2.522   6.111  20.148  0.00  0.00    +0.000 C 
ATOM      2  C   UNL     1       1.688   4.929  20.653  0.00  0.00    +0.000 C 
ENDROOT
BRANCH   1   3
ATOM      3  C   UNL     1       1.769   7.435  20.130  0.00  0.00    +0.000 A 
ATOM      4  C   UNL     1       1.870   8.235  18.984  0.00  0.00    +0.000 A 
ATOM      5  C   UNL     1       1.378   9.542  18.973  0.00  0.00    +0.000 A 
ATOM      6  C   UNL     1       0.753  10.079  20.104  0.00  0.00    +0.000 A 
ATOM      7  C   UNL     1       0.378  11.432  20.149  0.00  0.00    +0.000 A 
ATOM      8  C   UNL     1      -0.251  11.961  21.274  0.00  0.00    +0.000 A 
ATOM      9  C   UNL     1      -0.564  11.130  22.344  0.00  0.00    +0.000 A 
ATOM     10  C   UNL     1      -0.184   9.784  22.320  0.00  0.00    +0.000 A 
ATOM     11  C   UNL     1       0.519   9.250  21.222  0.00  0.00    +0.000 A 
ATOM     12  C   UNL     1       1.032   7.932  21.222  0.00  0.00    +0.000 A 
ENDBRANCH   1   3
BRANCH   1  15
ATOM     13  C   UNL     1       4.452   5.486  18.739  0.00  0.00    +0.000 C 
ATOM     14  O   UNL     1       5.220   5.433  19.700  0.00  0.00    +0.000 OA
ATOM     15  N   UNL     1       3.119   5.824  18.851  0.00  0.00    +0.000 N 
ATOM     16  H   UNL     1       2.494   5.656  18.076  0.00  0.00    +0.000 HD
BRANCH  13  21
ATOM     17  C   UNL     1       6.321   4.241  13.380  0.00  0.00    +0.000 C 
ATOM     18  C   UNL     1       5.847   4.567  14.767  0.00  0.00    +0.000 A 
ATOM     19  C   UNL     1       5.489   5.872  15.121  0.00  0.00    +0.000 A 
ATOM     20  C   UNL     1       5.037   6.155  16.414  0.00  0.00    +0.000 A 
ATOM     21  C   UNL     1       4.953   5.144  17.375  0.00  0.00    +0.000 A 
ATOM     22  C   UNL     1       5.297   3.833  17.023  0.00  0.00    +0.000 A 
ATOM     23  C   UNL     1       5.745   3.550  15.727  0.00  0.00    +0.000 A 
ENDBRANCH  13  21
ENDBRANCH   1  15
TORSDOF 3
ENDMDL
MODEL 3
REMARK VINA RESULT:      -7.8      0.948      1.157
REMARK  Name = 
REMARK  5 active torsions:
REMARK  status: ('A' for Active; 'I' for Inactive)
REMARK    1  A    between atoms: C_1  and  C_2
REMARK    2  A    between atoms: C_5  and  C_6
REMARK    3  A    between atoms: N_8  and  C_9
REMARK    4  A    between atoms: C_9  and  C_10
REMARK    5  A    between atoms: C_9  and  C_11
REMARK                            x       y       z     vdW  Elec       q    Type
REMARK                         _______ _______ _______ _____ _____    ______ ____
ROOT
ATOM      1  C   UNL     1       3.244   5.757  19.719  0.00  0.00    +0.000 C 
ATOM      2  C   UNL     1       2.599   4.513  20.338  0.00  0.00    +0.000 C 
ENDROOT
BRANCH   1   3
ATOM      3  C   UNL     1       2.336   6.980  19.703  0.00  0.00    +0.000 A 
ATOM      4  C   UNL     1       2.325   7.778  18.551  0.00  0.00    +0.000 A 
ATOM      5  C   UNL     1       1.678   9.015  18.538  0.00  0.00    +0.000 A 
ATOM      6  C   UNL     1       1.006   9.481  19.674  0.00  0.00    +0.000 A 
ATOM      7  C   UNL     1       0.470  10.779  19.715  0.00  0.00    +0.000 A 
ATOM      8  C   UNL     1      -0.206  11.235  20.845  0.00  0.00    +0.000 A 
ATOM      9  C   UNL     1      -0.404  10.380  21.923  0.00  0.00    +0.000 A 
ATOM     10  C   UNL     1       0.137   9.090  21.902  0.00  0.00    +0.000 A 
ATOM     11  C   UNL     1       0.887   8.638  20.799  0.00  0.00    +0.000 A 
ATOM     12  C   UNL     1       1.556   7.392  20.800  0.00  0.00    +0.000 A 
ENDBRANCH   1   3
BRANCH   1  15
ATOM     13  C   UNL     1       5.132   5.314  18.189  0.00  0.00    +0.000 C 
ATOM     14  O   UNL     1       5.969   5.422  19.085  0.00  0.00    +0.000 OA
ATOM     15  N   UNL     1       3.776   5.476  18.393  0.00  0.00    +0.000 N 
ATOM     16  H   UNL     1       3.125   5.178  17.681  0.00  0.00    +0.000 HD
BRANCH  13  21
ATOM     17  C   UNL     1       6.917   4.047  12.807  0.00  0.00    +0.000 C 
ATOM     18  C   UNL     1       6.460   4.367  14.201  0.00  0.00    +0.000 A 
ATOM     19  C   UNL     1       7.308   5.012  15.109  0.00  0.00    +0.000 A 
ATOM     20  C   UNL     1       6.862   5.314  16.400  0.00  0.00    +0.000 A 
ATOM     21  C   UNL     1       5.572   4.960  16.807  0.00  0.00    +0.000 A 
ATOM     22  C   UNL     1       4.715   4.327  15.899  0.00  0.00    +0.000 A 
ATOM     23  C   UNL     1       5.161   4.030  14.605  0.00  0.00    +0.000 A 
ENDBRANCH  13  21
ENDBRANCH   1  15
TORSDOF 3
ENDMDL
MODEL 4
REMARK VINA RESULT:      -7.8      1.424      2.609
REMARK  Name = 
REMARK  5 active torsions:
REMARK  status: ('A' for Active; 'I' for Inactive)
REMARK    1  A    between atoms: C_1  and  C_2
REMARK    2  A    between atoms: C_5  and  C_6
REMARK    3  A    between atoms: N_8  and  C_9
REMARK    4  A    between atoms: C_9  and  C_10
REMARK    5  A    between atoms: C_9  and  C_11
REMARK                            x       y       z     vdW  Elec       q    Type
REMARK                         _______ _______ _______ _____ _____    ______ ____
ROOT
ATOM      1  C   UNL     1       2.873   4.469  18.495  0.00  0.00    +0.000 C 
ATOM      2  C   UNL     1       1.671   3.524  18.391  0.00  0.00    +0.000 C 
ENDROOT
BRANCH   1   3
ATOM      3  C   UNL     1       2.524   5.856  19.020  0.00  0.00    +0.000 A 
ATOM      4  C   UNL     1       2.088   5.967  20.348  0.00  0.00    +0.000 A 
ATOM      5  C   UNL     1       1.562   7.165  20.834  0.00  0.00    +0.000 A 
ATOM      6  C   UNL     1       1.474   8.293  20.010  0.00  0.00    +0.000 A 
ATOM      7  C   UNL     1       0.823   9.459  20.447  0.00  0.00    +0.000 A 
ATOM      8  C   UNL     1       0.746  10.582  19.627  0.00  0.00    +0.000 A 
ATOM      9  C   UNL     1       1.367  10.573  18.383  0.00  0.00    +0.000 A 
ATOM     10  C   UNL     1       2.006   9.415  17.929  0.00  0.00    +0.000 A 
ATOM     11  C   UNL     1       2.029   8.245  18.714  0.00  0.00    +0.000 A 
ATOM     12  C   UNL     1       2.550   7.022  18.232  0.00  0.00    +0.000 A 
ENDBRANCH   1   3
BRANCH   1  15
ATOM     13  C   UNL     1       4.974   4.447  17.198  0.00  0.00    +0.000 C 
ATOM     14  O   UNL     1       5.671   4.316  18.204  0.00  0.00    +0.000 OA
ATOM     15  N   UNL     1       3.598   4.547  17.235  0.00  0.00    +0.000 N 
ATOM     16  H   UNL     1       3.067   4.447  16.382  0.00  0.00    +0.000 HD
BRANCH  13  21
ATOM     17  C   UNL     1       7.437   4.419  11.935  0.00  0.00    +0.000 C 
ATOM     18  C   UNL     1       6.795   4.433  13.292  0.00  0.00    +0.000 A 
ATOM     19  C   UNL     1       5.549   3.834  13.509  0.00  0.00    +0.000 A 
ATOM     20  C   UNL     1       4.971   3.846  14.782  0.00  0.00    +0.000 A 
ATOM     21  C   UNL     1       5.620   4.470  15.852  0.00  0.00    +0.000 A 
ATOM     22  C   UNL     1       6.873   5.059  15.644  0.00  0.00    +0.000 A 
ATOM     23  C   UNL     1       7.453   5.043  14.370  0.00  0.00    +0.000 A 
ENDBRANCH  13  21
ENDBRANCH   1  15
TORSDOF 3
ENDMDL
MODEL 5
REMARK VINA RESULT:      -7.7      4.092      6.877
REMARK  Name = 
REMARK  5 active torsions:
REMARK  status: ('A' for Active; 'I' for Inactive)
REMARK    1  A    between atoms: C_1  and  C_2
REMARK    2  A    between atoms: C_5  and  C_6
REMARK    3  A    between atoms: N_8  and  C_9
REMARK    4  A    between atoms: C_9  and  C_10
REMARK    5  A    between atoms: C_9  and  C_11
REMARK                            x       y       z     vdW  Elec       q    Type
REMARK                         _______ _______ _______ _____ _____    ______ ____
ROOT
ATOM      1  C   UNL     1       6.795   5.677  16.608  0.00  0.00    +0.000 C 
ATOM      2  C   UNL     1       7.100   5.283  15.159  0.00  0.00    +0.000 C 
ENDROOT
BRANCH   1   3
ATOM      3  C   UNL     1       5.362   5.392  17.036  0.00  0.00    +0.000 A 
ATOM      4  C   UNL     1       4.599   6.457  17.536  0.00  0.00    +0.000 A 
ATOM      5  C   UNL     1       3.356   6.234  18.132  0.00  0.00    +0.000 A 
ATOM      6  C   UNL     1       2.831   4.940  18.228  0.00  0.00    +0.000 A 
ATOM      7  C   UNL     1       1.650   4.691  18.945  0.00  0.00    +0.000 A 
ATOM      8  C   UNL     1       1.126   3.402  19.031  0.00  0.00    +0.000 A 
ATOM      9  C   UNL     1       1.747   2.359  18.353  0.00  0.00    +0.000 A 
ATOM     10  C   UNL     1       2.933   2.590  17.648  0.00  0.00    +0.000 A 
ATOM     11  C   UNL     1       3.517   3.871  17.613  0.00  0.00    +0.000 A 
ATOM     12  C   UNL     1       4.779   4.110  17.022  0.00  0.00    +0.000 A 
ENDBRANCH   1   3
BRANCH   1  15
ATOM     13  C   UNL     1       7.860   7.411  18.008  0.00  0.00    +0.000 C 
ATOM     14  O   UNL     1       8.191   6.601  18.875  0.00  0.00    +0.000 OA
ATOM     15  N   UNL     1       7.161   7.062  16.871  0.00  0.00    +0.000 N 
ATOM     16  H   UNL     1       7.094   7.716  16.104  0.00  0.00    +0.000 HD
BRANCH  13  21
ATOM     17  C   UNL     1       9.375  12.977  18.699  0.00  0.00    +0.000 C 
ATOM     18  C   UNL     1       8.992  11.537  18.516  0.00  0.00    +0.000 A 
ATOM     19  C   UNL     1       9.518  10.539  19.343  0.00  0.00    +0.000 A 
ATOM     20  C   UNL     1       9.140   9.204  19.167  0.00  0.00    +0.000 A 
ATOM     21  C   UNL     1       8.247   8.845  18.153  0.00  0.00    +0.000 A 
ATOM     22  C   UNL     1       7.708   9.842  17.331  0.00  0.00    +0.000 A 
ATOM     23  C   UNL     1       8.082  11.178  17.511  0.00  0.00    +0.000 A 
ENDBRANCH  13  21
ENDBRANCH   1  15
TORSDOF 3
ENDMDL
MODEL 6
REMARK VINA RESULT:      -7.7      1.464      2.771
REMARK  Name = 
REMARK  5 active torsions:
REMARK  status: ('A' for Active; 'I' for Inactive)
REMARK    1  A    between atoms: C_1  and  C_2
REMARK    2  A    between atoms: C_5  and  C_6
REMARK    3  A    between atoms: N_8  and  C_9
REMARK    4  A    between atoms: C_9  and  C_10
REMARK    5  A    between atoms: C_9  and  C_11
REMARK                            x       y       z     vdW  Elec       q    Type
REMARK                         _______ _______ _______ _____ _____    ______ ____
ROOT
ATOM      1  C   UNL     1       2.922   4.288  18.511  0.00  0.00    +0.000 C 
ATOM      2  C   UNL     1       1.726   3.335  18.428  0.00  0.00    +0.000 C 
ENDROOT
BRANCH   1   3
ATOM      3  C   UNL     1       2.573   5.675  19.033  0.00  0.00    +0.000 A 
ATOM      4  C   UNL     1       2.127   5.788  20.357  0.00  0.00    +0.000 A 
ATOM      5  C   UNL     1       1.600   6.987  20.840  0.00  0.00    +0.000 A 
ATOM      6  C   UNL     1       1.521   8.115  20.016  0.00  0.00    +0.000 A 
ATOM      7  C   UNL     1       0.869   9.282  20.448  0.00  0.00    +0.000 A 
ATOM      8  C   UNL     1       0.801  10.406  19.627  0.00  0.00    +0.000 A 
ATOM      9  C   UNL     1       1.432  10.396  18.389  0.00  0.00    +0.000 A 
ATOM     10  C   UNL     1       2.072   9.236  17.939  0.00  0.00    +0.000 A 
ATOM     11  C   UNL     1       2.086   8.066  18.724  0.00  0.00    +0.000 A 
ATOM     12  C   UNL     1       2.608   6.842  18.246  0.00  0.00    +0.000 A 
ENDBRANCH   1   3
BRANCH   1  15
ATOM     13  C   UNL     1       5.009   4.343  17.190  0.00  0.00    +0.000 C 
ATOM     14  O   UNL     1       5.722   4.291  18.192  0.00  0.00    +0.000 OA
ATOM     15  N   UNL     1       3.630   4.364  17.240  0.00  0.00    +0.000 N 
ATOM     16  H   UNL     1       3.097   4.202  16.398  0.00  0.00    +0.000 HD
BRANCH  13  21
ATOM     17  C   UNL     1       7.497   4.516  11.942  0.00  0.00    +0.000 C 
ATOM     18  C   UNL     1       6.861   4.465  13.301  0.00  0.00    +0.000 A 
ATOM     19  C   UNL     1       7.418   5.150  14.386  0.00  0.00    +0.000 A 
ATOM     20  C   UNL     1       6.805   5.102  15.643  0.00  0.00    +0.000 A 
ATOM     21  C   UNL     1       5.639   4.356  15.836  0.00  0.00    +0.000 A 
ATOM     22  C   UNL     1       5.068   3.681  14.751  0.00  0.00    +0.000 A 
ATOM     23  C   UNL     1       5.680   3.733  13.493  0.00  0.00    +0.000 A 
ENDBRANCH  13  21
ENDBRANCH   1  15
TORSDOF 3
ENDMDL
MODEL 7
REMARK VINA RESULT:      -7.6      1.580      8.327
REMARK  Name = 
REMARK  5 active torsions:
REMARK  status: ('A' for Active; 'I' for Inactive)
REMARK    1  A    between atoms: C_1  and  C_2
REMARK    2  A    between atoms: C_5  and  C_6
REMARK    3  A    between atoms: N_8  and  C_9
REMARK    4  A    between atoms: C_9  and  C_10
REMARK    5  A    between atoms: C_9  and  C_11
REMARK                            x       y       z     vdW  Elec       q    Type
REMARK                         _______ _______ _______ _____ _____    ______ ____
ROOT
ATOM      1  C   UNL     1       4.489   4.674  17.979  0.00  0.00    +0.000 C 
ATOM      2  C   UNL     1       5.166   4.276  19.294  0.00  0.00    +0.000 C 
ENDROOT
BRANCH   1   3
ATOM      3  C   UNL     1       5.404   4.589  16.764  0.00  0.00    +0.000 A 
ATOM      4  C   UNL     1       6.631   5.265  16.814  0.00  0.00    +0.000 A 
ATOM      5  C   UNL     1       7.425   5.400  15.674  0.00  0.00    +0.000 A 
ATOM      6  C   UNL     1       7.023   4.845  14.453  0.00  0.00    +0.000 A 
ATOM      7  C   UNL     1       7.745   5.092  13.274  0.00  0.00    +0.000 A 
ATOM      8  C   UNL     1       7.346   4.531  12.063  0.00  0.00    +0.000 A 
ATOM      9  C   UNL     1       6.254   3.672  12.027  0.00  0.00    +0.000 A 
ATOM     10  C   UNL     1       5.516   3.429  13.190  0.00  0.00    +0.000 A 
ATOM     11  C   UNL     1       5.860   4.047  14.409  0.00  0.00    +0.000 A 
ATOM     12  C   UNL     1       5.061   3.927  15.569  0.00  0.00    +0.000 A 
ENDBRANCH   1   3
BRANCH   1  15
ATOM     13  C   UNL     1       2.700   6.164  18.802  0.00  0.00    +0.000 C 
ATOM     14  O   UNL     1       2.110   5.248  19.374  0.00  0.00    +0.000 OA
ATOM     15  N   UNL     1       3.862   5.984  18.079  0.00  0.00    +0.000 N 
ATOM     16  H   UNL     1       4.410   6.787  17.805  0.00  0.00    +0.000 HD
BRANCH  13  21
ATOM     17  C   UNL     1       0.553  11.543  19.267  0.00  0.00    +0.000 C 
ATOM     18  C   UNL     1       1.115  10.156  19.151  0.00  0.00    +0.000 A 
ATOM     19  C   UNL     1       1.074   9.267  20.231  0.00  0.00    +0.000 A 
ATOM     20  C   UNL     1       1.591   7.974  20.102  0.00  0.00    +0.000 A 
ATOM     21  C   UNL     1       2.172   7.557  18.901  0.00  0.00    +0.000 A 
ATOM     22  C   UNL     1       2.204   8.438  17.813  0.00  0.00    +0.000 A 
ATOM     23  C   UNL     1       1.682   9.730  17.941  0.00  0.00    +0.000 A 
ENDBRANCH  13  21
ENDBRANCH   1  15
TORSDOF 3
ENDMDL
MODEL 8
REMARK VINA RESULT:      -7.6      1.595      8.332
REMARK  Name = 
REMARK  5 active torsions:
REMARK  status: ('A' for Active; 'I' for Inactive)
REMARK    1  A    between atoms: C_1  and  C_2
REMARK    2  A    between atoms: C_5  and  C_6
REMARK    3  A    between atoms: N_8  and  C_9
REMARK    4  A    between atoms: C_9  and  C_10
REMARK    5  A    between atoms: C_9  and  C_11
REMARK                            x       y       z     vdW  Elec       q    Type
REMARK                         _______ _______ _______ _____ _____    ______ ____
ROOT
ATOM      1  C   UNL     1       4.512   4.647  17.988  0.00  0.00    +0.000 C 
ATOM      2  C   UNL     1       5.204   4.273  19.303  0.00  0.00    +0.000 C 
ENDROOT
BRANCH   1   3
ATOM      3  C   UNL     1       5.422   4.572  16.768  0.00  0.00    +0.000 A 
ATOM      4  C   UNL     1       6.648   5.250  16.818  0.00  0.00    +0.000 A 
ATOM      5  C   UNL     1       7.437   5.394  15.676  0.00  0.00    +0.000 A 
ATOM      6  C   UNL     1       7.032   4.848  14.453  0.00  0.00    +0.000 A 
ATOM      7  C   UNL     1       7.749   5.104  13.273  0.00  0.00    +0.000 A 
ATOM      8  C   UNL     1       7.346   4.550  12.060  0.00  0.00    +0.000 A 
ATOM      9  C   UNL     1       6.255   3.689  12.023  0.00  0.00    +0.000 A 
ATOM     10  C   UNL     1       5.522   3.437  13.187  0.00  0.00    +0.000 A 
ATOM     11  C   UNL     1       5.870   4.047  14.408  0.00  0.00    +0.000 A 
ATOM     12  C   UNL     1       5.076   3.918  15.571  0.00  0.00    +0.000 A 
ENDBRANCH   1   3
BRANCH   1  15
ATOM     13  C   UNL     1       2.726   6.117  18.852  0.00  0.00    +0.000 C 
ATOM     14  O   UNL     1       2.186   5.204  19.477  0.00  0.00    +0.000 OA
ATOM     15  N   UNL     1       3.857   5.944  18.081  0.00  0.00    +0.000 N 
ATOM     16  H   UNL     1       4.372   6.751  17.760  0.00  0.00    +0.000 HD
BRANCH  13  21
ATOM     17  C   UNL     1       0.651  11.538  19.107  0.00  0.00    +0.000 C 
ATOM     18  C   UNL     1       1.179  10.134  19.037  0.00  0.00    +0.000 A 
ATOM     19  C   UNL     1       1.760   9.639  17.865  0.00  0.00    +0.000 A 
ATOM     20  C   UNL     1       2.259   8.333  17.820  0.00  0.00    +0.000 A 
ATOM     21  C   UNL     1       2.168   7.499  18.938  0.00  0.00    +0.000 A 
ATOM     22  C   UNL     1       1.600   7.993  20.118  0.00  0.00    +0.000 A 
ATOM     23  C   UNL     1       1.106   9.302  20.163  0.00  0.00    +0.000 A 
ENDBRANCH  13  21
ENDBRANCH   1  15
TORSDOF 3
ENDMDL
MODEL 9
REMARK VINA RESULT:      -7.6      3.615      5.236
REMARK  Name = 
REMARK  5 active torsions:
REMARK  status: ('A' for Active; 'I' for Inactive)
REMARK    1  A    between atoms: C_1  and  C_2
REMARK    2  A    between atoms: C_5  and  C_6
REMARK    3  A    between atoms: N_8  and  C_9
REMARK    4  A    between atoms: C_9  and  C_10
REMARK    5  A    between atoms: C_9  and  C_11
REMARK                            x       y       z     vdW  Elec       q    Type
REMARK                         _______ _______ _______ _____ _____    ______ ____
ROOT
ATOM      1  C   UNL     1       6.077   5.855  17.726  0.00  0.00    +0.000 C 
ATOM      2  C   UNL     1       7.294   5.855  18.656  0.00  0.00    +0.000 C 
ENDROOT
BRANCH   1   3
ATOM      3  C   UNL     1       4.793   5.373  18.390  0.00  0.00    +0.000 A 
ATOM      4  C   UNL     1       3.696   6.246  18.413  0.00  0.00    +0.000 A 
ATOM      5  C   UNL     1       2.562   5.955  19.174  0.00  0.00    +0.000 A 
ATOM      6  C   UNL     1       2.485   4.773  19.919  0.00  0.00    +0.000 A 
ATOM      7  C   UNL     1       1.411   4.537  20.792  0.00  0.00    +0.000 A 
ATOM      8  C   UNL     1       1.334   3.355  21.525  0.00  0.00    +0.000 A 
ATOM      9  C   UNL     1       2.300   2.371  21.351  0.00  0.00    +0.000 A 
ATOM     10  C   UNL     1       3.384   2.598  20.497  0.00  0.00    +0.000 A 
ATOM     11  C   UNL     1       3.518   3.818  19.805  0.00  0.00    +0.000 A 
ATOM     12  C   UNL     1       4.664   4.130  19.038  0.00  0.00    +0.000 A 
ENDBRANCH   1   3
BRANCH   1  15
ATOM     13  C   UNL     1       5.875   5.569  15.281  0.00  0.00    +0.000 C 
ATOM     14  O   UNL     1       5.187   6.581  15.153  0.00  0.00    +0.000 OA
ATOM     15  N   UNL     1       6.346   5.119  16.498  0.00  0.00    +0.000 N 
ATOM     16  H   UNL     1       7.066   4.412  16.526  0.00  0.00    +0.000 HD
BRANCH  13  21
ATOM     17  C   UNL     1       7.337   2.401  10.634  0.00  0.00    +0.000 C 
ATOM     18  C   UNL     1       6.952   3.224  11.830  0.00  0.00    +0.000 A 
ATOM     19  C   UNL     1       5.806   2.926  12.574  0.00  0.00    +0.000 A 
ATOM     20  C   UNL     1       5.470   3.695  13.693  0.00  0.00    +0.000 A 
ATOM     21  C   UNL     1       6.262   4.782  14.072  0.00  0.00    +0.000 A 
ATOM     22  C   UNL     1       7.418   5.077  13.339  0.00  0.00    +0.000 A 
ATOM     23  C   UNL     1       7.757   4.304  12.223  0.00  0.00    +0.000 A 
ENDBRANCH  13  21
ENDBRANCH   1  15
TORSDOF 3
ENDMDL
