MODEL 1
REMARK VINA RESULT:      -7.7      0.000      0.000
REMARK  Name = 
REMARK  8 active torsions:
REMARK  status: ('A' for Active; 'I' for Inactive)
REMARK    1  A    between atoms: C_1  and  N_2
REMARK    2  A    between atoms: C_4  and  N_5
REMARK    3  A    between atoms: C_6  and  C_8
REMARK    4  A    between atoms: C_10  and  C_11
REMARK    5  A    between atoms: C_16  and  N_17
REMARK    6  A    between atoms: N_17  and  C_18
REMARK    7  A    between atoms: C_24  and  C_25
REMARK    8  A    between atoms: N_27  and  C_28
REMARK                            x       y       z     vdW  Elec       q    Type
REMARK                         _______ _______ _______ _____ _____    ______ ____
ROOT
ATOM      1  N   UNL     1       1.626   9.163  19.718  0.00  0.00    +0.000 N 
ATOM      2  C   UNL     1       0.870   9.809  18.729  0.00  0.00    +0.000 C 
ATOM      3  O   UNL     1       0.297   9.272  17.784  0.00  0.00    +0.000 OA
ATOM      4  H   UNL     1       2.004   9.748  20.464  0.00  0.00    +0.000 HD
ENDROOT
BRANCH   1   8
ATOM      5  C   UNL     1       1.667   4.495  21.215  0.00  0.00    +0.000 C 
ATOM      6  N   UNL     1       1.891   5.699  20.449  0.00  0.00    +0.000 N 
ATOM      7  C   UNL     1       1.371   6.924  20.713  0.00  0.00    +0.000 A 
ATOM      8  C   UNL     1       1.884   7.793  19.775  0.00  0.00    +0.000 A 
ATOM      9  C   UNL     1       2.709   6.949  18.935  0.00  0.00    +0.000 A 
ATOM     10  N   UNL     1       2.690   5.670  19.373  0.00  0.00    +0.000 NA
BRANCH   9  11
ATOM     11  C   UNL     1       3.542   7.299  17.762  0.00  0.00    +0.000 C 
ATOM     12  O   UNL     1       3.310   8.272  17.049  0.00  0.00    +0.000 OA
ATOM     13  N   UNL     1       4.622   6.437  17.563  0.00  0.00    +0.000 N 
ATOM     14  H   UNL     1       4.684   5.675  18.235  0.00  0.00    +0.000 HD
BRANCH  13  15
ATOM     15  C   UNL     1       5.671   6.652  16.570  0.00  0.00    +0.000 C 
ATOM     16  C   UNL     1       7.049   6.160  17.059  0.00  0.00    +0.000 C 
ATOM     17  C   UNL     1       7.319   4.673  16.827  0.00  0.00    +0.000 C 
ATOM     18  C   UNL     1       7.066   4.280  15.379  0.00  0.00    +0.000 C 
ATOM     19  C   UNL     1       5.632   4.606  14.986  0.00  0.00    +0.000 C 
ATOM     20  C   UNL     1       5.306   6.088  15.185  0.00  0.00    +0.000 C 
ENDBRANCH  13  15
ENDBRANCH   9  11
ENDBRANCH   1   8
BRANCH   2  21
ATOM     21  C   UNL     1       0.761  11.306  18.898  0.00  0.00    +0.000 A 
ATOM     22  N   UNL     1       1.946  11.966  18.697  0.00  0.00    +0.000 NA
ATOM     23  C   UNL     1       1.967  13.313  18.833  0.00  0.00    +0.000 A 
ATOM     24  C   UNL     1       0.814  14.021  19.170  0.00  0.00    +0.000 A 
ATOM     25  C   UNL     1      -0.378  13.341  19.360  0.00  0.00    +0.000 A 
ATOM     26  C   UNL     1      -0.447  11.948  19.222  0.00  0.00    +0.000 A 
BRANCH  23  27
ATOM     27  C   UNL     1       3.261  14.038  18.593  0.00  0.00    +0.000 C 
ATOM     28  C   UNL     1       3.327  15.186  17.612  0.00  0.00    +0.000 C 
ATOM     29  C   UNL     1       3.417  15.455  19.084  0.00  0.00    +0.000 C 
ENDBRANCH  23  27
BRANCH  26  30
ATOM     30  N   UNL     1      -1.702  11.309  19.352  0.00  0.00    +0.000 N 
ATOM     31  H   UNL     1      -1.771  10.674  20.150  0.00  0.00    +0.000 HD
BRANCH  30  32
ATOM     32  C   UNL     1      -2.816  11.379  18.501  0.00  0.00    +0.000 A 
ATOM     33  C   UNL     1      -2.778  11.075  17.146  0.00  0.00    +0.000 A 
ATOM     34  N   UNL     1      -3.794  11.264  16.274  0.00  0.00    +0.000 NA
ATOM     35  C   UNL     1      -4.910  11.787  16.799  0.00  0.00    +0.000 A 
ATOM     36  N   UNL     1      -5.095  12.108  18.088  0.00  0.00    +0.000 NA
ATOM     37  C   UNL     1      -4.036  11.892  18.906  0.00  0.00    +0.000 A 
ENDBRANCH  30  32
ENDBRANCH  26  30
ENDBRANCH   2  21
TORSDOF 7
ENDMDL
MODEL 2
REMARK VINA RESULT:      -7.6      1.296      1.610
REMARK  Name = 
REMARK  8 active torsions:
REMARK  status: ('A' for Active; 'I' for Inactive)
REMARK    1  A    between atoms: C_1  and  N_2
REMARK    2  A    between atoms: C_4  and  N_5
REMARK    3  A    between atoms: C_6  and  C_8
REMARK    4  A    between atoms: C_10  and  C_11
REMARK    5  A    between atoms: C_16  and  N_17
REMARK    6  A    between atoms: N_17  and  C_18
REMARK    7  A    between atoms: C_24  and  C_25
REMARK    8  A    between atoms: N_27  and  C_28
REMARK                            x       y       z     vdW  Elec       q    Type
REMARK                         _______ _______ _______ _____ _____    ______ ____
ROOT
ATOM      1  N   UNL     1       1.533   8.817  19.938  0.00  0.00    +0.000 N 
ATOM      2  C   UNL     1       0.439   9.387  20.603  0.00  0.00    +0.000 C 
ATOM      3  O   UNL     1      -0.356   8.800  21.333  0.00  0.00    +0.000 OA
ATOM      4  H   UNL     1       2.127   9.451  19.400  0.00  0.00    +0.000 HD
ENDROOT
BRANCH   1   8
ATOM      5  C   UNL     1       1.942   4.145  21.366  0.00  0.00    +0.000 C 
ATOM      6  N   UNL     1       2.059   5.372  20.610  0.00  0.00    +0.000 N 
ATOM      7  C   UNL     1       1.464   6.554  20.907  0.00  0.00    +0.000 A 
ATOM      8  C   UNL     1       1.887   7.468  19.968  0.00  0.00    +0.000 A 
ATOM      9  C   UNL     1       2.741   6.693  19.091  0.00  0.00    +0.000 A 
ATOM     10  N   UNL     1       2.824   5.411  19.511  0.00  0.00    +0.000 NA
BRANCH   9  11
ATOM     11  C   UNL     1       3.511   7.115  17.898  0.00  0.00    +0.000 C 
ATOM     12  O   UNL     1       3.192   8.079  17.209  0.00  0.00    +0.000 OA
ATOM     13  N   UNL     1       4.640   6.330  17.653  0.00  0.00    +0.000 N 
ATOM     14  H   UNL     1       4.774   5.566  18.311  0.00  0.00    +0.000 HD
BRANCH  13  15
ATOM     15  C   UNL     1       5.641   6.629  16.632  0.00  0.00    +0.000 C 
ATOM     16  C   UNL     1       7.050   6.154  17.038  0.00  0.00    +0.000 C 
ATOM     17  C   UNL     1       7.353   4.691  16.717  0.00  0.00    +0.000 C 
ATOM     18  C   UNL     1       7.052   4.366  15.261  0.00  0.00    +0.000 C 
ATOM     19  C   UNL     1       5.593   4.669  14.944  0.00  0.00    +0.000 C 
ATOM     20  C   UNL     1       5.234   6.128  15.235  0.00  0.00    +0.000 C 
ENDBRANCH  13  15
ENDBRANCH   9  11
ENDBRANCH   1   8
BRANCH   2  21
ATOM     21  C   UNL     1       0.275  10.874  20.386  0.00  0.00    +0.000 A 
ATOM     22  N   UNL     1       1.345  11.610  20.825  0.00  0.00    +0.000 NA
ATOM     23  C   UNL     1       1.301  12.957  20.691  0.00  0.00    +0.000 A 
ATOM     24  C   UNL     1       0.196  13.589  20.122  0.00  0.00    +0.000 A 
ATOM     25  C   UNL     1      -0.874  12.830  19.674  0.00  0.00    +0.000 A 
ATOM     26  C   UNL     1      -0.867  11.433  19.786  0.00  0.00    +0.000 A 
BRANCH  23  27
ATOM     27  C   UNL     1       2.482  13.763  21.154  0.00  0.00    +0.000 C 
ATOM     28  C   UNL     1       3.272  14.598  20.172  0.00  0.00    +0.000 C 
ATOM     29  C   UNL     1       2.387  15.267  21.180  0.00  0.00    +0.000 C 
ENDBRANCH  23  27
BRANCH  26  30
ATOM     30  N   UNL     1      -1.948  10.699  19.246  0.00  0.00    +0.000 N 
ATOM     31  H   UNL     1      -2.334   9.992  19.876  0.00  0.00    +0.000 HD
BRANCH  30  32
ATOM     32  C   UNL     1      -2.500  10.765  17.957  0.00  0.00    +0.000 A 
ATOM     33  C   UNL     1      -3.673  11.442  17.649  0.00  0.00    +0.000 A 
ATOM     34  N   UNL     1      -4.302  11.410  16.453  0.00  0.00    +0.000 NA
ATOM     35  C   UNL     1      -3.715  10.655  15.515  0.00  0.00    +0.000 A 
ATOM     36  N   UNL     1      -2.574   9.966  15.666  0.00  0.00    +0.000 NA
ATOM     37  C   UNL     1      -1.996  10.043  16.889  0.00  0.00    +0.000 A 
ENDBRANCH  30  32
ENDBRANCH  26  30
ENDBRANCH   2  21
TORSDOF 7
ENDMDL
MODEL 3
REMARK VINA RESULT:      -7.5      2.654      8.267
REMARK  Name = 
REMARK  8 active torsions:
REMARK  status: ('A' for Active; 'I' for Inactive)
REMARK    1  A    between atoms: C_1  and  N_2
REMARK    2  A    between atoms: C_4  and  N_5
REMARK    3  A    between atoms: C_6  and  C_8
REMARK    4  A    between atoms: C_10  and  C_11
REMARK    5  A    between atoms: C_16  and  N_17
REMARK    6  A    between atoms: N_17  and  C_18
REMARK    7  A    between atoms: C_24  and  C_25
REMARK    8  A    between atoms: N_27  and  C_28
REMARK                            x       y       z     vdW  Elec       q    Type
REMARK                         _______ _______ _______ _____ _____    ______ ____
ROOT
ATOM      1  N   UNL     1       2.933   7.363  19.486  0.00  0.00    +0.000 N 
ATOM      2  C   UNL     1       2.817   6.643  18.288  0.00  0.00    +0.000 C 
ATOM      3  O   UNL     1       1.812   6.553  17.587  0.00  0.00    +0.000 OA
ATOM      4  H   UNL     1       3.853   7.373  19.929  0.00  0.00    +0.000 HD
ENDROOT
BRANCH   1   8
ATOM      5  C   UNL     1      -0.729   8.566  22.514  0.00  0.00    +0.000 C 
ATOM      6  N   UNL     1       0.271   8.614  21.472  0.00  0.00    +0.000 N 
ATOM      7  C   UNL     1       1.199   7.661  21.209  0.00  0.00    +0.000 A 
ATOM      8  C   UNL     1       1.908   8.078  20.104  0.00  0.00    +0.000 A 
ATOM      9  C   UNL     1       1.328   9.367  19.788  0.00  0.00    +0.000 A 
ATOM     10  N   UNL     1       0.329   9.668  20.646  0.00  0.00    +0.000 NA
BRANCH   9  11
ATOM     11  C   UNL     1       1.648  10.310  18.691  0.00  0.00    +0.000 C 
ATOM     12  O   UNL     1       1.973   9.936  17.568  0.00  0.00    +0.000 OA
ATOM     13  N   UNL     1       1.520  11.653  19.051  0.00  0.00    +0.000 N 
ATOM     14  H   UNL     1       1.243  11.807  20.018  0.00  0.00    +0.000 HD
BRANCH  13  15
ATOM     15  C   UNL     1       1.632  12.767  18.113  0.00  0.00    +0.000 C 
ATOM     16  C   UNL     1       0.467  13.768  18.251  0.00  0.00    +0.000 C 
ATOM     17  C   UNL     1       0.657  14.831  19.332  0.00  0.00    +0.000 C 
ATOM     18  C   UNL     1       1.992  15.546  19.182  0.00  0.00    +0.000 C 
ATOM     19  C   UNL     1       3.137  14.544  19.243  0.00  0.00    +0.000 C 
ATOM     20  C   UNL     1       3.007  13.458  18.172  0.00  0.00    +0.000 C 
ENDBRANCH  13  15
ENDBRANCH   9  11
ENDBRANCH   1   8
BRANCH   2  21
ATOM     21  C   UNL     1       4.082   5.944  17.848  0.00  0.00    +0.000 A 
ATOM     22  N   UNL     1       5.150   6.791  17.698  0.00  0.00    +0.000 NA
ATOM     23  C   UNL     1       6.334   6.272  17.294  0.00  0.00    +0.000 A 
ATOM     24  C   UNL     1       6.473   4.910  17.035  0.00  0.00    +0.000 A 
ATOM     25  C   UNL     1       5.387   4.064  17.201  0.00  0.00    +0.000 A 
ATOM     26  C   UNL     1       4.145   4.557  17.624  0.00  0.00    +0.000 A 
BRANCH  23  27
ATOM     27  C   UNL     1       7.509   7.197  17.149  0.00  0.00    +0.000 C 
ATOM     28  C   UNL     1       7.429   8.623  17.647  0.00  0.00    +0.000 C 
ATOM     29  C   UNL     1       8.273   7.622  18.377  0.00  0.00    +0.000 C 
ENDBRANCH  23  27
BRANCH  26  30
ATOM     30  N   UNL     1       3.089   3.644  17.851  0.00  0.00    +0.000 N 
ATOM     31  H   UNL     1       2.653   3.284  16.999  0.00  0.00    +0.000 HD
BRANCH  30  32
ATOM     32  C   UNL     1       2.528   3.234  19.070  0.00  0.00    +0.000 A 
ATOM     33  C   UNL     1       1.179   3.348  19.382  0.00  0.00    +0.000 A 
ATOM     34  N   UNL     1       0.632   3.094  20.592  0.00  0.00    +0.000 NA
ATOM     35  C   UNL     1       1.494   2.701  21.539  0.00  0.00    +0.000 A 
ATOM     36  N   UNL     1       2.814   2.528  21.376  0.00  0.00    +0.000 NA
ATOM     37  C   UNL     1       3.294   2.801  20.138  0.00  0.00    +0.000 A 
ENDBRANCH  30  32
ENDBRANCH  26  30
ENDBRANCH   2  21
TORSDOF 7
ENDMDL
MODEL 4
REMARK VINA RESULT:      -7.5      4.898      7.869
REMARK  Name = 
REMARK  8 active torsions:
REMARK  status: ('A' for Active; 'I' for Inactive)
REMARK    1  A    between atoms: C_1  and  N_2
REMARK    2  A    between atoms: C_4  and  N_5
REMARK    3  A    between atoms: C_6  and  C_8
REMARK    4  A    between atoms: C_10  and  C_11
REMARK    5  A    between atoms: C_16  and  N_17
REMARK    6  A    between atoms: N_17  and  C_18
REMARK    7  A    between atoms: C_24  and  C_25
REMARK    8  A    between atoms: N_27  and  C_28
REMARK                            x       y       z     vdW  Elec       q    Type
REMARK                         _______ _______ _______ _____ _____    ______ ____
ROOT
ATOM      1  N   UNL     1      -4.218  12.430  18.903  0.00  0.00    +0.000 N 
ATOM      2  C   UNL     1      -5.390  12.038  19.565  0.00  0.00    +0.000 C 
ATOM      3  O   UNL     1      -6.071  11.045  19.315  0.00  0.00    +0.000 OA
ATOM      4  H   UNL     1      -3.744  13.261  19.260  0.00  0.00    +0.000 HD
ENDROOT
BRANCH   1   8
ATOM      5  C   UNL     1      -3.689  10.023  14.665  0.00  0.00    +0.000 C 
ATOM      6  N   UNL     1      -3.410  10.698  15.912  0.00  0.00    +0.000 N 
ATOM      7  C   UNL     1      -4.318  11.314  16.709  0.00  0.00    +0.000 A 
ATOM      8  C   UNL     1      -3.640  11.769  17.818  0.00  0.00    +0.000 A 
ATOM      9  C   UNL     1      -2.265  11.393  17.563  0.00  0.00    +0.000 A 
ATOM     10  N   UNL     1      -2.156  10.739  16.385  0.00  0.00    +0.000 NA
BRANCH   9  11
ATOM     11  C   UNL     1      -1.055  11.589  18.395  0.00  0.00    +0.000 C 
ATOM     12  O   UNL     1      -0.352  12.593  18.320  0.00  0.00    +0.000 OA
ATOM     13  N   UNL     1      -0.810  10.540  19.285  0.00  0.00    +0.000 N 
ATOM     14  H   UNL     1      -1.480   9.776  19.232  0.00  0.00    +0.000 HD
BRANCH  13  15
ATOM     15  C   UNL     1       0.228  10.562  20.312  0.00  0.00    +0.000 C 
ATOM     16  C   UNL     1      -0.101  11.543  21.455  0.00  0.00    +0.000 C 
ATOM     17  C   UNL     1      -0.993  10.972  22.556  0.00  0.00    +0.000 C 
ATOM     18  C   UNL     1      -0.446   9.656  23.090  0.00  0.00    +0.000 C 
ATOM     19  C   UNL     1      -0.314   8.643  21.960  0.00  0.00    +0.000 C 
ATOM     20  C   UNL     1       0.581   9.157  20.830  0.00  0.00    +0.000 C 
ENDBRANCH  13  15
ENDBRANCH   9  11
ENDBRANCH   1   8
BRANCH   2  21
ATOM     21  C   UNL     1      -5.806  12.944  20.700  0.00  0.00    +0.000 A 
ATOM     22  N   UNL     1      -4.989  12.854  21.797  0.00  0.00    +0.000 NA
ATOM     23  C   UNL     1      -5.275  13.616  22.880  0.00  0.00    +0.000 A 
ATOM     24  C   UNL     1      -6.374  14.474  22.888  0.00  0.00    +0.000 A 
ATOM     25  C   UNL     1      -7.185  14.562  21.767  0.00  0.00    +0.000 A 
ATOM     26  C   UNL     1      -6.921  13.797  20.622  0.00  0.00    +0.000 A 
BRANCH  23  27
ATOM     27  C   UNL     1      -4.369  13.531  24.075  0.00  0.00    +0.000 C 
ATOM     28  C   UNL     1      -2.882  13.762  23.928  0.00  0.00    +0.000 C 
ATOM     29  C   UNL     1      -3.733  14.788  24.613  0.00  0.00    +0.000 C 
ENDBRANCH  23  27
BRANCH  26  30
ATOM     30  N   UNL     1      -7.732  13.979  19.478  0.00  0.00    +0.000 N 
ATOM     31  H   UNL     1      -8.543  13.357  19.433  0.00  0.00    +0.000 HD
BRANCH  30  32
ATOM     32  C   UNL     1      -7.531  14.834  18.383  0.00  0.00    +0.000 A 
ATOM     33  C   UNL     1      -7.914  16.169  18.360  0.00  0.00    +0.000 A 
ATOM     34  N   UNL     1      -7.862  16.978  17.278  0.00  0.00    +0.000 NA
ATOM     35  C   UNL     1      -7.394  16.410  16.159  0.00  0.00    +0.000 A 
ATOM     36  N   UNL     1      -6.970  15.143  16.042  0.00  0.00    +0.000 NA
ATOM     37  C   UNL     1      -7.050  14.389  17.164  0.00  0.00    +0.000 A 
ENDBRANCH  30  32
ENDBRANCH  26  30
ENDBRANCH   2  21
TORSDOF 7
ENDMDL
MODEL 5
REMARK VINA RESULT:      -7.3      3.899      7.396
REMARK  Name = 
REMARK  8 active torsions:
REMARK  status: ('A' for Active; 'I' for Inactive)
REMARK    1  A    between atoms: C_1  and  N_2
REMARK    2  A    between atoms: C_4  and  N_5
REMARK    3  A    between atoms: C_6  and  C_8
REMARK    4  A    between atoms: C_10  and  C_11
REMARK    5  A    between atoms: C_16  and  N_17
REMARK    6  A    between atoms: N_17  and  C_18
REMARK    7  A    between atoms: C_24  and  C_25
REMARK    8  A    between atoms: N_27  and  C_28
REMARK                            x       y       z     vdW  Elec       q    Type
REMARK                         _______ _______ _______ _____ _____    ______ ____
ROOT
ATOM      1  N   UNL     1      -4.400  12.212  18.812  0.00  0.00    +0.000 N 
ATOM      2  C   UNL     1      -5.684  11.906  19.286  0.00  0.00    +0.000 C 
ATOM      3  O   UNL     1      -6.451  11.067  18.819  0.00  0.00    +0.000 OA
ATOM      4  H   UNL     1      -3.869  12.908  19.339  0.00  0.00    +0.000 HD
ENDROOT
BRANCH   1   8
ATOM      5  C   UNL     1      -3.733  10.102  14.439  0.00  0.00    +0.000 C 
ATOM      6  N   UNL     1      -3.494  10.695  15.734  0.00  0.00    +0.000 N 
ATOM      7  C   UNL     1      -4.430  11.244  16.548  0.00  0.00    +0.000 A 
ATOM      8  C   UNL     1      -3.786  11.633  17.701  0.00  0.00    +0.000 A 
ATOM      9  C   UNL     1      -2.400  11.293  17.457  0.00  0.00    +0.000 A 
ATOM     10  N   UNL     1      -2.253  10.721  16.241  0.00  0.00    +0.000 NA
BRANCH   9  11
ATOM     11  C   UNL     1      -1.214  11.447  18.331  0.00  0.00    +0.000 C 
ATOM     12  O   UNL     1      -1.236  12.102  19.369  0.00  0.00    +0.000 OA
ATOM     13  N   UNL     1      -0.087  10.760  17.875  0.00  0.00    +0.000 N 
ATOM     14  H   UNL     1      -0.223  10.261  16.998  0.00  0.00    +0.000 HD
BRANCH  13  15
ATOM     15  C   UNL     1       1.156  10.632  18.630  0.00  0.00    +0.000 C 
ATOM     16  C   UNL     1       0.908  10.242  20.102  0.00  0.00    +0.000 C 
ATOM     17  C   UNL     1       0.756   8.741  20.352  0.00  0.00    +0.000 C 
ATOM     18  C   UNL     1       1.913   7.956  19.753  0.00  0.00    +0.000 C 
ATOM     19  C   UNL     1       2.010   8.218  18.256  0.00  0.00    +0.000 C 
ATOM     20  C   UNL     1       2.176   9.706  17.944  0.00  0.00    +0.000 C 
ENDBRANCH  13  15
ENDBRANCH   9  11
ENDBRANCH   1   8
BRANCH   2  21
ATOM     21  C   UNL     1      -6.113  12.695  20.501  0.00  0.00    +0.000 A 
ATOM     22  N   UNL     1      -5.361  12.430  21.616  0.00  0.00    +0.000 NA
ATOM     23  C   UNL     1      -5.665  13.074  22.768  0.00  0.00    +0.000 A 
ATOM     24  C   UNL     1      -6.717  13.987  22.827  0.00  0.00    +0.000 A 
ATOM     25  C   UNL     1      -7.462  14.251  21.689  0.00  0.00    +0.000 A 
ATOM     26  C   UNL     1      -7.177  13.613  20.474  0.00  0.00    +0.000 A 
BRANCH  23  27
ATOM     27  C   UNL     1      -4.829  12.798  23.986  0.00  0.00    +0.000 C 
ATOM     28  C   UNL     1      -3.391  12.351  23.844  0.00  0.00    +0.000 C 
ATOM     29  C   UNL     1      -3.700  13.733  24.336  0.00  0.00    +0.000 C 
ENDBRANCH  23  27
BRANCH  26  30
ATOM     30  N   UNL     1      -7.916  13.974  19.323  0.00  0.00    +0.000 N 
ATOM     31  H   UNL     1      -8.800  13.471  19.216  0.00  0.00    +0.000 HD
BRANCH  30  32
ATOM     32  C   UNL     1      -7.564  14.861  18.294  0.00  0.00    +0.000 A 
ATOM     33  C   UNL     1      -7.637  16.244  18.402  0.00  0.00    +0.000 A 
ATOM     34  N   UNL     1      -7.440  17.118  17.390  0.00  0.00    +0.000 NA
ATOM     35  C   UNL     1      -7.150  16.567  16.204  0.00  0.00    +0.000 A 
ATOM     36  N   UNL     1      -7.027  15.254  15.959  0.00  0.00    +0.000 NA
ATOM     37  C   UNL     1      -7.237  14.436  17.018  0.00  0.00    +0.000 A 
ENDBRANCH  30  32
ENDBRANCH  26  30
ENDBRANCH   2  21
TORSDOF 7
ENDMDL
MODEL 6
REMARK VINA RESULT:      -7.2      3.592     10.010
REMARK  Name = 
REMARK  8 active torsions:
REMARK  status: ('A' for Active; 'I' for Inactive)
REMARK    1  A    between atoms: C_1  and  N_2
REMARK    2  A    between atoms: C_4  and  N_5
REMARK    3  A    between atoms: C_6  and  C_8
REMARK    4  A    between atoms: C_10  and  C_11
REMARK    5  A    between atoms: C_16  and  N_17
REMARK    6  A    between atoms: N_17  and  C_18
REMARK    7  A    between atoms: C_24  and  C_25
REMARK    8  A    between atoms: N_27  and  C_28
REMARK                            x       y       z     vdW  Elec       q    Type
REMARK                         _______ _______ _______ _____ _____    ______ ____
ROOT
ATOM      1  N   UNL     1      -1.265  14.110  19.308  0.00  0.00    +0.000 N 
ATOM      2  C   UNL     1      -0.931  12.774  19.573  0.00  0.00    +0.000 C 
ATOM      3  O   UNL     1      -0.134  12.377  20.420  0.00  0.00    +0.000 OA
ATOM      4  H   UNL     1      -1.981  14.273  18.598  0.00  0.00    +0.000 HD
ENDROOT
BRANCH   1   8
ATOM      5  C   UNL     1       1.132  18.315  20.084  0.00  0.00    +0.000 C 
ATOM      6  N   UNL     1       0.352  17.115  20.284  0.00  0.00    +0.000 N 
ATOM      7  C   UNL     1      -0.057  16.257  19.317  0.00  0.00    +0.000 A 
ATOM      8  C   UNL     1      -0.718  15.224  19.945  0.00  0.00    +0.000 A 
ATOM      9  C   UNL     1      -0.683  15.591  21.346  0.00  0.00    +0.000 A 
ATOM     10  N   UNL     1      -0.021  16.757  21.520  0.00  0.00    +0.000 NA
BRANCH   9  11
ATOM     11  C   UNL     1      -1.210  14.875  22.530  0.00  0.00    +0.000 C 
ATOM     12  O   UNL     1      -0.518  14.612  23.509  0.00  0.00    +0.000 OA
ATOM     13  N   UNL     1      -2.566  14.554  22.434  0.00  0.00    +0.000 N 
ATOM     14  H   UNL     1      -3.006  14.837  21.561  0.00  0.00    +0.000 HD
BRANCH  13  15
ATOM     15  C   UNL     1      -3.353  13.985  23.525  0.00  0.00    +0.000 C 
ATOM     16  C   UNL     1      -4.021  15.070  24.393  0.00  0.00    +0.000 C 
ATOM     17  C   UNL     1      -5.363  15.579  23.866  0.00  0.00    +0.000 C 
ATOM     18  C   UNL     1      -6.318  14.431  23.575  0.00  0.00    +0.000 C 
ATOM     19  C   UNL     1      -5.700  13.474  22.563  0.00  0.00    +0.000 C 
ATOM     20  C   UNL     1      -4.356  12.922  23.042  0.00  0.00    +0.000 C 
ENDBRANCH  13  15
ENDBRANCH   9  11
ENDBRANCH   1   8
BRANCH   2  21
ATOM     21  C   UNL     1      -1.663  11.761  18.724  0.00  0.00    +0.000 A 
ATOM     22  N   UNL     1      -3.017  11.973  18.668  0.00  0.00    +0.000 NA
ATOM     23  C   UNL     1      -3.775  11.117  17.943  0.00  0.00    +0.000 A 
ATOM     24  C   UNL     1      -3.201  10.041  17.266  0.00  0.00    +0.000 A 
ATOM     25  C   UNL     1      -1.830   9.846  17.325  0.00  0.00    +0.000 A 
ATOM     26  C   UNL     1      -1.007  10.712  18.058  0.00  0.00    +0.000 A 
BRANCH  23  27
ATOM     27  C   UNL     1      -5.255  11.360  17.865  0.00  0.00    +0.000 C 
ATOM     28  C   UNL     1      -6.186  10.769  18.900  0.00  0.00    +0.000 C 
ATOM     29  C   UNL     1      -5.915  12.244  18.893  0.00  0.00    +0.000 C 
ENDBRANCH  23  27
BRANCH  26  30
ATOM     30  N   UNL     1       0.393  10.515  18.025  0.00  0.00    +0.000 N 
ATOM     31  H   UNL     1       0.904  11.211  17.477  0.00  0.00    +0.000 HD
BRANCH  30  32
ATOM     32  C   UNL     1       1.147   9.466  18.575  0.00  0.00    +0.000 A 
ATOM     33  C   UNL     1       1.971   8.629  17.832  0.00  0.00    +0.000 A 
ATOM     34  N   UNL     1       2.598   7.529  18.306  0.00  0.00    +0.000 NA
ATOM     35  C   UNL     1       2.384   7.260  19.601  0.00  0.00    +0.000 A 
ATOM     36  N   UNL     1       1.633   7.989  20.439  0.00  0.00    +0.000 NA
ATOM     37  C   UNL     1       1.035   9.078  19.898  0.00  0.00    +0.000 A 
ENDBRANCH  30  32
ENDBRANCH  26  30
ENDBRANCH   2  21
TORSDOF 7
ENDMDL
MODEL 7
REMARK VINA RESULT:      -7.2      3.386      9.744
REMARK  Name = 
REMARK  8 active torsions:
REMARK  status: ('A' for Active; 'I' for Inactive)
REMARK    1  A    between atoms: C_1  and  N_2
REMARK    2  A    between atoms: C_4  and  N_5
REMARK    3  A    between atoms: C_6  and  C_8
REMARK    4  A    between atoms: C_10  and  C_11
REMARK    5  A    between atoms: C_16  and  N_17
REMARK    6  A    between atoms: N_17  and  C_18
REMARK    7  A    between atoms: C_24  and  C_25
REMARK    8  A    between atoms: N_27  and  C_28
REMARK                            x       y       z     vdW  Elec       q    Type
REMARK                         _______ _______ _______ _____ _____    ______ ____
ROOT
ATOM      1  N   UNL     1      -0.819  13.968  18.696  0.00  0.00    +0.000 N 
ATOM      2  C   UNL     1      -1.249  12.863  19.442  0.00  0.00    +0.000 C 
ATOM      3  O   UNL     1      -1.147  12.720  20.659  0.00  0.00    +0.000 OA
ATOM      4  H   UNL     1      -1.017  13.953  17.694  0.00  0.00    +0.000 HD
ENDROOT
BRANCH   1   8
ATOM      5  C   UNL     1       2.693  17.202  19.811  0.00  0.00    +0.000 C 
ATOM      6  N   UNL     1       1.414  16.539  19.699  0.00  0.00    +0.000 N 
ATOM      7  C   UNL     1       1.159  15.404  19.002  0.00  0.00    +0.000 A 
ATOM      8  C   UNL     1      -0.165  15.089  19.210  0.00  0.00    +0.000 A 
ATOM      9  C   UNL     1      -0.649  16.163  20.052  0.00  0.00    +0.000 A 
ATOM     10  N   UNL     1       0.343  17.037  20.333  0.00  0.00    +0.000 NA
BRANCH   9  11
ATOM     11  C   UNL     1      -1.992  16.382  20.635  0.00  0.00    +0.000 C 
ATOM     12  O   UNL     1      -2.741  17.279  20.258  0.00  0.00    +0.000 OA
ATOM     13  N   UNL     1      -2.331  15.462  21.629  0.00  0.00    +0.000 N 
ATOM     14  H   UNL     1      -1.607  14.776  21.834  0.00  0.00    +0.000 HD
BRANCH  13  15
ATOM     15  C   UNL     1      -3.650  15.372  22.250  0.00  0.00    +0.000 C 
ATOM     16  C   UNL     1      -4.556  14.338  21.552  0.00  0.00    +0.000 C 
ATOM     17  C   UNL     1      -4.377  12.898  22.034  0.00  0.00    +0.000 C 
ATOM     18  C   UNL     1      -4.482  12.801  23.549  0.00  0.00    +0.000 C 
ATOM     19  C   UNL     1      -3.440  13.694  24.208  0.00  0.00    +0.000 C 
ATOM     20  C   UNL     1      -3.578  15.154  23.772  0.00  0.00    +0.000 C 
ENDBRANCH  13  15
ENDBRANCH   9  11
ENDBRANCH   1   8
BRANCH   2  21
ATOM     21  C   UNL     1      -1.917  11.776  18.632  0.00  0.00    +0.000 A 
ATOM     22  N   UNL     1      -3.278  11.920  18.543  0.00  0.00    +0.000 NA
ATOM     23  C   UNL     1      -3.981  10.994  17.848  0.00  0.00    +0.000 A 
ATOM     24  C   UNL     1      -3.344   9.917  17.233  0.00  0.00    +0.000 A 
ATOM     25  C   UNL     1      -1.967   9.791  17.324  0.00  0.00    +0.000 A 
ATOM     26  C   UNL     1      -1.199  10.729  18.027  0.00  0.00    +0.000 A 
BRANCH  23  27
ATOM     27  C   UNL     1      -5.470  11.162  17.734  0.00  0.00    +0.000 C 
ATOM     28  C   UNL     1      -6.233  11.956  18.770  0.00  0.00    +0.000 C 
ATOM     29  C   UNL     1      -6.038  12.517  17.394  0.00  0.00    +0.000 C 
ENDBRANCH  23  27
BRANCH  26  30
ATOM     30  N   UNL     1       0.209  10.599  18.026  0.00  0.00    +0.000 N 
ATOM     31  H   UNL     1       0.699  11.322  17.494  0.00  0.00    +0.000 HD
BRANCH  30  32
ATOM     32  C   UNL     1       0.998   9.584  18.589  0.00  0.00    +0.000 A 
ATOM     33  C   UNL     1       1.797   8.721  17.850  0.00  0.00    +0.000 A 
ATOM     34  N   UNL     1       2.457   7.650  18.345  0.00  0.00    +0.000 NA
ATOM     35  C   UNL     1       2.306   7.440  19.659  0.00  0.00    +0.000 A 
ATOM     36  N   UNL     1       1.586   8.202  20.496  0.00  0.00    +0.000 NA
ATOM     37  C   UNL     1       0.951   9.258  19.933  0.00  0.00    +0.000 A 
ENDBRANCH  30  32
ENDBRANCH  26  30
ENDBRANCH   2  21
TORSDOF 7
ENDMDL
MODEL 8
REMARK VINA RESULT:      -7.2      1.734      9.541
REMARK  Name = 
REMARK  8 active torsions:
REMARK  status: ('A' for Active; 'I' for Inactive)
REMARK    1  A    between atoms: C_1  and  N_2
REMARK    2  A    between atoms: C_4  and  N_5
REMARK    3  A    between atoms: C_6  and  C_8
REMARK    4  A    between atoms: C_10  and  C_11
REMARK    5  A    between atoms: C_16  and  N_17
REMARK    6  A    between atoms: N_17  and  C_18
REMARK    7  A    between atoms: C_24  and  C_25
REMARK    8  A    between atoms: N_27  and  C_28
REMARK                            x       y       z     vdW  Elec       q    Type
REMARK                         _______ _______ _______ _____ _____    ______ ____
ROOT
ATOM      1  N   UNL     1       1.492   8.973  19.496  0.00  0.00    +0.000 N 
ATOM      2  C   UNL     1       2.164   8.359  18.429  0.00  0.00    +0.000 C 
ATOM      3  O   UNL     1       2.429   8.872  17.344  0.00  0.00    +0.000 OA
ATOM      4  H   UNL     1       1.387   8.424  20.351  0.00  0.00    +0.000 HD
ENDROOT
BRANCH   1   8
ATOM      5  C   UNL     1       0.813  13.713  20.548  0.00  0.00    +0.000 C 
ATOM      6  N   UNL     1       0.685  12.398  19.962  0.00  0.00    +0.000 N 
ATOM      7  C   UNL     1       1.487  11.332  20.205  0.00  0.00    +0.000 A 
ATOM      8  C   UNL     1       0.977  10.270  19.491  0.00  0.00    +0.000 A 
ATOM      9  C   UNL     1      -0.159  10.834  18.794  0.00  0.00    +0.000 A 
ATOM     10  N   UNL     1      -0.311  12.142  19.102  0.00  0.00    +0.000 NA
BRANCH   9  11
ATOM     11  C   UNL     1      -1.130  10.190  17.880  0.00  0.00    +0.000 C 
ATOM     12  O   UNL     1      -0.854   9.199  17.210  0.00  0.00    +0.000 OA
ATOM     13  N   UNL     1      -2.387  10.799  17.876  0.00  0.00    +0.000 N 
ATOM     14  H   UNL     1      -2.465  11.611  18.484  0.00  0.00    +0.000 HD
BRANCH  13  15
ATOM     15  C   UNL     1      -3.554  10.266  17.178  0.00  0.00    +0.000 C 
ATOM     16  C   UNL     1      -4.545   9.577  18.138  0.00  0.00    +0.000 C 
ATOM     17  C   UNL     1      -5.544  10.517  18.814  0.00  0.00    +0.000 C 
ATOM     18  C   UNL     1      -6.265  11.389  17.797  0.00  0.00    +0.000 C 
ATOM     19  C   UNL     1      -5.260  12.203  16.993  0.00  0.00    +0.000 C 
ATOM     20  C   UNL     1      -4.240  11.312  16.281  0.00  0.00    +0.000 C 
ENDBRANCH  13  15
ENDBRANCH   9  11
ENDBRANCH   1   8
BRANCH   2  21
ATOM     21  C   UNL     1       2.604   6.939  18.695  0.00  0.00    +0.000 A 
ATOM     22  N   UNL     1       1.856   6.306  19.654  0.00  0.00    +0.000 NA
ATOM     23  C   UNL     1       2.169   5.030  19.981  0.00  0.00    +0.000 A 
ATOM     24  C   UNL     1       3.228   4.367  19.362  0.00  0.00    +0.000 A 
ATOM     25  C   UNL     1       3.969   5.016  18.387  0.00  0.00    +0.000 A 
ATOM     26  C   UNL     1       3.674   6.334  18.013  0.00  0.00    +0.000 A 
BRANCH  23  27
ATOM     27  C   UNL     1       1.337   4.330  21.018  0.00  0.00    +0.000 C 
ATOM     28  C   UNL     1       0.808   2.937  20.765  0.00  0.00    +0.000 C 
ATOM     29  C   UNL     1       1.914   3.148  21.755  0.00  0.00    +0.000 C 
ENDBRANCH  23  27
BRANCH  26  30
ATOM     30  N   UNL     1       4.410   6.926  16.960  0.00  0.00    +0.000 N 
ATOM     31  H   UNL     1       4.157   7.897  16.764  0.00  0.00    +0.000 HD
BRANCH  30  32
ATOM     32  C   UNL     1       5.372   6.341  16.122  0.00  0.00    +0.000 A 
ATOM     33  C   UNL     1       5.065   5.528  15.038  0.00  0.00    +0.000 A 
ATOM     34  N   UNL     1       5.964   4.839  14.299  0.00  0.00    +0.000 NA
ATOM     35  C   UNL     1       7.242   4.981  14.672  0.00  0.00    +0.000 A 
ATOM     36  N   UNL     1       7.684   5.747  15.680  0.00  0.00    +0.000 NA
ATOM     37  C   UNL     1       6.730   6.409  16.379  0.00  0.00    +0.000 A 
ENDBRANCH  30  32
ENDBRANCH  26  30
ENDBRANCH   2  21
TORSDOF 7
ENDMDL
MODEL 9
REMARK VINA RESULT:      -7.1      3.405      9.399
REMARK  Name = 
REMARK  8 active torsions:
REMARK  status: ('A' for Active; 'I' for Inactive)
REMARK    1  A    between atoms: C_1  and  N_2
REMARK    2  A    between atoms: C_4  and  N_5
REMARK    3  A    between atoms: C_6  and  C_8
REMARK    4  A    between atoms: C_10  and  C_11
REMARK    5  A    between atoms: C_16  and  N_17
REMARK    6  A    between atoms: N_17  and  C_18
REMARK    7  A    between atoms: C_24  and  C_25
REMARK    8  A    between atoms: N_27  and  C_28
REMARK                            x       y       z     vdW  Elec       q    Type
REMARK                         _______ _______ _______ _____ _____    ______ ____
ROOT
ATOM      1  N   UNL     1      -0.010  13.199  19.823  0.00  0.00    +0.000 N 
ATOM      2  C   UNL     1      -0.962  12.243  20.206  0.00  0.00    +0.000 C 
ATOM      3  O   UNL     1      -1.270  11.943  21.358  0.00  0.00    +0.000 OA
ATOM      4  H   UNL     1       0.100  13.363  18.821  0.00  0.00    +0.000 HD
ENDROOT
BRANCH   1   8
ATOM      5  C   UNL     1       3.855  14.884  22.324  0.00  0.00    +0.000 C 
ATOM      6  N   UNL     1       2.517  14.710  21.805  0.00  0.00    +0.000 N 
ATOM      7  C   UNL     1       2.141  13.833  20.840  0.00  0.00    +0.000 A 
ATOM      8  C   UNL     1       0.777  13.953  20.693  0.00  0.00    +0.000 A 
ATOM      9  C   UNL     1       0.418  14.999  21.628  0.00  0.00    +0.000 A 
ATOM     10  N   UNL     1       1.508  15.444  22.293  0.00  0.00    +0.000 NA
BRANCH   9  11
ATOM     11  C   UNL     1      -0.909  15.573  21.950  0.00  0.00    +0.000 C 
ATOM     12  O   UNL     1      -1.274  16.671  21.541  0.00  0.00    +0.000 OA
ATOM     13  N   UNL     1      -1.706  14.737  22.736  0.00  0.00    +0.000 N 
ATOM     14  H   UNL     1      -1.266  13.857  22.997  0.00  0.00    +0.000 HD
BRANCH  13  15
ATOM     15  C   UNL     1      -3.103  15.006  23.062  0.00  0.00    +0.000 C 
ATOM     16  C   UNL     1      -4.074  14.375  22.043  0.00  0.00    +0.000 C 
ATOM     17  C   UNL     1      -4.429  12.913  22.315  0.00  0.00    +0.000 C 
ATOM     18  C   UNL     1      -4.912  12.713  23.744  0.00  0.00    +0.000 C 
ATOM     19  C   UNL     1      -3.846  13.173  24.730  0.00  0.00    +0.000 C 
ATOM     20  C   UNL     1      -3.458  14.637  24.514  0.00  0.00    +0.000 C 
ENDBRANCH  13  15
ENDBRANCH   9  11
ENDBRANCH   1   8
BRANCH   2  21
ATOM     21  C   UNL     1      -1.664  11.557  19.058  0.00  0.00    +0.000 A 
ATOM     22  N   UNL     1      -3.009  11.819  19.007  0.00  0.00    +0.000 NA
ATOM     23  C   UNL     1      -3.742  11.246  18.022  0.00  0.00    +0.000 A 
ATOM     24  C   UNL     1      -3.150  10.407  17.079  0.00  0.00    +0.000 A 
ATOM     25  C   UNL     1      -1.788  10.160  17.138  0.00  0.00    +0.000 A 
ATOM     26  C   UNL     1      -0.990  10.738  18.135  0.00  0.00    +0.000 A 
BRANCH  23  27
ATOM     27  C   UNL     1      -5.212  11.548  17.954  0.00  0.00    +0.000 C 
ATOM     28  C   UNL     1      -6.207  10.685  18.696  0.00  0.00    +0.000 C 
ATOM     29  C   UNL     1      -5.916  12.074  19.179  0.00  0.00    +0.000 C 
ENDBRANCH  23  27
BRANCH  26  30
ATOM     30  N   UNL     1       0.406  10.516  18.108  0.00  0.00    +0.000 N 
ATOM     31  H   UNL     1       0.933  11.209  17.571  0.00  0.00    +0.000 HD
BRANCH  30  32
ATOM     32  C   UNL     1       1.138   9.448  18.650  0.00  0.00    +0.000 A 
ATOM     33  C   UNL     1       1.912   8.575  17.897  0.00  0.00    +0.000 A 
ATOM     34  N   UNL     1       2.514   7.459  18.367  0.00  0.00    +0.000 NA
ATOM     35  C   UNL     1       2.325   7.212  19.670  0.00  0.00    +0.000 A 
ATOM     36  N   UNL     1       1.623   7.976  20.519  0.00  0.00    +0.000 NA
ATOM     37  C   UNL     1       1.047   9.078  19.981  0.00  0.00    +0.000 A 
ENDBRANCH  30  32
ENDBRANCH  26  30
ENDBRANCH   2  21
TORSDOF 7
ENDMDL
