MODEL 1
REMARK VINA RESULT:      -8.7      0.000      0.000
REMARK  Name = 
REMARK  8 active torsions:
REMARK  status: ('A' for Active; 'I' for Inactive)
REMARK    1  A    between atoms: C_1  and  N_2
REMARK    2  A    between atoms: N_2  and  C_3
REMARK    3  A    between atoms: N_2  and  C_4
REMARK    4  A    between atoms: C_7  and  N_8
REMARK    5  A    between atoms: N_8  and  C_9
REMARK    6  A    between atoms: N_16  and  C_17
REMARK    7  A    between atoms: C_17  and  C_18
REMARK    8  A    between atoms: C_18  and  C_19
REMARK                            x       y       z     vdW  Elec       q    Type
REMARK                         _______ _______ _______ _____ _____    ______ ____
ROOT
ATOM      1  C   UNL     1       8.216   7.576  18.392  0.00  0.00    +0.000 C 
ATOM      2  C   UNL     1       7.451   6.479  18.257  0.00  0.00    +0.000 C 
ATOM      3  C   UNL     1       7.812   5.274  19.015  0.00  0.00    +0.000 C 
ATOM      4  O   UNL     1       8.870   5.128  19.615  0.00  0.00    +0.000 OA
ATOM      5  N   UNL     1       6.835   4.327  19.037  0.00  0.00    +0.000 N 
ATOM      6  C   UNL     1       5.565   4.428  18.544  0.00  0.00    +0.000 C 
ATOM      7  O   UNL     1       4.778   3.520  18.795  0.00  0.00    +0.000 OA
ATOM      8  N   UNL     1       5.268   5.550  17.791  0.00  0.00    +0.000 N 
ATOM      9  C   UNL     1       6.223   6.496  17.441  0.00  0.00    +0.000 C 
ATOM     10  O   UNL     1       6.086   7.306  16.525  0.00  0.00    +0.000 OA
ATOM     11  H   UNL     1       7.021   3.509  19.601  0.00  0.00    +0.000 HD
ENDROOT
BRANCH   1  12
ATOM     12  N   UNL     1       7.997   8.845  17.913  0.00  0.00    +0.000 N 
ATOM     13  H   UNL     1       7.326   8.942  17.148  0.00  0.00    +0.000 HD
BRANCH  12  17
ATOM     14  C   UNL     1       9.714  12.511  19.271  0.00  0.00    +0.000 A 
ATOM     15  C   UNL     1       9.914  11.304  19.954  0.00  0.00    +0.000 A 
ATOM     16  C   UNL     1       9.364  10.093  19.513  0.00  0.00    +0.000 A 
ATOM     17  C   UNL     1       8.625  10.024  18.334  0.00  0.00    +0.000 A 
ATOM     18  C   UNL     1       8.430  11.208  17.625  0.00  0.00    +0.000 A 
ATOM     19  C   UNL     1       8.961  12.425  18.085  0.00  0.00    +0.000 A 
BRANCH  14  21
ATOM     20  C   UNL     1       9.372  14.877  19.889  0.00  0.00    +0.000 C 
ATOM     21  N   UNL     1      10.245  13.716  19.725  0.00  0.00    +0.000 N 
ATOM     22  C   UNL     1      11.666  13.987  19.541  0.00  0.00    +0.000 C 
ENDBRANCH  14  21
ENDBRANCH  12  17
ENDBRANCH   1  12
BRANCH   8  23
ATOM     23  C   UNL     1       3.990   5.639  17.072  0.00  0.00    +0.000 C 
BRANCH  23  24
ATOM     24  C   UNL     1       2.777   6.152  17.865  0.00  0.00    +0.000 C 
BRANCH  24  25
ATOM     25  C   UNL     1       2.101   5.053  18.662  0.00  0.00    +0.000 C 
ATOM     26  C   UNL     1       1.937   5.156  19.995  0.00  0.00    +0.000 C 
ATOM     27  C   UNL     1       1.308   4.090  20.844  0.00  0.00    +0.000 C 
ATOM     28  C   UNL     1       1.203   2.745  20.124  0.00  0.00    +0.000 C 
ATOM     29  C   UNL     1       0.680   2.934  18.704  0.00  0.00    +0.000 C 
ATOM     30  C   UNL     1       1.606   3.846  17.895  0.00  0.00    +0.000 C 
ENDBRANCH  24  25
ENDBRANCH  23  24
ENDBRANCH   8  23
TORSDOF 6
ENDMDL
MODEL 2
REMARK VINA RESULT:      -8.6      1.947      2.783
REMARK  Name = 
REMARK  8 active torsions:
REMARK  status: ('A' for Active; 'I' for Inactive)
REMARK    1  A    between atoms: C_1  and  N_2
REMARK    2  A    between atoms: N_2  and  C_3
REMARK    3  A    between atoms: N_2  and  C_4
REMARK    4  A    between atoms: C_7  and  N_8
REMARK    5  A    between atoms: N_8  and  C_9
REMARK    6  A    between atoms: N_16  and  C_17
REMARK    7  A    between atoms: C_17  and  C_18
REMARK    8  A    between atoms: C_18  and  C_19
REMARK                            x       y       z     vdW  Elec       q    Type
REMARK                         _______ _______ _______ _____ _____    ______ ____
ROOT
ATOM      1  C   UNL     1       7.682   7.054  17.537  0.00  0.00    +0.000 C 
ATOM      2  C   UNL     1       6.777   6.071  17.684  0.00  0.00    +0.000 C 
ATOM      3  C   UNL     1       7.255   4.715  17.984  0.00  0.00    +0.000 C 
ATOM      4  O   UNL     1       8.429   4.368  17.919  0.00  0.00    +0.000 OA
ATOM      5  N   UNL     1       6.274   3.865  18.393  0.00  0.00    +0.000 N 
ATOM      6  C   UNL     1       4.967   4.166  18.652  0.00  0.00    +0.000 C 
ATOM      7  O   UNL     1       4.268   3.293  19.160  0.00  0.00    +0.000 OA
ATOM      8  N   UNL     1       4.531   5.434  18.314  0.00  0.00    +0.000 N 
ATOM      9  C   UNL     1       5.330   6.349  17.639  0.00  0.00    +0.000 C 
ATOM     10  O   UNL     1       4.895   7.332  17.040  0.00  0.00    +0.000 OA
ATOM     11  H   UNL     1       6.573   2.941  18.669  0.00  0.00    +0.000 HD
ENDROOT
BRANCH   1  12
ATOM     12  N   UNL     1       7.474   8.406  17.407  0.00  0.00    +0.000 N 
ATOM     13  H   UNL     1       6.699   8.700  16.810  0.00  0.00    +0.000 HD
BRANCH  12  17
ATOM     14  C   UNL     1       9.614  11.624  19.224  0.00  0.00    +0.000 A 
ATOM     15  C   UNL     1       9.655  10.323  19.744  0.00  0.00    +0.000 A 
ATOM     16  C   UNL     1       8.964   9.258  19.152  0.00  0.00    +0.000 A 
ATOM     17  C   UNL     1       8.238   9.434  17.975  0.00  0.00    +0.000 A 
ATOM     18  C   UNL     1       8.200  10.714  17.427  0.00  0.00    +0.000 A 
ATOM     19  C   UNL     1       8.872  11.786  18.039  0.00  0.00    +0.000 A 
BRANCH  14  21
ATOM     20  C   UNL     1      11.746  12.724  19.810  0.00  0.00    +0.000 C 
ATOM     21  N   UNL     1      10.285  12.685  19.829  0.00  0.00    +0.000 N 
ATOM     22  C   UNL     1       9.623  13.441  20.885  0.00  0.00    +0.000 C 
ENDBRANCH  14  21
ENDBRANCH  12  17
ENDBRANCH   1  12
BRANCH   8  23
ATOM     23  C   UNL     1       3.102   5.767  18.386  0.00  0.00    +0.000 C 
BRANCH  23  24
ATOM     24  C   UNL     1       2.585   6.343  19.713  0.00  0.00    +0.000 C 
BRANCH  24  25
ATOM     25  C   UNL     1       1.962   7.715  19.544  0.00  0.00    +0.000 C 
ATOM     26  C   UNL     1       1.420   8.371  20.588  0.00  0.00    +0.000 C 
ATOM     27  C   UNL     1       0.758   9.714  20.479  0.00  0.00    +0.000 C 
ATOM     28  C   UNL     1       0.438  10.100  19.035  0.00  0.00    +0.000 C 
ATOM     29  C   UNL     1       1.624   9.807  18.123  0.00  0.00    +0.000 C 
ATOM     30  C   UNL     1       1.990   8.321  18.158  0.00  0.00    +0.000 C 
ENDBRANCH  24  25
ENDBRANCH  23  24
ENDBRANCH   8  23
TORSDOF 6
ENDMDL
MODEL 3
REMARK VINA RESULT:      -8.5      1.956      2.868
REMARK  Name = 
REMARK  8 active torsions:
REMARK  status: ('A' for Active; 'I' for Inactive)
REMARK    1  A    between atoms: C_1  and  N_2
REMARK    2  A    between atoms: N_2  and  C_3
REMARK    3  A    between atoms: N_2  and  C_4
REMARK    4  A    between atoms: C_7  and  N_8
REMARK    5  A    between atoms: N_8  and  C_9
REMARK    6  A    between atoms: N_16  and  C_17
REMARK    7  A    between atoms: C_17  and  C_18
REMARK    8  A    between atoms: C_18  and  C_19
REMARK                            x       y       z     vdW  Elec       q    Type
REMARK                         _______ _______ _______ _____ _____    ______ ____
ROOT
ATOM      1  C   UNL     1       7.696   7.053  17.539  0.00  0.00    +0.000 C 
ATOM      2  C   UNL     1       6.787   6.081  17.723  0.00  0.00    +0.000 C 
ATOM      3  C   UNL     1       7.256   4.743  18.106  0.00  0.00    +0.000 C 
ATOM      4  O   UNL     1       8.430   4.391  18.081  0.00  0.00    +0.000 OA
ATOM      5  N   UNL     1       6.266   3.918  18.542  0.00  0.00    +0.000 N 
ATOM      6  C   UNL     1       4.955   4.234  18.761  0.00  0.00    +0.000 C 
ATOM      7  O   UNL     1       4.245   3.392  19.304  0.00  0.00    +0.000 OA
ATOM      8  N   UNL     1       4.528   5.482  18.346  0.00  0.00    +0.000 N 
ATOM      9  C   UNL     1       5.341   6.358  17.636  0.00  0.00    +0.000 C 
ATOM     10  O   UNL     1       4.919   7.307  16.977  0.00  0.00    +0.000 OA
ATOM     11  H   UNL     1       6.558   3.010  18.874  0.00  0.00    +0.000 HD
ENDROOT
BRANCH   1  12
ATOM     12  N   UNL     1       7.494   8.397  17.331  0.00  0.00    +0.000 N 
ATOM     13  H   UNL     1       6.811   8.657  16.617  0.00  0.00    +0.000 HD
BRANCH  12  17
ATOM     14  C   UNL     1       9.701  11.549  19.182  0.00  0.00    +0.000 A 
ATOM     15  C   UNL     1       8.893  11.773  18.059  0.00  0.00    +0.000 A 
ATOM     16  C   UNL     1       8.157  10.749  17.449  0.00  0.00    +0.000 A 
ATOM     17  C   UNL     1       8.155   9.455  17.966  0.00  0.00    +0.000 A 
ATOM     18  C   UNL     1       8.935   9.212  19.095  0.00  0.00    +0.000 A 
ATOM     19  C   UNL     1       9.693  10.236  19.688  0.00  0.00    +0.000 A 
BRANCH  14  21
ATOM     20  C   UNL     1       9.911  13.283  20.927  0.00  0.00    +0.000 C 
ATOM     21  N   UNL     1      10.448  12.566  19.772  0.00  0.00    +0.000 N 
ATOM     22  C   UNL     1      11.463  13.257  18.986  0.00  0.00    +0.000 C 
ENDBRANCH  14  21
ENDBRANCH  12  17
ENDBRANCH   1  12
BRANCH   8  23
ATOM     23  C   UNL     1       3.099   5.821  18.373  0.00  0.00    +0.000 C 
BRANCH  23  24
ATOM     24  C   UNL     1       2.540   6.386  19.688  0.00  0.00    +0.000 C 
BRANCH  24  25
ATOM     25  C   UNL     1       1.929   7.762  19.513  0.00  0.00    +0.000 C 
ATOM     26  C   UNL     1       1.382   8.423  20.551  0.00  0.00    +0.000 C 
ATOM     27  C   UNL     1       0.732   9.771  20.435  0.00  0.00    +0.000 C 
ATOM     28  C   UNL     1       0.427  10.158  18.988  0.00  0.00    +0.000 C 
ATOM     29  C   UNL     1       1.619   9.856  18.087  0.00  0.00    +0.000 C 
ATOM     30  C   UNL     1       1.974   8.367  18.126  0.00  0.00    +0.000 C 
ENDBRANCH  24  25
ENDBRANCH  23  24
ENDBRANCH   8  23
TORSDOF 6
ENDMDL
MODEL 4
REMARK VINA RESULT:      -8.3      4.167      7.419
REMARK  Name = 
REMARK  8 active torsions:
REMARK  status: ('A' for Active; 'I' for Inactive)
REMARK    1  A    between atoms: C_1  and  N_2
REMARK    2  A    between atoms: N_2  and  C_3
REMARK    3  A    between atoms: N_2  and  C_4
REMARK    4  A    between atoms: C_7  and  N_8
REMARK    5  A    between atoms: N_8  and  C_9
REMARK    6  A    between atoms: N_16  and  C_17
REMARK    7  A    between atoms: C_17  and  C_18
REMARK    8  A    between atoms: C_18  and  C_19
REMARK                            x       y       z     vdW  Elec       q    Type
REMARK                         _______ _______ _______ _____ _____    ______ ____
ROOT
ATOM      1  C   UNL     1       1.770   5.923  20.801  0.00  0.00    +0.000 C 
ATOM      2  C   UNL     1       2.152   4.939  19.970  0.00  0.00    +0.000 C 
ATOM      3  C   UNL     1       1.494   3.631  20.082  0.00  0.00    +0.000 C 
ATOM      4  O   UNL     1       0.756   3.307  21.006  0.00  0.00    +0.000 OA
ATOM      5  N   UNL     1       1.739   2.802  19.031  0.00  0.00    +0.000 N 
ATOM      6  C   UNL     1       2.410   3.095  17.878  0.00  0.00    +0.000 C 
ATOM      7  O   UNL     1       2.395   2.259  16.978  0.00  0.00    +0.000 OA
ATOM      8  N   UNL     1       3.062   4.313  17.819  0.00  0.00    +0.000 N 
ATOM      9  C   UNL     1       3.143   5.176  18.905  0.00  0.00    +0.000 C 
ATOM     10  O   UNL     1       3.967   6.085  19.001  0.00  0.00    +0.000 OA
ATOM     11  H   UNL     1       1.253   1.916  19.041  0.00  0.00    +0.000 HD
ENDROOT
BRANCH   1  12
ATOM     12  N   UNL     1       2.124   7.251  20.786  0.00  0.00    +0.000 N 
ATOM     13  H   UNL     1       2.995   7.503  21.259  0.00  0.00    +0.000 HD
BRANCH  12  17
ATOM     14  C   UNL     1      -0.202  10.329  18.957  0.00  0.00    +0.000 A 
ATOM     15  C   UNL     1      -0.410   9.938  20.287  0.00  0.00    +0.000 A 
ATOM     16  C   UNL     1       0.353   8.936  20.901  0.00  0.00    +0.000 A 
ATOM     17  C   UNL     1       1.399   8.310  20.225  0.00  0.00    +0.000 A 
ATOM     18  C   UNL     1       1.639   8.697  18.909  0.00  0.00    +0.000 A 
ATOM     19  C   UNL     1       0.854   9.684  18.288  0.00  0.00    +0.000 A 
BRANCH  14  21
ATOM     20  C   UNL     1      -0.580  12.715  18.441  0.00  0.00    +0.000 C 
ATOM     21  N   UNL     1      -0.978  11.311  18.344  0.00  0.00    +0.000 N 
ATOM     22  C   UNL     1      -2.387  11.047  18.077  0.00  0.00    +0.000 C 
ENDBRANCH  14  21
ENDBRANCH  12  17
ENDBRANCH   1  12
BRANCH   8  23
ATOM     23  C   UNL     1       3.958   4.617  16.695  0.00  0.00    +0.000 C 
BRANCH  23  24
ATOM     24  C   UNL     1       5.381   4.040  16.761  0.00  0.00    +0.000 C 
BRANCH  24  25
ATOM     25  C   UNL     1       6.380   5.028  17.332  0.00  0.00    +0.000 C 
ATOM     26  C   UNL     1       7.202   4.688  18.342  0.00  0.00    +0.000 C 
ATOM     27  C   UNL     1       8.186   5.630  18.972  0.00  0.00    +0.000 C 
ATOM     28  C   UNL     1       7.920   7.091  18.613  0.00  0.00    +0.000 C 
ATOM     29  C   UNL     1       7.640   7.237  17.121  0.00  0.00    +0.000 C 
ATOM     30  C   UNL     1       6.423   6.406  16.707  0.00  0.00    +0.000 C 
ENDBRANCH  24  25
ENDBRANCH  23  24
ENDBRANCH   8  23
TORSDOF 6
ENDMDL
MODEL 5
REMARK VINA RESULT:      -8.2      3.926      5.943
REMARK  Name = 
REMARK  8 active torsions:
REMARK  status: ('A' for Active; 'I' for Inactive)
REMARK    1  A    between atoms: C_1  and  N_2
REMARK    2  A    between atoms: N_2  and  C_3
REMARK    3  A    between atoms: N_2  and  C_4
REMARK    4  A    between atoms: C_7  and  N_8
REMARK    5  A    between atoms: N_8  and  C_9
REMARK    6  A    between atoms: N_16  and  C_17
REMARK    7  A    between atoms: C_17  and  C_18
REMARK    8  A    between atoms: C_18  and  C_19
REMARK                            x       y       z     vdW  Elec       q    Type
REMARK                         _______ _______ _______ _____ _____    ______ ____
ROOT
ATOM      1  C   UNL     1       4.168   7.843  17.318  0.00  0.00    +0.000 C 
ATOM      2  C   UNL     1       5.094   6.869  17.334  0.00  0.00    +0.000 C 
ATOM      3  C   UNL     1       6.513   7.249  17.312  0.00  0.00    +0.000 C 
ATOM      4  O   UNL     1       6.919   8.383  17.084  0.00  0.00    +0.000 OA
ATOM      5  N   UNL     1       7.359   6.228  17.616  0.00  0.00    +0.000 N 
ATOM      6  C   UNL     1       7.030   4.970  18.035  0.00  0.00    +0.000 C 
ATOM      7  O   UNL     1       7.939   4.234  18.409  0.00  0.00    +0.000 OA
ATOM      8  N   UNL     1       5.692   4.622  17.998  0.00  0.00    +0.000 N 
ATOM      9  C   UNL     1       4.713   5.451  17.462  0.00  0.00    +0.000 C 
ATOM     10  O   UNL     1       3.599   5.063  17.113  0.00  0.00    +0.000 OA
ATOM     11  H   UNL     1       8.340   6.465  17.673  0.00  0.00    +0.000 HD
ENDROOT
BRANCH   1  12
ATOM     12  N   UNL     1       2.807   7.742  17.484  0.00  0.00    +0.000 N 
ATOM     13  H   UNL     1       2.290   7.229  16.767  0.00  0.00    +0.000 HD
BRANCH  12  17
ATOM     14  C   UNL     1       0.659   9.530  20.712  0.00  0.00    +0.000 A 
ATOM     15  C   UNL     1       0.657  10.087  19.425  0.00  0.00    +0.000 A 
ATOM     16  C   UNL     1       1.350   9.504  18.356  0.00  0.00    +0.000 A 
ATOM     17  C   UNL     1       2.040   8.304  18.513  0.00  0.00    +0.000 A 
ATOM     18  C   UNL     1       2.039   7.720  19.778  0.00  0.00    +0.000 A 
ATOM     19  C   UNL     1       1.365   8.321  20.854  0.00  0.00    +0.000 A 
BRANCH  14  21
ATOM     20  C   UNL     1      -0.270  11.564  21.760  0.00  0.00    +0.000 C 
ATOM     21  N   UNL     1      -0.014  10.125  21.777  0.00  0.00    +0.000 N 
ATOM     22  C   UNL     1      -0.000   9.478  23.084  0.00  0.00    +0.000 C 
ENDBRANCH  14  21
ENDBRANCH  12  17
ENDBRANCH   1  12
BRANCH   8  23
ATOM     23  C   UNL     1       5.283   3.234  18.250  0.00  0.00    +0.000 C 
BRANCH  23  24
ATOM     24  C   UNL     1       4.726   2.913  19.646  0.00  0.00    +0.000 C 
BRANCH  24  25
ATOM     25  C   UNL     1       3.220   3.074  19.719  0.00  0.00    +0.000 C 
ATOM     26  C   UNL     1       2.656   4.070  20.427  0.00  0.00    +0.000 C 
ATOM     27  C   UNL     1       1.174   4.262  20.566  0.00  0.00    +0.000 C 
ATOM     28  C   UNL     1       0.375   3.031  20.138  0.00  0.00    +0.000 C 
ATOM     29  C   UNL     1       0.907   2.474  18.822  0.00  0.00    +0.000 C 
ATOM     30  C   UNL     1       2.380   2.077  18.949  0.00  0.00    +0.000 C 
ENDBRANCH  24  25
ENDBRANCH  23  24
ENDBRANCH   8  23
TORSDOF 6
ENDMDL
MODEL 6
REMARK VINA RESULT:      -8.2      1.575      2.566
REMARK  Name = 
REMARK  8 active torsions:
REMARK  status: ('A' for Active; 'I' for Inactive)
REMARK    1  A    between atoms: C_1  and  N_2
REMARK    2  A    between atoms: N_2  and  C_3
REMARK    3  A    between atoms: N_2  and  C_4
REMARK    4  A    between atoms: C_7  and  N_8
REMARK    5  A    between atoms: N_8  and  C_9
REMARK    6  A    between atoms: N_16  and  C_17
REMARK    7  A    between atoms: C_17  and  C_18
REMARK    8  A    between atoms: C_18  and  C_19
REMARK                            x       y       z     vdW  Elec       q    Type
REMARK                         _______ _______ _______ _____ _____    ______ ____
ROOT
ATOM      1  C   UNL     1       8.237   7.615  18.406  0.00  0.00    +0.000 C 
ATOM      2  C   UNL     1       7.362   6.596  18.379  0.00  0.00    +0.000 C 
ATOM      3  C   UNL     1       7.614   5.431  19.237  0.00  0.00    +0.000 C 
ATOM      4  O   UNL     1       8.665   5.228  19.834  0.00  0.00    +0.000 OA
ATOM      5  N   UNL     1       6.546   4.595  19.355  0.00  0.00    +0.000 N 
ATOM      6  C   UNL     1       5.283   4.785  18.871  0.00  0.00    +0.000 C 
ATOM      7  O   UNL     1       4.413   3.987  19.212  0.00  0.00    +0.000 OA
ATOM      8  N   UNL     1       5.085   5.861  18.026  0.00  0.00    +0.000 N 
ATOM      9  C   UNL     1       6.124   6.669  17.581  0.00  0.00    +0.000 C 
ATOM     10  O   UNL     1       6.050   7.406  16.599  0.00  0.00    +0.000 OA
ATOM     11  H   UNL     1       6.660   3.815  19.988  0.00  0.00    +0.000 HD
ENDROOT
BRANCH   1  12
ATOM     12  N   UNL     1       8.138   8.854  17.819  0.00  0.00    +0.000 N 
ATOM     13  H   UNL     1       7.692   8.896  16.901  0.00  0.00    +0.000 HD
BRANCH  12  17
ATOM     14  C   UNL     1       9.812  12.495  19.294  0.00  0.00    +0.000 A 
ATOM     15  C   UNL     1       9.023  12.460  18.136  0.00  0.00    +0.000 A 
ATOM     16  C   UNL     1       8.461  11.273  17.648  0.00  0.00    +0.000 A 
ATOM     17  C   UNL     1       8.620  10.067  18.326  0.00  0.00    +0.000 A 
ATOM     18  C   UNL     1       9.383  10.079  19.492  0.00  0.00    +0.000 A 
ATOM     19  C   UNL     1       9.968  11.267  19.964  0.00  0.00    +0.000 A 
BRANCH  14  21
ATOM     20  C   UNL     1      10.193  14.069  21.158  0.00  0.00    +0.000 C 
ATOM     21  N   UNL     1      10.387  13.674  19.764  0.00  0.00    +0.000 N 
ATOM     22  C   UNL     1      10.713  14.737  18.821  0.00  0.00    +0.000 C 
ENDBRANCH  14  21
ENDBRANCH  12  17
ENDBRANCH   1  12
BRANCH   8  23
ATOM     23  C   UNL     1       3.808   6.019  17.319  0.00  0.00    +0.000 C 
BRANCH  23  24
ATOM     24  C   UNL     1       2.528   5.960  18.167  0.00  0.00    +0.000 C 
BRANCH  24  25
ATOM     25  C   UNL     1       2.108   7.325  18.677  0.00  0.00    +0.000 C 
ATOM     26  C   UNL     1       1.871   7.542  19.984  0.00  0.00    +0.000 C 
ATOM     27  C   UNL     1       1.420   8.859  20.545  0.00  0.00    +0.000 C 
ATOM     28  C   UNL     1       0.912   9.817  19.468  0.00  0.00    +0.000 C 
ATOM     29  C   UNL     1       1.855   9.832  18.270  0.00  0.00    +0.000 C 
ATOM     30  C   UNL     1       1.983   8.436  17.656  0.00  0.00    +0.000 C 
ENDBRANCH  24  25
ENDBRANCH  23  24
ENDBRANCH   8  23
TORSDOF 6
ENDMDL
MODEL 7
REMARK VINA RESULT:      -8.1      4.010      6.067
REMARK  Name = 
REMARK  8 active torsions:
REMARK  status: ('A' for Active; 'I' for Inactive)
REMARK    1  A    between atoms: C_1  and  N_2
REMARK    2  A    between atoms: N_2  and  C_3
REMARK    3  A    between atoms: N_2  and  C_4
REMARK    4  A    between atoms: C_7  and  N_8
REMARK    5  A    between atoms: N_8  and  C_9
REMARK    6  A    between atoms: N_16  and  C_17
REMARK    7  A    between atoms: C_17  and  C_18
REMARK    8  A    between atoms: C_18  and  C_19
REMARK                            x       y       z     vdW  Elec       q    Type
REMARK                         _______ _______ _______ _____ _____    ______ ____
ROOT
ATOM      1  C   UNL     1       4.154   7.833  17.378  0.00  0.00    +0.000 C 
ATOM      2  C   UNL     1       5.062   6.844  17.337  0.00  0.00    +0.000 C 
ATOM      3  C   UNL     1       6.484   7.200  17.240  0.00  0.00    +0.000 C 
ATOM      4  O   UNL     1       6.898   8.327  16.997  0.00  0.00    +0.000 OA
ATOM      5  N   UNL     1       7.328   6.161  17.490  0.00  0.00    +0.000 N 
ATOM      6  C   UNL     1       6.999   4.907  17.919  0.00  0.00    +0.000 C 
ATOM      7  O   UNL     1       7.915   4.152  18.238  0.00  0.00    +0.000 OA
ATOM      8  N   UNL     1       5.655   4.582  17.954  0.00  0.00    +0.000 N 
ATOM      9  C   UNL     1       4.664   5.431  17.478  0.00  0.00    +0.000 C 
ATOM     10  O   UNL     1       3.526   5.065  17.188  0.00  0.00    +0.000 OA
ATOM     11  H   UNL     1       8.314   6.381  17.495  0.00  0.00    +0.000 HD
ENDROOT
BRANCH   1  12
ATOM     12  N   UNL     1       2.803   7.756  17.618  0.00  0.00    +0.000 N 
ATOM     13  H   UNL     1       2.240   7.246  16.934  0.00  0.00    +0.000 HD
BRANCH  12  17
ATOM     14  C   UNL     1       0.475   9.454  20.769  0.00  0.00    +0.000 A 
ATOM     15  C   UNL     1       1.217   8.279  20.950  0.00  0.00    +0.000 A 
ATOM     16  C   UNL     1       1.992   7.717  19.926  0.00  0.00    +0.000 A 
ATOM     17  C   UNL     1       2.102   8.336  18.682  0.00  0.00    +0.000 A 
ATOM     18  C   UNL     1       1.390   9.517  18.485  0.00  0.00    +0.000 A 
ATOM     19  C   UNL     1       0.592  10.063  19.505  0.00  0.00    +0.000 A 
BRANCH  14  21
ATOM     20  C   UNL     1      -0.870  11.339  21.626  0.00  0.00    +0.000 C 
ATOM     21  N   UNL     1      -0.311   9.997  21.783  0.00  0.00    +0.000 N 
ATOM     22  C   UNL     1      -0.160   9.506  23.147  0.00  0.00    +0.000 C 
ENDBRANCH  14  21
ENDBRANCH  12  17
ENDBRANCH   1  12
BRANCH   8  23
ATOM     23  C   UNL     1       5.236   3.200  18.219  0.00  0.00    +0.000 C 
BRANCH  23  24
ATOM     24  C   UNL     1       4.775   2.872  19.648  0.00  0.00    +0.000 C 
BRANCH  24  25
ATOM     25  C   UNL     1       3.264   2.826  19.771  0.00  0.00    +0.000 C 
ATOM     26  C   UNL     1       2.501   2.253  18.821  0.00  0.00    +0.000 C 
ATOM     27  C   UNL     1       1.002   2.206  18.869  0.00  0.00    +0.000 C 
ATOM     28  C   UNL     1       0.412   3.173  19.895  0.00  0.00    +0.000 C 
ATOM     29  C   UNL     1       1.175   3.092  21.213  0.00  0.00    +0.000 C 
ATOM     30  C   UNL     1       2.653   3.438  21.014  0.00  0.00    +0.000 C 
ENDBRANCH  24  25
ENDBRANCH  23  24
ENDBRANCH   8  23
TORSDOF 6
ENDMDL
MODEL 8
REMARK VINA RESULT:      -8.1      4.205      7.460
REMARK  Name = 
REMARK  8 active torsions:
REMARK  status: ('A' for Active; 'I' for Inactive)
REMARK    1  A    between atoms: C_1  and  N_2
REMARK    2  A    between atoms: N_2  and  C_3
REMARK    3  A    between atoms: N_2  and  C_4
REMARK    4  A    between atoms: C_7  and  N_8
REMARK    5  A    between atoms: N_8  and  C_9
REMARK    6  A    between atoms: N_16  and  C_17
REMARK    7  A    between atoms: C_17  and  C_18
REMARK    8  A    between atoms: C_18  and  C_19
REMARK                            x       y       z     vdW  Elec       q    Type
REMARK                         _______ _______ _______ _____ _____    ______ ____
ROOT
ATOM      1  C   UNL     1       1.816   5.925  20.880  0.00  0.00    +0.000 C 
ATOM      2  C   UNL     1       2.200   4.929  20.064  0.00  0.00    +0.000 C 
ATOM      3  C   UNL     1       1.605   3.599  20.251  0.00  0.00    +0.000 C 
ATOM      4  O   UNL     1       0.927   3.277  21.219  0.00  0.00    +0.000 OA
ATOM      5  N   UNL     1       1.835   2.745  19.216  0.00  0.00    +0.000 N 
ATOM      6  C   UNL     1       2.437   3.026  18.023  0.00  0.00    +0.000 C 
ATOM      7  O   UNL     1       2.415   2.160  17.152  0.00  0.00    +0.000 OA
ATOM      8  N   UNL     1       3.032   4.267  17.892  0.00  0.00    +0.000 N 
ATOM      9  C   UNL     1       3.128   5.170  18.944  0.00  0.00    +0.000 C 
ATOM     10  O   UNL     1       3.916   6.115  18.970  0.00  0.00    +0.000 OA
ATOM     11  H   UNL     1       1.388   1.841  19.279  0.00  0.00    +0.000 HD
ENDROOT
BRANCH   1  12
ATOM     12  N   UNL     1       2.112   7.265  20.805  0.00  0.00    +0.000 N 
ATOM     13  H   UNL     1       3.029   7.557  21.149  0.00  0.00    +0.000 HD
BRANCH  12  17
ATOM     14  C   UNL     1      -0.323  10.527  19.516  0.00  0.00    +0.000 A 
ATOM     15  C   UNL     1       0.620   9.930  18.669  0.00  0.00    +0.000 A 
ATOM     16  C   UNL     1       1.418   8.853  19.078  0.00  0.00    +0.000 A 
ATOM     17  C   UNL     1       1.274   8.288  20.343  0.00  0.00    +0.000 A 
ATOM     18  C   UNL     1       0.328   8.851  21.196  0.00  0.00    +0.000 A 
ATOM     19  C   UNL     1      -0.452   9.948  20.792  0.00  0.00    +0.000 A 
BRANCH  14  21
ATOM     20  C   UNL     1      -1.607  12.551  20.113  0.00  0.00    +0.000 C 
ATOM     21  N   UNL     1      -1.099  11.612  19.113  0.00  0.00    +0.000 N 
ATOM     22  C   UNL     1      -1.826  11.543  17.851  0.00  0.00    +0.000 C 
ENDBRANCH  14  21
ENDBRANCH  12  17
ENDBRANCH   1  12
BRANCH   8  23
ATOM     23  C   UNL     1       3.859   4.569  16.716  0.00  0.00    +0.000 C 
BRANCH  23  24
ATOM     24  C   UNL     1       5.291   4.011  16.708  0.00  0.00    +0.000 C 
BRANCH  24  25
ATOM     25  C   UNL     1       6.297   4.990  17.284  0.00  0.00    +0.000 C 
ATOM     26  C   UNL     1       7.087   4.652  18.320  0.00  0.00    +0.000 C 
ATOM     27  C   UNL     1       8.075   5.586  18.956  0.00  0.00    +0.000 C 
ATOM     28  C   UNL     1       7.848   7.045  18.563  0.00  0.00    +0.000 C 
ATOM     29  C   UNL     1       7.607   7.168  17.063  0.00  0.00    +0.000 C 
ATOM     30  C   UNL     1       6.383   6.354  16.635  0.00  0.00    +0.000 C 
ENDBRANCH  24  25
ENDBRANCH  23  24
ENDBRANCH   8  23
TORSDOF 6
ENDMDL
MODEL 9
REMARK VINA RESULT:      -8.1      4.329      7.384
REMARK  Name = 
REMARK  8 active torsions:
REMARK  status: ('A' for Active; 'I' for Inactive)
REMARK    1  A    between atoms: C_1  and  N_2
REMARK    2  A    between atoms: N_2  and  C_3
REMARK    3  A    between atoms: N_2  and  C_4
REMARK    4  A    between atoms: C_7  and  N_8
REMARK    5  A    between atoms: N_8  and  C_9
REMARK    6  A    between atoms: N_16  and  C_17
REMARK    7  A    between atoms: C_17  and  C_18
REMARK    8  A    between atoms: C_18  and  C_19
REMARK                            x       y       z     vdW  Elec       q    Type
REMARK                         _______ _______ _______ _____ _____    ______ ____
ROOT
ATOM      1  C   UNL     1       1.857   6.140  20.754  0.00  0.00    +0.000 C 
ATOM      2  C   UNL     1       2.512   5.103  20.204  0.00  0.00    +0.000 C 
ATOM      3  C   UNL     1       2.511   3.817  20.912  0.00  0.00    +0.000 C 
ATOM      4  O   UNL     1       2.122   3.663  22.064  0.00  0.00    +0.000 OA
ATOM      5  N   UNL     1       2.946   2.773  20.154  0.00  0.00    +0.000 N 
ATOM      6  C   UNL     1       3.259   2.784  18.824  0.00  0.00    +0.000 C 
ATOM      7  O   UNL     1       3.486   1.706  18.280  0.00  0.00    +0.000 OA
ATOM      8  N   UNL     1       3.301   4.014  18.194  0.00  0.00    +0.000 N 
ATOM      9  C   UNL     1       3.146   5.215  18.877  0.00  0.00    +0.000 C 
ATOM     10  O   UNL     1       3.497   6.308  18.435  0.00  0.00    +0.000 OA
ATOM     11  H   UNL     1       2.901   1.861  20.585  0.00  0.00    +0.000 HD
ENDROOT
BRANCH   1  12
ATOM     12  N   UNL     1       1.592   7.377  20.217  0.00  0.00    +0.000 N 
ATOM     13  H   UNL     1       1.851   7.522  19.239  0.00  0.00    +0.000 HD
BRANCH  12  17
ATOM     14  C   UNL     1      -0.261  10.738  22.087  0.00  0.00    +0.000 A 
ATOM     15  C   UNL     1      -0.281   9.464  22.671  0.00  0.00    +0.000 A 
ATOM     16  C   UNL     1       0.331   8.356  22.071  0.00  0.00    +0.000 A 
ATOM     17  C   UNL     1       1.040   8.481  20.878  0.00  0.00    +0.000 A 
ATOM     18  C   UNL     1       1.092   9.743  20.289  0.00  0.00    +0.000 A 
ATOM     19  C   UNL     1       0.454  10.847  20.880  0.00  0.00    +0.000 A 
BRANCH  14  21
ATOM     20  C   UNL     1      -2.216  11.673  23.273  0.00  0.00    +0.000 C 
ATOM     21  N   UNL     1      -0.890  11.833  22.677  0.00  0.00    +0.000 N 
ATOM     22  C   UNL     1      -0.516  13.181  22.265  0.00  0.00    +0.000 C 
ENDBRANCH  14  21
ENDBRANCH  12  17
ENDBRANCH   1  12
BRANCH   8  23
ATOM     23  C   UNL     1       3.812   4.124  16.822  0.00  0.00    +0.000 C 
BRANCH  23  24
ATOM     24  C   UNL     1       5.290   3.767  16.596  0.00  0.00    +0.000 C 
BRANCH  24  25
ATOM     25  C   UNL     1       6.230   4.816  17.156  0.00  0.00    +0.000 C 
ATOM     26  C   UNL     1       6.995   4.566  18.236  0.00  0.00    +0.000 C 
ATOM     27  C   UNL     1       7.918   5.574  18.857  0.00  0.00    +0.000 C 
ATOM     28  C   UNL     1       7.645   7.000  18.381  0.00  0.00    +0.000 C 
ATOM     29  C   UNL     1       7.455   7.036  16.869  0.00  0.00    +0.000 C 
ATOM     30  C   UNL     1       6.284   6.149  16.441  0.00  0.00    +0.000 C 
ENDBRANCH  24  25
ENDBRANCH  23  24
ENDBRANCH   8  23
TORSDOF 6
ENDMDL
