MODEL 1
REMARK VINA RESULT:      -8.0      0.000      0.000
REMARK  Name = 
REMARK  6 active torsions:
REMARK  status: ('A' for Active; 'I' for Inactive)
REMARK    1  A    between atoms: C_1  and  C_2
REMARK    2  A    between atoms: N_4  and  C_5
REMARK    3  A    between atoms: C_14  and  C_15
REMARK    4  A    between atoms: C_17  and  C_18
REMARK    5  A    between atoms: N_19  and  C_20
REMARK    6  A    between atoms: C_23  and  C_24
REMARK                            x       y       z     vdW  Elec       q    Type
REMARK                         _______ _______ _______ _____ _____    ______ ____
ROOT
ATOM      1  C   UNL     1       1.912   5.968  20.797  0.00  0.00    +0.000 C 
ATOM      2  C   UNL     1       1.618   7.398  20.490  0.00  0.00    +0.000 C 
ATOM      3  N   UNL     1       1.097   8.218  21.365  0.00  0.00    +0.000 NA
ATOM      4  N   UNL     1       0.908   9.434  20.702  0.00  0.00    +0.000 N 
ATOM      5  C   UNL     1       1.323   9.423  19.364  0.00  0.00    +0.000 C 
ATOM      6  O   UNL     1       1.311  10.280  18.496  0.00  0.00    +0.000 OA
ATOM      7  C   UNL     1       1.837   8.048  19.191  0.00  0.00    +0.000 C 
ATOM      8  C   UNL     1       2.373   7.640  18.035  0.00  0.00    +0.000 C 
ENDROOT
BRANCH   8   9
ATOM      9  C   UNL     1       2.907   6.353  17.770  0.00  0.00    +0.000 A 
ATOM     10  C   UNL     1       2.189   5.147  17.811  0.00  0.00    +0.000 A 
ATOM     11  C   UNL     1       3.080   4.133  17.530  0.00  0.00    +0.000 A 
ATOM     12  C   UNL     1       2.813   2.669  17.532  0.00  0.00    +0.000 C 
ATOM     13  N   UNL     1       4.310   4.711  17.250  0.00  0.00    +0.000 N 
ATOM     14  C   UNL     1       4.220   6.088  17.410  0.00  0.00    +0.000 A 
ATOM     15  C   UNL     1       5.301   7.097  17.209  0.00  0.00    +0.000 C 
BRANCH  13  16
ATOM     16  C   UNL     1       5.455   3.893  16.864  0.00  0.00    +0.000 C 
ATOM     17  C   UNL     1       6.001   3.781  15.457  0.00  0.00    +0.000 C 
ATOM     18  C   UNL     1       6.809   4.471  16.507  0.00  0.00    +0.000 C 
ENDBRANCH  13  16
ENDBRANCH   8   9
BRANCH   4  19
ATOM     19  C   UNL     1       0.274  10.492  21.396  0.00  0.00    +0.000 A 
ATOM     20  C   UNL     1       0.512  11.832  21.062  0.00  0.00    +0.000 A 
ATOM     21  C   UNL     1      -0.148  12.868  21.731  0.00  0.00    +0.000 A 
ATOM     22  C   UNL     1      -1.043  12.578  22.756  0.00  0.00    +0.000 A 
ATOM     23  C   UNL     1      -1.281  11.254  23.112  0.00  0.00    +0.000 A 
ATOM     24  C   UNL     1      -0.631  10.218  22.432  0.00  0.00    +0.000 A 
ENDBRANCH   4  19
TORSDOF 3
ENDMDL
MODEL 2
REMARK VINA RESULT:      -7.9      2.015      8.365
REMARK  Name = 
REMARK  6 active torsions:
REMARK  status: ('A' for Active; 'I' for Inactive)
REMARK    1  A    between atoms: C_1  and  C_2
REMARK    2  A    between atoms: N_4  and  C_5
REMARK    3  A    between atoms: C_14  and  C_15
REMARK    4  A    between atoms: C_17  and  C_18
REMARK    5  A    between atoms: N_19  and  C_20
REMARK    6  A    between atoms: C_23  and  C_24
REMARK                            x       y       z     vdW  Elec       q    Type
REMARK                         _______ _______ _______ _____ _____    ______ ____
ROOT
ATOM      1  C   UNL     1       0.726   8.984  21.683  0.00  0.00    +0.000 C 
ATOM      2  C   UNL     1       1.338   8.406  20.451  0.00  0.00    +0.000 C 
ATOM      3  N   UNL     1       1.782   7.178  20.390  0.00  0.00    +0.000 NA
ATOM      4  N   UNL     1       2.336   7.023  19.116  0.00  0.00    +0.000 N 
ATOM      5  C   UNL     1       2.246   8.168  18.313  0.00  0.00    +0.000 C 
ATOM      6  O   UNL     1       2.614   8.398  17.173  0.00  0.00    +0.000 OA
ATOM      7  C   UNL     1       1.546   9.130  19.189  0.00  0.00    +0.000 C 
ATOM      8  C   UNL     1       1.227  10.359  18.768  0.00  0.00    +0.000 C 
ENDROOT
BRANCH   8   9
ATOM      9  C   UNL     1       0.545  11.348  19.520  0.00  0.00    +0.000 A 
ATOM     10  C   UNL     1       1.147  12.272  20.390  0.00  0.00    +0.000 A 
ATOM     11  C   UNL     1       0.135  13.026  20.947  0.00  0.00    +0.000 A 
ATOM     12  C   UNL     1       0.263  14.082  21.987  0.00  0.00    +0.000 C 
ATOM     13  N   UNL     1      -1.063  12.621  20.375  0.00  0.00    +0.000 N 
ATOM     14  C   UNL     1      -0.824  11.570  19.498  0.00  0.00    +0.000 A 
ATOM     15  C   UNL     1      -1.825  10.836  18.670  0.00  0.00    +0.000 C 
BRANCH  13  16
ATOM     16  C   UNL     1      -2.321  13.271  20.726  0.00  0.00    +0.000 C 
ATOM     17  C   UNL     1      -3.694  12.729  20.397  0.00  0.00    +0.000 C 
ATOM     18  C   UNL     1      -3.241  12.769  21.820  0.00  0.00    +0.000 C 
ENDBRANCH  13  16
ENDBRANCH   8   9
BRANCH   4  19
ATOM     19  C   UNL     1       2.973   5.800  18.799  0.00  0.00    +0.000 A 
ATOM     20  C   UNL     1       4.191   5.435  19.388  0.00  0.00    +0.000 A 
ATOM     21  C   UNL     1       4.793   4.207  19.096  0.00  0.00    +0.000 A 
ATOM     22  C   UNL     1       4.193   3.333  18.195  0.00  0.00    +0.000 A 
ATOM     23  C   UNL     1       2.990   3.683  17.588  0.00  0.00    +0.000 A 
ATOM     24  C   UNL     1       2.383   4.906  17.894  0.00  0.00    +0.000 A 
ENDBRANCH   4  19
TORSDOF 3
ENDMDL
MODEL 3
REMARK VINA RESULT:      -7.8      1.650      3.058
REMARK  Name = 
REMARK  6 active torsions:
REMARK  status: ('A' for Active; 'I' for Inactive)
REMARK    1  A    between atoms: C_1  and  C_2
REMARK    2  A    between atoms: N_4  and  C_5
REMARK    3  A    between atoms: C_14  and  C_15
REMARK    4  A    between atoms: C_17  and  C_18
REMARK    5  A    between atoms: N_19  and  C_20
REMARK    6  A    between atoms: C_23  and  C_24
REMARK                            x       y       z     vdW  Elec       q    Type
REMARK                         _______ _______ _______ _____ _____    ______ ____
ROOT
ATOM      1  C   UNL     1       1.582   8.725  17.816  0.00  0.00    +0.000 C 
ATOM      2  C   UNL     1       1.252   9.149  19.208  0.00  0.00    +0.000 C 
ATOM      3  N   UNL     1       0.687  10.296  19.483  0.00  0.00    +0.000 NA
ATOM      4  N   UNL     1       0.597  10.365  20.876  0.00  0.00    +0.000 N 
ATOM      5  C   UNL     1       1.102   9.238  21.537  0.00  0.00    +0.000 C 
ATOM      6  O   UNL     1       1.189   8.953  22.719  0.00  0.00    +0.000 OA
ATOM      7  C   UNL     1       1.538   8.372  20.422  0.00  0.00    +0.000 C 
ATOM      8  C   UNL     1       2.053   7.157  20.637  0.00  0.00    +0.000 C 
ENDROOT
BRANCH   8   9
ATOM      9  C   UNL     1       2.487   6.245  19.641  0.00  0.00    +0.000 A 
ATOM     10  C   UNL     1       3.519   6.475  18.718  0.00  0.00    +0.000 A 
ATOM     11  C   UNL     1       3.596   5.361  17.908  0.00  0.00    +0.000 A 
ATOM     12  C   UNL     1       4.483   5.160  16.730  0.00  0.00    +0.000 C 
ATOM     13  N   UNL     1       2.676   4.432  18.372  0.00  0.00    +0.000 N 
ATOM     14  C   UNL     1       1.971   4.974  19.439  0.00  0.00    +0.000 A 
ATOM     15  C   UNL     1       0.891   4.322  20.236  0.00  0.00    +0.000 C 
BRANCH  13  16
ATOM     16  C   UNL     1       2.554   3.119  17.747  0.00  0.00    +0.000 C 
ATOM     17  C   UNL     1       3.496   1.959  17.984  0.00  0.00    +0.000 C 
ATOM     18  C   UNL     1       2.093   1.882  18.492  0.00  0.00    +0.000 C 
ENDBRANCH  13  16
ENDBRANCH   8   9
BRANCH   4  19
ATOM     19  C   UNL     1       0.093  11.551  21.463  0.00  0.00    +0.000 A 
ATOM     20  C   UNL     1      -0.951  11.519  22.397  0.00  0.00    +0.000 A 
ATOM     21  C   UNL     1      -1.415  12.693  22.998  0.00  0.00    +0.000 A 
ATOM     22  C   UNL     1      -0.853  13.920  22.659  0.00  0.00    +0.000 A 
ATOM     23  C   UNL     1       0.175  13.974  21.722  0.00  0.00    +0.000 A 
ATOM     24  C   UNL     1       0.648  12.797  21.134  0.00  0.00    +0.000 A 
ENDBRANCH   4  19
TORSDOF 3
ENDMDL
MODEL 4
REMARK VINA RESULT:      -7.8      0.999      2.152
REMARK  Name = 
REMARK  6 active torsions:
REMARK  status: ('A' for Active; 'I' for Inactive)
REMARK    1  A    between atoms: C_1  and  C_2
REMARK    2  A    between atoms: N_4  and  C_5
REMARK    3  A    between atoms: C_14  and  C_15
REMARK    4  A    between atoms: C_17  and  C_18
REMARK    5  A    between atoms: N_19  and  C_20
REMARK    6  A    between atoms: C_23  and  C_24
REMARK                            x       y       z     vdW  Elec       q    Type
REMARK                         _______ _______ _______ _____ _____    ______ ____
ROOT
ATOM      1  C   UNL     1       2.180   6.136  20.938  0.00  0.00    +0.000 C 
ATOM      2  C   UNL     1       1.689   7.470  20.484  0.00  0.00    +0.000 C 
ATOM      3  N   UNL     1       0.967   8.254  21.241  0.00  0.00    +0.000 NA
ATOM      4  N   UNL     1       0.647   9.369  20.460  0.00  0.00    +0.000 N 
ATOM      5  C   UNL     1       1.177   9.327  19.164  0.00  0.00    +0.000 C 
ATOM      6  O   UNL     1       1.105  10.103  18.227  0.00  0.00    +0.000 OA
ATOM      7  C   UNL     1       1.917   8.049  19.153  0.00  0.00    +0.000 C 
ATOM      8  C   UNL     1       2.614   7.651  18.082  0.00  0.00    +0.000 C 
ENDROOT
BRANCH   8   9
ATOM      9  C   UNL     1       3.368   6.455  17.974  0.00  0.00    +0.000 A 
ATOM     10  C   UNL     1       4.767   6.363  18.040  0.00  0.00    +0.000 A 
ATOM     11  C   UNL     1       5.098   5.037  17.853  0.00  0.00    +0.000 A 
ATOM     12  C   UNL     1       6.461   4.450  17.762  0.00  0.00    +0.000 C 
ATOM     13  N   UNL     1       3.918   4.315  17.747  0.00  0.00    +0.000 N 
ATOM     14  C   UNL     1       2.836   5.185  17.806  0.00  0.00    +0.000 A 
ATOM     15  C   UNL     1       1.387   4.836  17.733  0.00  0.00    +0.000 C 
BRANCH  13  16
ATOM     16  C   UNL     1       3.936   2.864  17.592  0.00  0.00    +0.000 C 
ATOM     17  C   UNL     1       3.821   1.873  18.730  0.00  0.00    +0.000 C 
ATOM     18  C   UNL     1       2.704   1.994  17.745  0.00  0.00    +0.000 C 
ENDBRANCH  13  16
ENDBRANCH   8   9
BRANCH   4  19
ATOM     19  C   UNL     1      -0.208  10.355  21.008  0.00  0.00    +0.000 A 
ATOM     20  C   UNL     1      -0.897  11.261  20.191  0.00  0.00    +0.000 A 
ATOM     21  C   UNL     1      -1.767  12.208  20.741  0.00  0.00    +0.000 A 
ATOM     22  C   UNL     1      -1.948  12.272  22.120  0.00  0.00    +0.000 A 
ATOM     23  C   UNL     1      -1.261  11.390  22.949  0.00  0.00    +0.000 A 
ATOM     24  C   UNL     1      -0.402  10.435  22.395  0.00  0.00    +0.000 A 
ENDBRANCH   4  19
TORSDOF 3
ENDMDL
MODEL 5
REMARK VINA RESULT:      -7.7      0.717      1.125
REMARK  Name = 
REMARK  6 active torsions:
REMARK  status: ('A' for Active; 'I' for Inactive)
REMARK    1  A    between atoms: C_1  and  C_2
REMARK    2  A    between atoms: N_4  and  C_5
REMARK    3  A    between atoms: C_14  and  C_15
REMARK    4  A    between atoms: C_17  and  C_18
REMARK    5  A    between atoms: N_19  and  C_20
REMARK    6  A    between atoms: C_23  and  C_24
REMARK                            x       y       z     vdW  Elec       q    Type
REMARK                         _______ _______ _______ _____ _____    ______ ____
ROOT
ATOM      1  C   UNL     1       2.030   5.891  20.656  0.00  0.00    +0.000 C 
ATOM      2  C   UNL     1       1.654   7.291  20.303  0.00  0.00    +0.000 C 
ATOM      3  N   UNL     1       0.967   8.063  21.104  0.00  0.00    +0.000 NA
ATOM      4  N   UNL     1       0.755   9.259  20.412  0.00  0.00    +0.000 N 
ATOM      5  C   UNL     1       1.322   9.284  19.131  0.00  0.00    +0.000 C 
ATOM      6  O   UNL     1       1.337  10.137  18.261  0.00  0.00    +0.000 OA
ATOM      7  C   UNL     1       1.966   7.958  19.032  0.00  0.00    +0.000 C 
ATOM      8  C   UNL     1       2.665   7.597  17.949  0.00  0.00    +0.000 C 
ENDROOT
BRANCH   8   9
ATOM      9  C   UNL     1       3.332   6.360  17.760  0.00  0.00    +0.000 A 
ATOM     10  C   UNL     1       2.731   5.093  17.804  0.00  0.00    +0.000 A 
ATOM     11  C   UNL     1       3.728   4.161  17.609  0.00  0.00    +0.000 A 
ATOM     12  C   UNL     1       3.601   2.679  17.647  0.00  0.00    +0.000 C 
ATOM     13  N   UNL     1       4.912   4.846  17.377  0.00  0.00    +0.000 N 
ATOM     14  C   UNL     1       4.683   6.213  17.482  0.00  0.00    +0.000 A 
ATOM     15  C   UNL     1       5.674   7.314  17.306  0.00  0.00    +0.000 C 
BRANCH  13  16
ATOM     16  C   UNL     1       6.150   4.131  17.083  0.00  0.00    +0.000 C 
ATOM     17  C   UNL     1       7.179   4.569  16.064  0.00  0.00    +0.000 C 
ATOM     18  C   UNL     1       7.517   4.619  17.519  0.00  0.00    +0.000 C 
ENDBRANCH  13  16
ENDBRANCH   8   9
BRANCH   4  19
ATOM     19  C   UNL     1      -0.042  10.259  21.019  0.00  0.00    +0.000 A 
ATOM     20  C   UNL     1      -0.271  10.273  22.401  0.00  0.00    +0.000 A 
ATOM     21  C   UNL     1      -1.030  11.288  22.994  0.00  0.00    +0.000 A 
ATOM     22  C   UNL     1      -1.586  12.293  22.209  0.00  0.00    +0.000 A 
ATOM     23  C   UNL     1      -1.381  12.288  20.832  0.00  0.00    +0.000 A 
ATOM     24  C   UNL     1      -0.610  11.281  20.243  0.00  0.00    +0.000 A 
ENDBRANCH   4  19
TORSDOF 3
ENDMDL
MODEL 6
REMARK VINA RESULT:      -7.5      2.042      8.441
REMARK  Name = 
REMARK  6 active torsions:
REMARK  status: ('A' for Active; 'I' for Inactive)
REMARK    1  A    between atoms: C_1  and  C_2
REMARK    2  A    between atoms: N_4  and  C_5
REMARK    3  A    between atoms: C_14  and  C_15
REMARK    4  A    between atoms: C_17  and  C_18
REMARK    5  A    between atoms: N_19  and  C_20
REMARK    6  A    between atoms: C_23  and  C_24
REMARK                            x       y       z     vdW  Elec       q    Type
REMARK                         _______ _______ _______ _____ _____    ______ ____
ROOT
ATOM      1  C   UNL     1       0.642   8.687  21.763  0.00  0.00    +0.000 C 
ATOM      2  C   UNL     1       1.313   8.239  20.508  0.00  0.00    +0.000 C 
ATOM      3  N   UNL     1       1.846   7.053  20.374  0.00  0.00    +0.000 NA
ATOM      4  N   UNL     1       2.429   7.024  19.104  0.00  0.00    +0.000 N 
ATOM      5  C   UNL     1       2.268   8.211  18.377  0.00  0.00    +0.000 C 
ATOM      6  O   UNL     1       2.636   8.544  17.263  0.00  0.00    +0.000 OA
ATOM      7  C   UNL     1       1.487   9.059  19.301  0.00  0.00    +0.000 C 
ATOM      8  C   UNL     1       1.085  10.287  18.956  0.00  0.00    +0.000 C 
ENDROOT
BRANCH   8   9
ATOM      9  C   UNL     1       0.322  11.172  19.759  0.00  0.00    +0.000 A 
ATOM     10  C   UNL     1       0.844  12.115  20.658  0.00  0.00    +0.000 A 
ATOM     11  C   UNL     1      -0.228  12.741  21.260  0.00  0.00    +0.000 A 
ATOM     12  C   UNL     1      -0.188  13.761  22.343  0.00  0.00    +0.000 C 
ATOM     13  N   UNL     1      -1.389  12.243  20.687  0.00  0.00    +0.000 N 
ATOM     14  C   UNL     1      -1.063  11.258  19.763  0.00  0.00    +0.000 A 
ATOM     15  C   UNL     1      -2.000  10.462  18.917  0.00  0.00    +0.000 C 
BRANCH  13  16
ATOM     16  C   UNL     1      -2.700  12.750  21.081  0.00  0.00    +0.000 C 
ATOM     17  C   UNL     1      -3.234  14.122  20.735  0.00  0.00    +0.000 C 
ATOM     18  C   UNL     1      -3.855  12.913  20.115  0.00  0.00    +0.000 C 
ENDBRANCH  13  16
ENDBRANCH   8   9
BRANCH   4  19
ATOM     19  C   UNL     1       3.158   5.874  18.720  0.00  0.00    +0.000 A 
ATOM     20  C   UNL     1       2.663   4.979  17.762  0.00  0.00    +0.000 A 
ATOM     21  C   UNL     1       3.409   3.865  17.364  0.00  0.00    +0.000 A 
ATOM     22  C   UNL     1       4.655   3.620  17.933  0.00  0.00    +0.000 A 
ATOM     23  C   UNL     1       5.158   4.489  18.897  0.00  0.00    +0.000 A 
ATOM     24  C   UNL     1       4.417   5.611  19.283  0.00  0.00    +0.000 A 
ENDBRANCH   4  19
TORSDOF 3
ENDMDL
MODEL 7
REMARK VINA RESULT:      -7.5      1.752      8.444
REMARK  Name = 
REMARK  6 active torsions:
REMARK  status: ('A' for Active; 'I' for Inactive)
REMARK    1  A    between atoms: C_1  and  C_2
REMARK    2  A    between atoms: N_4  and  C_5
REMARK    3  A    between atoms: C_14  and  C_15
REMARK    4  A    between atoms: C_17  and  C_18
REMARK    5  A    between atoms: N_19  and  C_20
REMARK    6  A    between atoms: C_23  and  C_24
REMARK                            x       y       z     vdW  Elec       q    Type
REMARK                         _______ _______ _______ _____ _____    ______ ____
ROOT
ATOM      1  C   UNL     1       0.901   8.916  21.859  0.00  0.00    +0.000 C 
ATOM      2  C   UNL     1       1.349   8.561  20.480  0.00  0.00    +0.000 C 
ATOM      3  N   UNL     1       1.890   7.407  20.187  0.00  0.00    +0.000 NA
ATOM      4  N   UNL     1       2.234   7.468  18.834  0.00  0.00    +0.000 N 
ATOM      5  C   UNL     1       1.905   8.681  18.216  0.00  0.00    +0.000 C 
ATOM      6  O   UNL     1       2.054   9.085  17.075  0.00  0.00    +0.000 OA
ATOM      7  C   UNL     1       1.275   9.447  19.311  0.00  0.00    +0.000 C 
ATOM      8  C   UNL     1       0.777  10.673  19.113  0.00  0.00    +0.000 C 
ENDROOT
BRANCH   8   9
ATOM      9  C   UNL     1       0.141  11.483  20.088  0.00  0.00    +0.000 A 
ATOM     10  C   UNL     1      -1.145  11.274  20.612  0.00  0.00    +0.000 A 
ATOM     11  C   UNL     1      -1.396  12.300  21.498  0.00  0.00    +0.000 A 
ATOM     12  C   UNL     1      -2.655  12.560  22.247  0.00  0.00    +0.000 C 
ATOM     13  N   UNL     1      -0.255  13.086  21.574  0.00  0.00    +0.000 N 
ATOM     14  C   UNL     1       0.702  12.598  20.693  0.00  0.00    +0.000 A 
ATOM     15  C   UNL     1       2.073  13.137  20.453  0.00  0.00    +0.000 C 
BRANCH  13  16
ATOM     16  C   UNL     1      -0.190  14.233  22.475  0.00  0.00    +0.000 C 
ATOM     17  C   UNL     1       0.747  15.408  22.310  0.00  0.00    +0.000 C 
ATOM     18  C   UNL     1      -0.720  15.606  22.115  0.00  0.00    +0.000 C 
ENDBRANCH  13  16
ENDBRANCH   8   9
BRANCH   4  19
ATOM     19  C   UNL     1       2.921   6.370  18.261  0.00  0.00    +0.000 A 
ATOM     20  C   UNL     1       2.312   5.115  18.129  0.00  0.00    +0.000 A 
ATOM     21  C   UNL     1       2.988   4.048  17.528  0.00  0.00    +0.000 A 
ATOM     22  C   UNL     1       4.289   4.217  17.066  0.00  0.00    +0.000 A 
ATOM     23  C   UNL     1       4.916   5.452  17.202  0.00  0.00    +0.000 A 
ATOM     24  C   UNL     1       4.233   6.522  17.790  0.00  0.00    +0.000 A 
ENDBRANCH   4  19
TORSDOF 3
ENDMDL
MODEL 8
REMARK VINA RESULT:      -7.5      2.015      8.645
REMARK  Name = 
REMARK  6 active torsions:
REMARK  status: ('A' for Active; 'I' for Inactive)
REMARK    1  A    between atoms: C_1  and  C_2
REMARK    2  A    between atoms: N_4  and  C_5
REMARK    3  A    between atoms: C_14  and  C_15
REMARK    4  A    between atoms: C_17  and  C_18
REMARK    5  A    between atoms: N_19  and  C_20
REMARK    6  A    between atoms: C_23  and  C_24
REMARK                            x       y       z     vdW  Elec       q    Type
REMARK                         _______ _______ _______ _____ _____    ______ ____
ROOT
ATOM      1  C   UNL     1       0.428   9.173  21.772  0.00  0.00    +0.000 C 
ATOM      2  C   UNL     1       1.036   8.847  20.449  0.00  0.00    +0.000 C 
ATOM      3  N   UNL     1       1.613   7.701  20.198  0.00  0.00    +0.000 NA
ATOM      4  N   UNL     1       2.114   7.789  18.896  0.00  0.00    +0.000 N 
ATOM      5  C   UNL     1       1.854   9.014  18.268  0.00  0.00    +0.000 C 
ATOM      6  O   UNL     1       2.133   9.440  17.160  0.00  0.00    +0.000 OA
ATOM      7  C   UNL     1       1.096   9.756  19.296  0.00  0.00    +0.000 C 
ATOM      8  C   UNL     1       0.618  10.984  19.065  0.00  0.00    +0.000 C 
ENDROOT
BRANCH   8   9
ATOM      9  C   UNL     1      -0.131  11.773  19.975  0.00  0.00    +0.000 A 
ATOM     10  C   UNL     1       0.395  12.488  21.062  0.00  0.00    +0.000 A 
ATOM     11  C   UNL     1      -0.666  13.086  21.709  0.00  0.00    +0.000 A 
ATOM     12  C   UNL     1      -0.626  13.885  22.963  0.00  0.00    +0.000 C 
ATOM     13  N   UNL     1      -1.818  12.803  20.989  0.00  0.00    +0.000 N 
ATOM     14  C   UNL     1      -1.502  11.977  19.918  0.00  0.00    +0.000 A 
ATOM     15  C   UNL     1      -2.434  11.433  18.887  0.00  0.00    +0.000 C 
BRANCH  13  16
ATOM     16  C   UNL     1      -3.111  13.343  21.397  0.00  0.00    +0.000 C 
ATOM     17  C   UNL     1      -4.451  12.745  21.029  0.00  0.00    +0.000 C 
ATOM     18  C   UNL     1      -3.989  12.697  22.449  0.00  0.00    +0.000 C 
ENDBRANCH  13  16
ENDBRANCH   8   9
BRANCH   4  19
ATOM     19  C   UNL     1       2.868   6.705  18.387  0.00  0.00    +0.000 A 
ATOM     20  C   UNL     1       2.432   5.381  18.525  0.00  0.00    +0.000 A 
ATOM     21  C   UNL     1       3.167   4.321  17.986  0.00  0.00    +0.000 A 
ATOM     22  C   UNL     1       4.360   4.569  17.314  0.00  0.00    +0.000 A 
ATOM     23  C   UNL     1       4.818   5.877  17.179  0.00  0.00    +0.000 A 
ATOM     24  C   UNL     1       4.073   6.937  17.706  0.00  0.00    +0.000 A 
ENDBRANCH   4  19
TORSDOF 3
ENDMDL
MODEL 9
REMARK VINA RESULT:      -7.3      1.763      2.968
REMARK  Name = 
REMARK  6 active torsions:
REMARK  status: ('A' for Active; 'I' for Inactive)
REMARK    1  A    between atoms: C_1  and  C_2
REMARK    2  A    between atoms: N_4  and  C_5
REMARK    3  A    between atoms: C_14  and  C_15
REMARK    4  A    between atoms: C_17  and  C_18
REMARK    5  A    between atoms: N_19  and  C_20
REMARK    6  A    between atoms: C_23  and  C_24
REMARK                            x       y       z     vdW  Elec       q    Type
REMARK                         _______ _______ _______ _____ _____    ______ ____
ROOT
ATOM      1  C   UNL     1       2.572   8.128  17.490  0.00  0.00    +0.000 C 
ATOM      2  C   UNL     1       1.811   8.612  18.679  0.00  0.00    +0.000 C 
ATOM      3  N   UNL     1       1.122   9.724  18.674  0.00  0.00    +0.000 NA
ATOM      4  N   UNL     1       0.611   9.874  19.966  0.00  0.00    +0.000 N 
ATOM      5  C   UNL     1       0.958   8.836  20.841  0.00  0.00    +0.000 C 
ATOM      6  O   UNL     1       0.700   8.637  22.016  0.00  0.00    +0.000 OA
ATOM      7  C   UNL     1       1.762   7.941  19.985  0.00  0.00    +0.000 C 
ATOM      8  C   UNL     1       2.259   6.788  20.447  0.00  0.00    +0.000 C 
ENDROOT
BRANCH   8   9
ATOM      9  C   UNL     1       3.027   5.853  19.708  0.00  0.00    +0.000 A 
ATOM     10  C   UNL     1       4.389   5.984  19.392  0.00  0.00    +0.000 A 
ATOM     11  C   UNL     1       4.739   4.885  18.635  0.00  0.00    +0.000 A 
ATOM     12  C   UNL     1       6.054   4.609  17.997  0.00  0.00    +0.000 C 
ATOM     13  N   UNL     1       3.630   4.056  18.548  0.00  0.00    +0.000 N 
ATOM     14  C   UNL     1       2.556   4.653  19.198  0.00  0.00    +0.000 A 
ATOM     15  C   UNL     1       1.174   4.110  19.351  0.00  0.00    +0.000 C 
BRANCH  13  16
ATOM     16  C   UNL     1       3.699   2.778  17.848  0.00  0.00    +0.000 C 
ATOM     17  C   UNL     1       3.660   1.423  18.519  0.00  0.00    +0.000 C 
ATOM     18  C   UNL     1       2.507   1.858  17.675  0.00  0.00    +0.000 C 
ENDBRANCH  13  16
ENDBRANCH   8   9
BRANCH   4  19
ATOM     19  C   UNL     1      -0.117  11.049  20.273  0.00  0.00    +0.000 A 
ATOM     20  C   UNL     1      -1.324  11.351  19.630  0.00  0.00    +0.000 A 
ATOM     21  C   UNL     1      -2.053  12.496  19.967  0.00  0.00    +0.000 A 
ATOM     22  C   UNL     1      -1.573  13.366  20.942  0.00  0.00    +0.000 A 
ATOM     23  C   UNL     1      -0.368  13.091  21.581  0.00  0.00    +0.000 A 
ATOM     24  C   UNL     1       0.351  11.938  21.253  0.00  0.00    +0.000 A 
ENDBRANCH   4  19
TORSDOF 3
ENDMDL
