MODEL 1
REMARK VINA RESULT:      -7.2      0.000      0.000
REMARK  Name = 
REMARK  5 active torsions:
REMARK  status: ('A' for Active; 'I' for Inactive)
REMARK    1  A    between atoms: C_1  and  C_2
REMARK    2  A    between atoms: C_5  and  C_6
REMARK    3  A    between atoms: N_7  and  C_8
REMARK    4  A    between atoms: C_11  and  C_12
REMARK    5  A    between atoms: N_14  and  N_15
REMARK                            x       y       z     vdW  Elec       q    Type
REMARK                         _______ _______ _______ _____ _____    ______ ____
ROOT
ATOM      1  C   UNL     1       4.389   4.301  18.276  0.00  0.00    +0.000 A 
ATOM      2  C   UNL     1       3.892   3.924  17.025  0.00  0.00    +0.000 A 
ATOM      3  C   UNL     1       4.678   4.017  15.878  0.00  0.00    +0.000 A 
ATOM      4  C   UNL     1       5.973   4.548  15.943  0.00  0.00    +0.000 A 
ATOM      5  C   UNL     1       6.466   4.959  17.183  0.00  0.00    +0.000 A 
ATOM      6  C   UNL     1       5.687   4.822  18.335  0.00  0.00    +0.000 A 
ENDROOT
BRANCH   1  13
ATOM      7  C   UNL     1       4.369   1.726  20.079  0.00  0.00    +0.000 C 
ATOM      8  C   UNL     1       3.545   2.962  20.259  0.00  0.00    +0.000 A 
ATOM      9  C   UNL     1       2.658   3.190  21.295  0.00  0.00    +0.000 A 
ATOM     10  C   UNL     1       2.183   4.503  21.173  0.00  0.00    +0.000 A 
ATOM     11  C   UNL     1       2.763   5.067  20.055  0.00  0.00    +0.000 A 
ATOM     12  C   UNL     1       2.442   6.414  19.492  0.00  0.00    +0.000 C 
ATOM     13  N   UNL     1       3.619   4.121  19.475  0.00  0.00    +0.000 N 
ENDBRANCH   1  13
BRANCH   4  14
ATOM     14  C   UNL     1       6.775   4.609  14.680  0.00  0.00    +0.000 C 
ATOM     15  O   UNL     1       6.519   3.849  13.753  0.00  0.00    +0.000 OA
ATOM     16  N   UNL     1       7.797   5.554  14.615  0.00  0.00    +0.000 N 
ATOM     17  H   UNL     1       7.889   6.285  15.310  0.00  0.00    +0.000 HD
BRANCH  16  18
ATOM     18  N   UNL     1       8.541   5.660  13.431  0.00  0.00    +0.000 NA
ATOM     19  H   UNL     1       9.423   5.146  13.593  0.00  0.00    +0.000 HD
ATOM     20  H   UNL     1       8.840   6.629  13.335  0.00  0.00    +0.000 HD
ENDBRANCH  16  18
ENDBRANCH   4  14
TORSDOF 3
ENDMDL
MODEL 2
REMARK VINA RESULT:      -7.1      1.500      2.421
REMARK  Name = 
REMARK  5 active torsions:
REMARK  status: ('A' for Active; 'I' for Inactive)
REMARK    1  A    between atoms: C_1  and  C_2
REMARK    2  A    between atoms: C_5  and  C_6
REMARK    3  A    between atoms: N_7  and  C_8
REMARK    4  A    between atoms: C_11  and  C_12
REMARK    5  A    between atoms: N_14  and  N_15
REMARK                            x       y       z     vdW  Elec       q    Type
REMARK                         _______ _______ _______ _____ _____    ______ ____
ROOT
ATOM      1  C   UNL     1       3.885   4.428  18.567  0.00  0.00    +0.000 A 
ATOM      2  C   UNL     1       3.672   4.749  17.224  0.00  0.00    +0.000 A 
ATOM      3  C   UNL     1       4.715   5.197  16.414  0.00  0.00    +0.000 A 
ATOM      4  C   UNL     1       5.996   5.391  16.946  0.00  0.00    +0.000 A 
ATOM      5  C   UNL     1       6.211   5.105  18.297  0.00  0.00    +0.000 A 
ATOM      6  C   UNL     1       5.170   4.614  19.090  0.00  0.00    +0.000 A 
ENDROOT
BRANCH   1  13
ATOM      7  C   UNL     1       1.981   6.058  20.465  0.00  0.00    +0.000 C 
ATOM      8  C   UNL     1       2.020   4.574  20.283  0.00  0.00    +0.000 A 
ATOM      9  C   UNL     1       1.178   3.668  20.899  0.00  0.00    +0.000 A 
ATOM     10  C   UNL     1       1.454   2.398  20.375  0.00  0.00    +0.000 A 
ATOM     11  C   UNL     1       2.476   2.526  19.456  0.00  0.00    +0.000 A 
ATOM     12  C   UNL     1       3.159   1.400  18.750  0.00  0.00    +0.000 C 
ATOM     13  N   UNL     1       2.839   3.878  19.382  0.00  0.00    +0.000 N 
ENDBRANCH   1  13
BRANCH   4  14
ATOM     14  C   UNL     1       7.079   5.860  16.025  0.00  0.00    +0.000 C 
ATOM     15  O   UNL     1       7.816   6.781  16.360  0.00  0.00    +0.000 OA
ATOM     16  N   UNL     1       7.204   5.209  14.798  0.00  0.00    +0.000 N 
ATOM     17  H   UNL     1       6.709   4.347  14.603  0.00  0.00    +0.000 HD
BRANCH  16  18
ATOM     18  N   UNL     1       8.232   5.601  13.930  0.00  0.00    +0.000 NA
ATOM     19  H   UNL     1       7.943   5.307  12.982  0.00  0.00    +0.000 HD
ATOM     20  H   UNL     1       9.046   5.021  14.126  0.00  0.00    +0.000 HD
ENDBRANCH  16  18
ENDBRANCH   4  14
TORSDOF 3
ENDMDL
MODEL 3
REMARK VINA RESULT:      -7.1      0.080      1.973
REMARK  Name = 
REMARK  5 active torsions:
REMARK  status: ('A' for Active; 'I' for Inactive)
REMARK    1  A    between atoms: C_1  and  C_2
REMARK    2  A    between atoms: C_5  and  C_6
REMARK    3  A    between atoms: N_7  and  C_8
REMARK    4  A    between atoms: C_11  and  C_12
REMARK    5  A    between atoms: N_14  and  N_15
REMARK                            x       y       z     vdW  Elec       q    Type
REMARK                         _______ _______ _______ _____ _____    ______ ____
ROOT
ATOM      1  C   UNL     1       4.372   4.299  18.221  0.00  0.00    +0.000 A 
ATOM      2  C   UNL     1       3.854   4.013  16.955  0.00  0.00    +0.000 A 
ATOM      3  C   UNL     1       4.648   4.105  15.812  0.00  0.00    +0.000 A 
ATOM      4  C   UNL     1       5.976   4.542  15.901  0.00  0.00    +0.000 A 
ATOM      5  C   UNL     1       6.493   4.862  17.159  0.00  0.00    +0.000 A 
ATOM      6  C   UNL     1       5.703   4.725  18.304  0.00  0.00    +0.000 A 
ENDROOT
BRANCH   1  13
ATOM      7  C   UNL     1       2.484   6.447  19.527  0.00  0.00    +0.000 C 
ATOM      8  C   UNL     1       2.791   5.079  20.047  0.00  0.00    +0.000 A 
ATOM      9  C   UNL     1       2.247   4.512  21.185  0.00  0.00    +0.000 A 
ATOM     10  C   UNL     1       2.690   3.185  21.259  0.00  0.00    +0.000 A 
ATOM     11  C   UNL     1       3.518   2.948  20.181  0.00  0.00    +0.000 A 
ATOM     12  C   UNL     1       4.300   1.697  19.940  0.00  0.00    +0.000 C 
ATOM     13  N   UNL     1       3.589   4.117  19.411  0.00  0.00    +0.000 N 
ENDBRANCH   1  13
BRANCH   4  14
ATOM     14  C   UNL     1       6.783   4.606  14.642  0.00  0.00    +0.000 C 
ATOM     15  O   UNL     1       6.531   3.849  13.711  0.00  0.00    +0.000 OA
ATOM     16  N   UNL     1       7.807   5.550  14.584  0.00  0.00    +0.000 N 
ATOM     17  H   UNL     1       7.897   6.278  15.282  0.00  0.00    +0.000 HD
BRANCH  16  18
ATOM     18  N   UNL     1       8.557   5.658  13.404  0.00  0.00    +0.000 NA
ATOM     19  H   UNL     1       9.049   6.566  13.452  0.00  0.00    +0.000 HD
ATOM     20  H   UNL     1       7.906   5.776  12.630  0.00  0.00    +0.000 HD
ENDBRANCH  16  18
ENDBRANCH   4  14
TORSDOF 3
ENDMDL
MODEL 4
REMARK VINA RESULT:      -7.1      1.471      1.525
REMARK  Name = 
REMARK  5 active torsions:
REMARK  status: ('A' for Active; 'I' for Inactive)
REMARK    1  A    between atoms: C_1  and  C_2
REMARK    2  A    between atoms: C_5  and  C_6
REMARK    3  A    between atoms: N_7  and  C_8
REMARK    4  A    between atoms: C_11  and  C_12
REMARK    5  A    between atoms: N_14  and  N_15
REMARK                            x       y       z     vdW  Elec       q    Type
REMARK                         _______ _______ _______ _____ _____    ______ ____
ROOT
ATOM      1  C   UNL     1       3.892   4.430  18.567  0.00  0.00    +0.000 A 
ATOM      2  C   UNL     1       3.776   4.441  17.174  0.00  0.00    +0.000 A 
ATOM      3  C   UNL     1       4.818   4.896  16.366  0.00  0.00    +0.000 A 
ATOM      4  C   UNL     1       5.990   5.408  16.937  0.00  0.00    +0.000 A 
ATOM      5  C   UNL     1       6.102   5.432  18.329  0.00  0.00    +0.000 A 
ATOM      6  C   UNL     1       5.071   4.934  19.130  0.00  0.00    +0.000 A 
ENDROOT
BRANCH   1  13
ATOM      7  C   UNL     1       3.213   1.376  18.872  0.00  0.00    +0.000 C 
ATOM      8  C   UNL     1       2.500   2.528  19.506  0.00  0.00    +0.000 A 
ATOM      9  C   UNL     1       1.433   2.428  20.380  0.00  0.00    +0.000 A 
ATOM     10  C   UNL     1       1.133   3.717  20.842  0.00  0.00    +0.000 A 
ATOM     11  C   UNL     1       2.001   4.603  20.236  0.00  0.00    +0.000 A 
ATOM     12  C   UNL     1       1.951   6.091  20.355  0.00  0.00    +0.000 C 
ATOM     13  N   UNL     1       2.863   3.878  19.402  0.00  0.00    +0.000 N 
ENDBRANCH   1  13
BRANCH   4  14
ATOM     14  C   UNL     1       7.080   5.867  16.018  0.00  0.00    +0.000 C 
ATOM     15  O   UNL     1       7.826   6.778  16.357  0.00  0.00    +0.000 OA
ATOM     16  N   UNL     1       7.198   5.218  14.790  0.00  0.00    +0.000 N 
ATOM     17  H   UNL     1       6.693   4.363  14.591  0.00  0.00    +0.000 HD
BRANCH  16  18
ATOM     18  N   UNL     1       8.232   5.601  13.923  0.00  0.00    +0.000 NA
ATOM     19  H   UNL     1       8.627   4.729  13.535  0.00  0.00    +0.000 HD
ATOM     20  H   UNL     1       8.990   5.980  14.489  0.00  0.00    +0.000 HD
ENDBRANCH  16  18
ENDBRANCH   4  14
TORSDOF 3
ENDMDL
MODEL 5
REMARK VINA RESULT:      -7.0      0.441      1.245
REMARK  Name = 
REMARK  5 active torsions:
REMARK  status: ('A' for Active; 'I' for Inactive)
REMARK    1  A    between atoms: C_1  and  C_2
REMARK    2  A    between atoms: C_5  and  C_6
REMARK    3  A    between atoms: N_7  and  C_8
REMARK    4  A    between atoms: C_11  and  C_12
REMARK    5  A    between atoms: N_14  and  N_15
REMARK                            x       y       z     vdW  Elec       q    Type
REMARK                         _______ _______ _______ _____ _____    ______ ____
ROOT
ATOM      1  C   UNL     1       4.373   4.468  18.062  0.00  0.00    +0.000 A 
ATOM      2  C   UNL     1       5.662   5.007  18.070  0.00  0.00    +0.000 A 
ATOM      3  C   UNL     1       6.429   5.064  16.906  0.00  0.00    +0.000 A 
ATOM      4  C   UNL     1       5.942   4.528  15.707  0.00  0.00    +0.000 A 
ATOM      5  C   UNL     1       4.667   3.957  15.697  0.00  0.00    +0.000 A 
ATOM      6  C   UNL     1       3.889   3.943  16.858  0.00  0.00    +0.000 A 
ENDROOT
BRANCH   1  13
ATOM      7  C   UNL     1       4.137   2.169  20.194  0.00  0.00    +0.000 C 
ATOM      8  C   UNL     1       3.373   3.454  20.163  0.00  0.00    +0.000 A 
ATOM      9  C   UNL     1       2.454   3.864  21.112  0.00  0.00    +0.000 A 
ATOM     10  C   UNL     1       2.055   5.168  20.790  0.00  0.00    +0.000 A 
ATOM     11  C   UNL     1       2.714   5.546  19.636  0.00  0.00    +0.000 A 
ATOM     12  C   UNL     1       2.489   6.815  18.881  0.00  0.00    +0.000 C 
ATOM     13  N   UNL     1       3.543   4.490  19.234  0.00  0.00    +0.000 N 
ENDBRANCH   1  13
BRANCH   4  14
ATOM     14  C   UNL     1       6.804   4.632  14.487  0.00  0.00    +0.000 C 
ATOM     15  O   UNL     1       6.583   3.918  13.515  0.00  0.00    +0.000 OA
ATOM     16  N   UNL     1       7.842   5.562  14.513  0.00  0.00    +0.000 N 
ATOM     17  H   UNL     1       7.911   6.259  15.244  0.00  0.00    +0.000 HD
BRANCH  16  18
ATOM     18  N   UNL     1       8.644   5.707  13.372  0.00  0.00    +0.000 NA
ATOM     19  H   UNL     1       9.481   6.236  13.668  0.00  0.00    +0.000 HD
ATOM     20  H   UNL     1       8.168   6.344  12.735  0.00  0.00    +0.000 HD
ENDBRANCH  16  18
ENDBRANCH   4  14
TORSDOF 3
ENDMDL
MODEL 6
REMARK VINA RESULT:      -7.0      1.380      2.617
REMARK  Name = 
REMARK  5 active torsions:
REMARK  status: ('A' for Active; 'I' for Inactive)
REMARK    1  A    between atoms: C_1  and  C_2
REMARK    2  A    between atoms: C_5  and  C_6
REMARK    3  A    between atoms: N_7  and  C_8
REMARK    4  A    between atoms: C_11  and  C_12
REMARK    5  A    between atoms: N_14  and  N_15
REMARK                            x       y       z     vdW  Elec       q    Type
REMARK                         _______ _______ _______ _____ _____    ______ ____
ROOT
ATOM      1  C   UNL     1       3.970   4.224  18.441  0.00  0.00    +0.000 A 
ATOM      2  C   UNL     1       5.208   4.633  18.945  0.00  0.00    +0.000 A 
ATOM      3  C   UNL     1       6.201   5.132  18.103  0.00  0.00    +0.000 A 
ATOM      4  C   UNL     1       6.001   5.181  16.717  0.00  0.00    +0.000 A 
ATOM      5  C   UNL     1       4.780   4.743  16.201  0.00  0.00    +0.000 A 
ATOM      6  C   UNL     1       3.773   4.286  17.056  0.00  0.00    +0.000 A 
ENDROOT
BRANCH   1  13
ATOM      7  C   UNL     1       2.089   6.110  20.109  0.00  0.00    +0.000 C 
ATOM      8  C   UNL     1       2.101   4.614  20.112  0.00  0.00    +0.000 A 
ATOM      9  C   UNL     1       1.238   3.806  20.830  0.00  0.00    +0.000 A 
ATOM     10  C   UNL     1       1.493   2.476  20.468  0.00  0.00    +0.000 A 
ATOM     11  C   UNL     1       2.522   2.472  19.548  0.00  0.00    +0.000 A 
ATOM     12  C   UNL     1       3.187   1.255  18.990  0.00  0.00    +0.000 C 
ATOM     13  N   UNL     1       2.910   3.797  19.310  0.00  0.00    +0.000 N 
ENDBRANCH   1  13
BRANCH   4  14
ATOM     14  C   UNL     1       7.099   5.741  15.866  0.00  0.00    +0.000 C 
ATOM     15  O   UNL     1       7.787   6.666  16.281  0.00  0.00    +0.000 OA
ATOM     16  N   UNL     1       7.293   5.166  14.611  0.00  0.00    +0.000 N 
ATOM     17  H   UNL     1       6.838   4.300  14.348  0.00  0.00    +0.000 HD
BRANCH  16  18
ATOM     18  N   UNL     1       8.336   5.644  13.806  0.00  0.00    +0.000 NA
ATOM     19  H   UNL     1       8.001   5.589  12.830  0.00  0.00    +0.000 HD
ATOM     20  H   UNL     1       9.094   4.965  13.840  0.00  0.00    +0.000 HD
ENDBRANCH  16  18
ENDBRANCH   4  14
TORSDOF 3
ENDMDL
MODEL 7
REMARK VINA RESULT:      -7.0      0.600      2.377
REMARK  Name = 
REMARK  5 active torsions:
REMARK  status: ('A' for Active; 'I' for Inactive)
REMARK    1  A    between atoms: C_1  and  C_2
REMARK    2  A    between atoms: C_5  and  C_6
REMARK    3  A    between atoms: N_7  and  C_8
REMARK    4  A    between atoms: C_11  and  C_12
REMARK    5  A    between atoms: N_14  and  N_15
REMARK                            x       y       z     vdW  Elec       q    Type
REMARK                         _______ _______ _______ _____ _____    ______ ____
ROOT
ATOM      1  C   UNL     1       4.246   4.716  18.001  0.00  0.00    +0.000 A 
ATOM      2  C   UNL     1       5.463   5.404  17.967  0.00  0.00    +0.000 A 
ATOM      3  C   UNL     1       6.268   5.390  16.829  0.00  0.00    +0.000 A 
ATOM      4  C   UNL     1       5.901   4.637  15.706  0.00  0.00    +0.000 A 
ATOM      5  C   UNL     1       4.703   3.920  15.743  0.00  0.00    +0.000 A 
ATOM      6  C   UNL     1       3.881   3.974  16.872  0.00  0.00    +0.000 A 
ENDROOT
BRANCH   1  13
ATOM      7  C   UNL     1       2.418   7.167  18.733  0.00  0.00    +0.000 C 
ATOM      8  C   UNL     1       2.593   5.905  19.516  0.00  0.00    +0.000 A 
ATOM      9  C   UNL     1       1.930   5.589  20.688  0.00  0.00    +0.000 A 
ATOM     10  C   UNL     1       2.275   4.277  21.038  0.00  0.00    +0.000 A 
ATOM     11  C   UNL     1       3.162   3.800  20.094  0.00  0.00    +0.000 A 
ATOM     12  C   UNL     1       3.873   2.487  20.150  0.00  0.00    +0.000 C 
ATOM     13  N   UNL     1       3.368   4.801  19.134  0.00  0.00    +0.000 N 
ENDBRANCH   1  13
BRANCH   4  14
ATOM     14  C   UNL     1       6.799   4.674  14.508  0.00  0.00    +0.000 C 
ATOM     15  O   UNL     1       6.604   3.909  13.570  0.00  0.00    +0.000 OA
ATOM     16  N   UNL     1       7.839   5.603  14.515  0.00  0.00    +0.000 N 
ATOM     17  H   UNL     1       7.888   6.338  15.209  0.00  0.00    +0.000 HD
BRANCH  16  18
ATOM     18  N   UNL     1       8.673   5.686  13.391  0.00  0.00    +0.000 NA
ATOM     19  H   UNL     1       9.209   4.802  13.359  0.00  0.00    +0.000 HD
ATOM     20  H   UNL     1       9.382   6.392  13.579  0.00  0.00    +0.000 HD
ENDBRANCH  16  18
ENDBRANCH   4  14
TORSDOF 3
ENDMDL
MODEL 8
REMARK VINA RESULT:      -6.9      1.408      1.820
REMARK  Name = 
REMARK  5 active torsions:
REMARK  status: ('A' for Active; 'I' for Inactive)
REMARK    1  A    between atoms: C_1  and  C_2
REMARK    2  A    between atoms: C_5  and  C_6
REMARK    3  A    between atoms: N_7  and  C_8
REMARK    4  A    between atoms: C_11  and  C_12
REMARK    5  A    between atoms: N_14  and  N_15
REMARK                            x       y       z     vdW  Elec       q    Type
REMARK                         _______ _______ _______ _____ _____    ______ ____
ROOT
ATOM      1  C   UNL     1       3.933   4.342  18.468  0.00  0.00    +0.000 A 
ATOM      2  C   UNL     1       5.169   4.759  18.972  0.00  0.00    +0.000 A 
ATOM      3  C   UNL     1       6.173   5.229  18.127  0.00  0.00    +0.000 A 
ATOM      4  C   UNL     1       5.986   5.242  16.738  0.00  0.00    +0.000 A 
ATOM      5  C   UNL     1       4.766   4.797  16.223  0.00  0.00    +0.000 A 
ATOM      6  C   UNL     1       3.749   4.369  17.080  0.00  0.00    +0.000 A 
ENDROOT
BRANCH   1  13
ATOM      7  C   UNL     1       2.998   1.390  19.005  0.00  0.00    +0.000 C 
ATOM      8  C   UNL     1       2.387   2.643  19.545  0.00  0.00    +0.000 A 
ATOM      9  C   UNL     1       1.317   2.702  20.420  0.00  0.00    +0.000 A 
ATOM     10  C   UNL     1       1.128   4.043  20.780  0.00  0.00    +0.000 A 
ATOM     11  C   UNL     1       2.066   4.803  20.110  0.00  0.00    +0.000 A 
ATOM     12  C   UNL     1       2.143   6.295  20.114  0.00  0.00    +0.000 C 
ATOM     13  N   UNL     1       2.863   3.945  19.339  0.00  0.00    +0.000 N 
ENDBRANCH   1  13
BRANCH   4  14
ATOM     14  C   UNL     1       7.094   5.772  15.882  0.00  0.00    +0.000 C 
ATOM     15  O   UNL     1       7.805   6.683  16.292  0.00  0.00    +0.000 OA
ATOM     16  N   UNL     1       7.272   5.188  14.630  0.00  0.00    +0.000 N 
ATOM     17  H   UNL     1       6.797   4.331  14.372  0.00  0.00    +0.000 HD
BRANCH  16  18
ATOM     18  N   UNL     1       8.325   5.638  13.821  0.00  0.00    +0.000 NA
ATOM     19  H   UNL     1       7.977   6.478  13.328  0.00  0.00    +0.000 HD
ATOM     20  H   UNL     1       8.459   4.958  13.074  0.00  0.00    +0.000 HD
ENDBRANCH  16  18
ENDBRANCH   4  14
TORSDOF 3
ENDMDL
MODEL 9
REMARK VINA RESULT:      -6.8      1.011      1.011
REMARK  Name = 
REMARK  5 active torsions:
REMARK  status: ('A' for Active; 'I' for Inactive)
REMARK    1  A    between atoms: C_1  and  C_2
REMARK    2  A    between atoms: C_5  and  C_6
REMARK    3  A    between atoms: N_7  and  C_8
REMARK    4  A    between atoms: C_11  and  C_12
REMARK    5  A    between atoms: N_14  and  N_15
REMARK                            x       y       z     vdW  Elec       q    Type
REMARK                         _______ _______ _______ _____ _____    ______ ____
ROOT
ATOM      1  C   UNL     1       4.395   4.244  18.281  0.00  0.00    +0.000 A 
ATOM      2  C   UNL     1       3.877   3.896  17.030  0.00  0.00    +0.000 A 
ATOM      3  C   UNL     1       4.649   4.003  15.874  0.00  0.00    +0.000 A 
ATOM      4  C   UNL     1       5.950   4.518  15.931  0.00  0.00    +0.000 A 
ATOM      5  C   UNL     1       6.465   4.900  17.173  0.00  0.00    +0.000 A 
ATOM      6  C   UNL     1       5.700   4.749  18.332  0.00  0.00    +0.000 A 
ENDROOT
BRANCH   1  13
ATOM      7  C   UNL     1       4.415   1.656  20.066  0.00  0.00    +0.000 C 
ATOM      8  C   UNL     1       3.584   2.883  20.263  0.00  0.00    +0.000 A 
ATOM      9  C   UNL     1       2.706   3.098  21.310  0.00  0.00    +0.000 A 
ATOM     10  C   UNL     1       2.219   4.407  21.203  0.00  0.00    +0.000 A 
ATOM     11  C   UNL     1       2.783   4.984  20.082  0.00  0.00    +0.000 A 
ATOM     12  C   UNL     1       2.445   6.332  19.532  0.00  0.00    +0.000 C 
ATOM     13  N   UNL     1       3.640   4.049  19.487  0.00  0.00    +0.000 N 
ENDBRANCH   1  13
BRANCH   4  14
ATOM     14  C   UNL     1       6.735   4.595  14.658  0.00  0.00    +0.000 C 
ATOM     15  O   UNL     1       7.711   5.333  14.583  0.00  0.00    +0.000 OA
ATOM     16  N   UNL     1       6.310   3.802  13.594  0.00  0.00    +0.000 N 
ATOM     17  H   UNL     1       5.615   3.076  13.719  0.00  0.00    +0.000 HD
BRANCH  16  18
ATOM     18  N   UNL     1       7.047   3.825  12.402  0.00  0.00    +0.000 NA
ATOM     19  H   UNL     1       6.525   4.431  11.747  0.00  0.00    +0.000 HD
ATOM     20  H   UNL     1       6.985   2.901  11.978  0.00  0.00    +0.000 HD
ENDBRANCH  16  18
ENDBRANCH   4  14
TORSDOF 3
ENDMDL
