MODEL 1
REMARK VINA RESULT:      -7.8      0.000      0.000
REMARK  Name = 
REMARK  4 active torsions:
REMARK  status: ('A' for Active; 'I' for Inactive)
REMARK    1  A    between atoms: C_1  and  C_2
REMARK    2  A    between atoms: N_17  and  C_18
REMARK    3  A    between atoms: C_18  and  C_19
REMARK    4  A    between atoms: C_24  and  O_25
REMARK                            x       y       z     vdW  Elec       q    Type
REMARK                         _______ _______ _______ _____ _____    ______ ____
ROOT
ATOM      1  C   UNL     1       3.390   4.289  17.447  0.00  0.00    +0.000 C 
ATOM      2  C   UNL     1       2.135   4.658  18.238  0.00  0.00    +0.000 C 
ATOM      3  C   UNL     1       1.327   3.431  18.678  0.00  0.00    +0.000 C 
ATOM      4  C   UNL     1       2.018   2.650  19.791  0.00  0.00    +0.000 C 
ATOM      5  C   UNL     1       2.327   3.570  20.969  0.00  0.00    +0.000 C 
ATOM      6  C   UNL     1       3.110   4.804  20.537  0.00  0.00    +0.000 C 
ATOM      7  N   UNL     1       2.475   5.485  19.408  0.00  0.00    +0.000 N 
ATOM      8  C   UNL     1       1.981   6.765  19.542  0.00  0.00    +0.000 A 
ATOM      9  N   UNL     1       1.382   7.211  20.608  0.00  0.00    +0.000 NA
ATOM     10  C   UNL     1       0.920   8.516  20.599  0.00  0.00    +0.000 A 
ATOM     11  C   UNL     1       1.121   9.368  19.577  0.00  0.00    +0.000 A 
ATOM     12  C   UNL     1       1.844   8.879  18.406  0.00  0.00    +0.000 A 
ATOM     13  O   UNL     1       2.115   9.590  17.445  0.00  0.00    +0.000 OA
ATOM     14  N   UNL     1       2.190   7.567  18.456  0.00  0.00    +0.000 N 
ATOM     15  C   UNL     1       0.619  10.771  19.555  0.00  0.00    +0.000 C 
ATOM     16  C   UNL     1      -0.449  11.016  20.621  0.00  0.00    +0.000 C 
ATOM     17  N   UNL     1      -0.029  10.467  21.921  0.00  0.00    +0.000 NA
ATOM     18  C   UNL     1       0.133   8.993  21.823  0.00  0.00    +0.000 C 
ATOM     19  H   UNL     1       2.742   7.221  17.691  0.00  0.00    +0.000 HD
ENDROOT
BRANCH  17  20
ATOM     20  C   UNL     1      -1.000  10.818  22.982  0.00  0.00    +0.000 C 
BRANCH  20  21
ATOM     21  C   UNL     1      -1.365  12.294  22.982  0.00  0.00    +0.000 A 
ATOM     22  C   UNL     1      -0.427  13.240  22.532  0.00  0.00    +0.000 A 
ATOM     23  C   UNL     1      -0.779  14.585  22.394  0.00  0.00    +0.000 A 
ATOM     24  C   UNL     1      -2.067  15.007  22.717  0.00  0.00    +0.000 A 
ATOM     25  C   UNL     1      -3.002  14.089  23.191  0.00  0.00    +0.000 A 
ATOM     26  C   UNL     1      -2.650  12.743  23.319  0.00  0.00    +0.000 A 
BRANCH  26  27
ATOM     27  O   UNL     1      -3.584  11.838  23.741  0.00  0.00    +0.000 OA
ATOM     28  H   UNL     1      -3.971  11.407  22.962  0.00  0.00    +0.000 HD
ENDBRANCH  26  27
ENDBRANCH  20  21
ENDBRANCH  17  20
TORSDOF 3
ENDMDL
MODEL 2
REMARK VINA RESULT:      -7.7      0.954      1.336
REMARK  Name = 
REMARK  4 active torsions:
REMARK  status: ('A' for Active; 'I' for Inactive)
REMARK    1  A    between atoms: C_1  and  C_2
REMARK    2  A    between atoms: N_17  and  C_18
REMARK    3  A    between atoms: C_18  and  C_19
REMARK    4  A    between atoms: C_24  and  O_25
REMARK                            x       y       z     vdW  Elec       q    Type
REMARK                         _______ _______ _______ _____ _____    ______ ____
ROOT
ATOM      1  C   UNL     1       3.464   4.595  17.348  0.00  0.00    +0.000 C 
ATOM      2  C   UNL     1       2.217   4.924  18.169  0.00  0.00    +0.000 C 
ATOM      3  C   UNL     1       1.447   3.672  18.607  0.00  0.00    +0.000 C 
ATOM      4  C   UNL     1       2.178   2.891  19.694  0.00  0.00    +0.000 C 
ATOM      5  C   UNL     1       2.491   3.800  20.879  0.00  0.00    +0.000 C 
ATOM      6  C   UNL     1       3.236   5.058  20.450  0.00  0.00    +0.000 C 
ATOM      7  N   UNL     1       2.563   5.741  19.344  0.00  0.00    +0.000 N 
ATOM      8  C   UNL     1       2.042   7.007  19.508  0.00  0.00    +0.000 A 
ATOM      9  N   UNL     1       1.455   7.423  20.592  0.00  0.00    +0.000 NA
ATOM     10  C   UNL     1       0.963   8.717  20.612  0.00  0.00    +0.000 A 
ATOM     11  C   UNL     1       1.124   9.588  19.600  0.00  0.00    +0.000 A 
ATOM     12  C   UNL     1       1.833   9.133  18.407  0.00  0.00    +0.000 A 
ATOM     13  O   UNL     1       2.068   9.865  17.451  0.00  0.00    +0.000 OA
ATOM     14  N   UNL     1       2.210   7.830  18.430  0.00  0.00    +0.000 N 
ATOM     15  C   UNL     1       0.589  10.980  19.609  0.00  0.00    +0.000 C 
ATOM     16  C   UNL     1      -0.461  11.185  20.700  0.00  0.00    +0.000 C 
ATOM     17  N   UNL     1      -0.002  10.627  21.983  0.00  0.00    +0.000 NA
ATOM     18  C   UNL     1       0.192   9.158  21.859  0.00  0.00    +0.000 C 
ATOM     19  H   UNL     1       2.754   7.508  17.648  0.00  0.00    +0.000 HD
ENDROOT
BRANCH  17  20
ATOM     20  C   UNL     1      -0.959  10.939  23.069  0.00  0.00    +0.000 C 
BRANCH  20  21
ATOM     21  C   UNL     1      -1.702  12.245  22.841  0.00  0.00    +0.000 A 
ATOM     22  C   UNL     1      -3.108  12.256  22.857  0.00  0.00    +0.000 A 
ATOM     23  C   UNL     1      -3.815  13.459  22.784  0.00  0.00    +0.000 A 
ATOM     24  C   UNL     1      -3.129  14.667  22.680  0.00  0.00    +0.000 A 
ATOM     25  C   UNL     1      -1.736  14.675  22.633  0.00  0.00    +0.000 A 
ATOM     26  C   UNL     1      -1.032  13.470  22.716  0.00  0.00    +0.000 A 
BRANCH  26  27
ATOM     27  O   UNL     1       0.335  13.486  22.717  0.00  0.00    +0.000 OA
ATOM     28  H   UNL     1       0.648  13.179  23.584  0.00  0.00    +0.000 HD
ENDBRANCH  26  27
ENDBRANCH  20  21
ENDBRANCH  17  20
TORSDOF 3
ENDMDL
MODEL 3
REMARK VINA RESULT:      -7.4      2.080      2.424
REMARK  Name = 
REMARK  4 active torsions:
REMARK  status: ('A' for Active; 'I' for Inactive)
REMARK    1  A    between atoms: C_1  and  C_2
REMARK    2  A    between atoms: N_17  and  C_18
REMARK    3  A    between atoms: C_18  and  C_19
REMARK    4  A    between atoms: C_24  and  O_25
REMARK                            x       y       z     vdW  Elec       q    Type
REMARK                         _______ _______ _______ _____ _____    ______ ____
ROOT
ATOM      1  C   UNL     1       3.382   2.915  18.215  0.00  0.00    +0.000 C 
ATOM      2  C   UNL     1       2.174   3.710  18.711  0.00  0.00    +0.000 C 
ATOM      3  C   UNL     1       1.100   2.823  19.353  0.00  0.00    +0.000 C 
ATOM      4  C   UNL     1       1.530   2.282  20.712  0.00  0.00    +0.000 C 
ATOM      5  C   UNL     1       1.934   3.429  21.634  0.00  0.00    +0.000 C 
ATOM      6  C   UNL     1       2.985   4.330  20.996  0.00  0.00    +0.000 C 
ATOM      7  N   UNL     1       2.590   4.762  19.655  0.00  0.00    +0.000 N 
ATOM      8  C   UNL     1       2.362   6.094  19.380  0.00  0.00    +0.000 A 
ATOM      9  N   UNL     1       1.790   6.924  20.204  0.00  0.00    +0.000 NA
ATOM     10  C   UNL     1       1.609   8.233  19.790  0.00  0.00    +0.000 A 
ATOM     11  C   UNL     1       2.058   8.708  18.614  0.00  0.00    +0.000 A 
ATOM     12  C   UNL     1       2.749   7.786  17.718  0.00  0.00    +0.000 A 
ATOM     13  O   UNL     1       3.232   8.134  16.645  0.00  0.00    +0.000 OA
ATOM     14  N   UNL     1       2.812   6.503  18.157  0.00  0.00    +0.000 N 
ATOM     15  C   UNL     1       1.858  10.113  18.157  0.00  0.00    +0.000 C 
ATOM     16  C   UNL     1       0.789  10.837  18.973  0.00  0.00    +0.000 C 
ATOM     17  N   UNL     1       0.988  10.616  20.414  0.00  0.00    +0.000 NA
ATOM     18  C   UNL     1       0.850   9.170  20.732  0.00  0.00    +0.000 C 
ATOM     19  H   UNL     1       3.337   5.861  17.588  0.00  0.00    +0.000 HD
ENDROOT
BRANCH  17  20
ATOM     20  C   UNL     1       0.034  11.421  21.211  0.00  0.00    +0.000 C 
BRANCH  20  21
ATOM     21  C   UNL     1       0.070  12.898  20.854  0.00  0.00    +0.000 A 
ATOM     22  C   UNL     1      -1.114  13.546  20.457  0.00  0.00    +0.000 A 
ATOM     23  C   UNL     1      -1.139  14.927  20.253  0.00  0.00    +0.000 A 
ATOM     24  C   UNL     1       0.019  15.681  20.429  0.00  0.00    +0.000 A 
ATOM     25  C   UNL     1       1.209  15.053  20.795  0.00  0.00    +0.000 A 
ATOM     26  C   UNL     1       1.229  13.672  21.007  0.00  0.00    +0.000 A 
BRANCH  26  27
ATOM     27  O   UNL     1       2.387  13.068  21.411  0.00  0.00    +0.000 OA
ATOM     28  H   UNL     1       3.093  13.305  20.787  0.00  0.00    +0.000 HD
ENDBRANCH  26  27
ENDBRANCH  20  21
ENDBRANCH  17  20
TORSDOF 3
ENDMDL
MODEL 4
REMARK VINA RESULT:      -7.3      2.148      8.582
REMARK  Name = 
REMARK  4 active torsions:
REMARK  status: ('A' for Active; 'I' for Inactive)
REMARK    1  A    between atoms: C_1  and  C_2
REMARK    2  A    between atoms: N_17  and  C_18
REMARK    3  A    between atoms: C_18  and  C_19
REMARK    4  A    between atoms: C_24  and  O_25
REMARK                            x       y       z     vdW  Elec       q    Type
REMARK                         _______ _______ _______ _____ _____    ______ ____
ROOT
ATOM      1  C   UNL     1      -0.669  14.483  20.012  0.00  0.00    +0.000 C 
ATOM      2  C   UNL     1       0.072  13.449  20.860  0.00  0.00    +0.000 C 
ATOM      3  C   UNL     1       0.125  13.826  22.345  0.00  0.00    +0.000 C 
ATOM      4  C   UNL     1      -1.230  13.681  23.029  0.00  0.00    +0.000 C 
ATOM      5  C   UNL     1      -1.776  12.271  22.828  0.00  0.00    +0.000 C 
ATOM      6  C   UNL     1      -1.811  11.879  21.355  0.00  0.00    +0.000 C 
ATOM      7  N   UNL     1      -0.524  12.113  20.698  0.00  0.00    +0.000 N 
ATOM      8  C   UNL     1       0.210  11.063  20.189  0.00  0.00    +0.000 A 
ATOM      9  N   UNL     1       0.307   9.895  20.755  0.00  0.00    +0.000 NA
ATOM     10  C   UNL     1       1.095   8.936  20.140  0.00  0.00    +0.000 A 
ATOM     11  C   UNL     1       1.704   9.124  18.955  0.00  0.00    +0.000 A 
ATOM     12  C   UNL     1       1.545  10.418  18.297  0.00  0.00    +0.000 A 
ATOM     13  O   UNL     1       2.024  10.670  17.197  0.00  0.00    +0.000 OA
ATOM     14  N   UNL     1       0.830  11.331  19.001  0.00  0.00    +0.000 N 
ATOM     15  C   UNL     1       2.561   8.100  18.292  0.00  0.00    +0.000 C 
ATOM     16  C   UNL     1       2.975   6.986  19.252  0.00  0.00    +0.000 C 
ATOM     17  N   UNL     1       1.819   6.504  20.026  0.00  0.00    +0.000 NA
ATOM     18  C   UNL     1       1.275   7.602  20.868  0.00  0.00    +0.000 C 
ATOM     19  H   UNL     1       0.653  12.209  18.544  0.00  0.00    +0.000 HD
ENDROOT
BRANCH  17  20
ATOM     20  C   UNL     1       2.190   5.338  20.861  0.00  0.00    +0.000 C 
BRANCH  20  21
ATOM     21  C   UNL     1       2.100   4.021  20.106  0.00  0.00    +0.000 A 
ATOM     22  C   UNL     1       0.839   3.461  19.835  0.00  0.00    +0.000 A 
ATOM     23  C   UNL     1       0.720   2.326  19.029  0.00  0.00    +0.000 A 
ATOM     24  C   UNL     1       1.857   1.725  18.496  0.00  0.00    +0.000 A 
ATOM     25  C   UNL     1       3.118   2.248  18.777  0.00  0.00    +0.000 A 
ATOM     26  C   UNL     1       3.234   3.390  19.575  0.00  0.00    +0.000 A 
BRANCH  26  27
ATOM     27  O   UNL     1       4.469   3.927  19.810  0.00  0.00    +0.000 OA
ATOM     28  H   UNL     1       4.393   4.895  19.794  0.00  0.00    +0.000 HD
ENDBRANCH  26  27
ENDBRANCH  20  21
ENDBRANCH  17  20
TORSDOF 3
ENDMDL
MODEL 5
REMARK VINA RESULT:      -7.3      3.077      8.710
REMARK  Name = 
REMARK  4 active torsions:
REMARK  status: ('A' for Active; 'I' for Inactive)
REMARK    1  A    between atoms: C_1  and  C_2
REMARK    2  A    between atoms: N_17  and  C_18
REMARK    3  A    between atoms: C_18  and  C_19
REMARK    4  A    between atoms: C_24  and  O_25
REMARK                            x       y       z     vdW  Elec       q    Type
REMARK                         _______ _______ _______ _____ _____    ______ ____
ROOT
ATOM      1  C   UNL     1      -1.596  13.001  21.129  0.00  0.00    +0.000 C 
ATOM      2  C   UNL     1      -1.182  12.139  19.936  0.00  0.00    +0.000 C 
ATOM      3  C   UNL     1      -1.408  12.839  18.590  0.00  0.00    +0.000 C 
ATOM      4  C   UNL     1      -0.414  13.969  18.349  0.00  0.00    +0.000 C 
ATOM      5  C   UNL     1       1.016  13.453  18.479  0.00  0.00    +0.000 C 
ATOM      6  C   UNL     1       1.245  12.736  19.805  0.00  0.00    +0.000 C 
ATOM      7  N   UNL     1       0.224  11.718  20.056  0.00  0.00    +0.000 N 
ATOM      8  C   UNL     1       0.562  10.382  20.133  0.00  0.00    +0.000 A 
ATOM      9  N   UNL     1       1.458   9.810  19.384  0.00  0.00    +0.000 NA
ATOM     10  C   UNL     1       1.685   8.455  19.557  0.00  0.00    +0.000 A 
ATOM     11  C   UNL     1       1.081   7.718  20.507  0.00  0.00    +0.000 A 
ATOM     12  C   UNL     1       0.118   8.379  21.383  0.00  0.00    +0.000 A 
ATOM     13  O   UNL     1      -0.451   7.803  22.304  0.00  0.00    +0.000 OA
ATOM     14  N   UNL     1      -0.112   9.685  21.096  0.00  0.00    +0.000 N 
ATOM     15  C   UNL     1       1.312   6.257  20.694  0.00  0.00    +0.000 C 
ATOM     16  C   UNL     1       1.999   5.623  19.485  0.00  0.00    +0.000 C 
ATOM     17  N   UNL     1       3.141   6.438  19.043  0.00  0.00    +0.000 NA
ATOM     18  C   UNL     1       2.672   7.779  18.603  0.00  0.00    +0.000 C 
ATOM     19  H   UNL     1      -0.724  10.180  21.721  0.00  0.00    +0.000 HD
ENDROOT
BRANCH  17  20
ATOM     20  C   UNL     1       3.886   5.762  17.956  0.00  0.00    +0.000 C 
BRANCH  20  21
ATOM     21  C   UNL     1       5.384   6.009  18.027  0.00  0.00    +0.000 A 
ATOM     22  C   UNL     1       5.959   7.022  17.240  0.00  0.00    +0.000 A 
ATOM     23  C   UNL     1       7.307   7.361  17.383  0.00  0.00    +0.000 A 
ATOM     24  C   UNL     1       8.103   6.684  18.304  0.00  0.00    +0.000 A 
ATOM     25  C   UNL     1       7.559   5.657  19.073  0.00  0.00    +0.000 A 
ATOM     26  C   UNL     1       6.208   5.327  18.934  0.00  0.00    +0.000 A 
BRANCH  26  27
ATOM     27  O   UNL     1       5.667   4.350  19.724  0.00  0.00    +0.000 OA
ATOM     28  H   UNL     1       4.728   4.255  19.497  0.00  0.00    +0.000 HD
ENDBRANCH  26  27
ENDBRANCH  20  21
ENDBRANCH  17  20
TORSDOF 3
ENDMDL
MODEL 6
REMARK VINA RESULT:      -7.2      2.133      2.374
REMARK  Name = 
REMARK  4 active torsions:
REMARK  status: ('A' for Active; 'I' for Inactive)
REMARK    1  A    between atoms: C_1  and  C_2
REMARK    2  A    between atoms: N_17  and  C_18
REMARK    3  A    between atoms: C_18  and  C_19
REMARK    4  A    between atoms: C_24  and  O_25
REMARK                            x       y       z     vdW  Elec       q    Type
REMARK                         _______ _______ _______ _____ _____    ______ ____
ROOT
ATOM      1  C   UNL     1       3.522   2.831  18.319  0.00  0.00    +0.000 C 
ATOM      2  C   UNL     1       2.279   3.639  18.694  0.00  0.00    +0.000 C 
ATOM      3  C   UNL     1       1.153   2.767  19.262  0.00  0.00    +0.000 C 
ATOM      4  C   UNL     1       1.465   2.256  20.664  0.00  0.00    +0.000 C 
ATOM      5  C   UNL     1       1.794   3.422  21.592  0.00  0.00    +0.000 C 
ATOM      6  C   UNL     1       2.897   4.307  21.025  0.00  0.00    +0.000 C 
ATOM      7  N   UNL     1       2.617   4.710  19.645  0.00  0.00    +0.000 N 
ATOM      8  C   UNL     1       2.416   6.037  19.324  0.00  0.00    +0.000 A 
ATOM      9  N   UNL     1       1.780   6.884  20.078  0.00  0.00    +0.000 NA
ATOM     10  C   UNL     1       1.638   8.184  19.622  0.00  0.00    +0.000 A 
ATOM     11  C   UNL     1       2.185   8.633  18.478  0.00  0.00    +0.000 A 
ATOM     12  C   UNL     1       2.946   7.691  17.663  0.00  0.00    +0.000 A 
ATOM     13  O   UNL     1       3.518   8.014  16.627  0.00  0.00    +0.000 OA
ATOM     14  N   UNL     1       2.969   6.418  18.134  0.00  0.00    +0.000 N 
ATOM     15  C   UNL     1       2.028  10.028  17.975  0.00  0.00    +0.000 C 
ATOM     16  C   UNL     1       0.896  10.771  18.682  0.00  0.00    +0.000 C 
ATOM     17  N   UNL     1       0.973  10.581  20.140  0.00  0.00    +0.000 NA
ATOM     18  C   UNL     1       0.804   9.143  20.476  0.00  0.00    +0.000 C 
ATOM     19  H   UNL     1       3.537   5.763  17.626  0.00  0.00    +0.000 HD
ENDROOT
BRANCH  17  20
ATOM     20  C   UNL     1      -0.043  11.404  20.836  0.00  0.00    +0.000 C 
BRANCH  20  21
ATOM     21  C   UNL     1       0.136  12.893  20.587  0.00  0.00    +0.000 A 
ATOM     22  C   UNL     1       1.271  13.551  21.092  0.00  0.00    +0.000 A 
ATOM     23  C   UNL     1       1.530  14.885  20.767  0.00  0.00    +0.000 A 
ATOM     24  C   UNL     1       0.651  15.585  19.944  0.00  0.00    +0.000 A 
ATOM     25  C   UNL     1      -0.495  14.959  19.456  0.00  0.00    +0.000 A 
ATOM     26  C   UNL     1      -0.745  13.622  19.775  0.00  0.00    +0.000 A 
BRANCH  26  27
ATOM     27  O   UNL     1      -1.846  12.999  19.257  0.00  0.00    +0.000 OA
ATOM     28  H   UNL     1      -2.190  12.377  19.919  0.00  0.00    +0.000 HD
ENDBRANCH  26  27
ENDBRANCH  20  21
ENDBRANCH  17  20
TORSDOF 3
ENDMDL
MODEL 7
REMARK VINA RESULT:      -7.1      2.981      4.470
REMARK  Name = 
REMARK  4 active torsions:
REMARK  status: ('A' for Active; 'I' for Inactive)
REMARK    1  A    between atoms: C_1  and  C_2
REMARK    2  A    between atoms: N_17  and  C_18
REMARK    3  A    between atoms: C_18  and  C_19
REMARK    4  A    between atoms: C_24  and  O_25
REMARK                            x       y       z     vdW  Elec       q    Type
REMARK                         _______ _______ _______ _____ _____    ______ ____
ROOT
ATOM      1  C   UNL     1       6.038   3.975  18.480  0.00  0.00    +0.000 C 
ATOM      2  C   UNL     1       5.836   5.487  18.574  0.00  0.00    +0.000 C 
ATOM      3  C   UNL     1       7.018   6.281  18.005  0.00  0.00    +0.000 C 
ATOM      4  C   UNL     1       7.091   6.204  16.484  0.00  0.00    +0.000 C 
ATOM      5  C   UNL     1       5.769   6.648  15.867  0.00  0.00    +0.000 C 
ATOM      6  C   UNL     1       4.585   5.880  16.443  0.00  0.00    +0.000 C 
ATOM      7  N   UNL     1       4.587   5.892  17.906  0.00  0.00    +0.000 N 
ATOM      8  C   UNL     1       3.571   6.506  18.609  0.00  0.00    +0.000 A 
ATOM      9  N   UNL     1       2.995   7.614  18.245  0.00  0.00    +0.000 NA
ATOM     10  C   UNL     1       1.998   8.128  19.057  0.00  0.00    +0.000 A 
ATOM     11  C   UNL     1       1.545   7.505  20.160  0.00  0.00    +0.000 A 
ATOM     12  C   UNL     1       2.157   6.233  20.533  0.00  0.00    +0.000 A 
ATOM     13  O   UNL     1       1.784   5.569  21.494  0.00  0.00    +0.000 OA
ATOM     14  N   UNL     1       3.182   5.838  19.736  0.00  0.00    +0.000 N 
ATOM     15  C   UNL     1       0.479   8.056  21.046  0.00  0.00    +0.000 C 
ATOM     16  C   UNL     1       0.228   9.541  20.788  0.00  0.00    +0.000 C 
ATOM     17  N   UNL     1       0.119   9.813  19.346  0.00  0.00    +0.000 NA
ATOM     18  C   UNL     1       1.398   9.480  18.665  0.00  0.00    +0.000 C 
ATOM     19  H   UNL     1       3.580   4.936  19.933  0.00  0.00    +0.000 HD
ENDROOT
BRANCH  17  20
ATOM     20  C   UNL     1      -0.254  11.225  19.099  0.00  0.00    +0.000 C 
BRANCH  20  21
ATOM     21  C   UNL     1      -1.747  11.410  18.884  0.00  0.00    +0.000 A 
ATOM     22  C   UNL     1      -2.498  12.141  19.822  0.00  0.00    +0.000 A 
ATOM     23  C   UNL     1      -3.842  12.441  19.585  0.00  0.00    +0.000 A 
ATOM     24  C   UNL     1      -4.459  12.004  18.415  0.00  0.00    +0.000 A 
ATOM     25  C   UNL     1      -3.739  11.254  17.486  0.00  0.00    +0.000 A 
ATOM     26  C   UNL     1      -2.393  10.964  17.723  0.00  0.00    +0.000 A 
BRANCH  26  27
ATOM     27  O   UNL     1      -1.678  10.268  16.788  0.00  0.00    +0.000 OA
ATOM     28  H   UNL     1      -0.854  10.748  16.608  0.00  0.00    +0.000 HD
ENDBRANCH  26  27
ENDBRANCH  20  21
ENDBRANCH  17  20
TORSDOF 3
ENDMDL
MODEL 8
REMARK VINA RESULT:      -7.1      2.198      8.596
REMARK  Name = 
REMARK  4 active torsions:
REMARK  status: ('A' for Active; 'I' for Inactive)
REMARK    1  A    between atoms: C_1  and  C_2
REMARK    2  A    between atoms: N_17  and  C_18
REMARK    3  A    between atoms: C_18  and  C_19
REMARK    4  A    between atoms: C_24  and  O_25
REMARK                            x       y       z     vdW  Elec       q    Type
REMARK                         _______ _______ _______ _____ _____    ______ ____
ROOT
ATOM      1  C   UNL     1      -0.517  14.120  19.897  0.00  0.00    +0.000 C 
ATOM      2  C   UNL     1       0.192  13.073  20.756  0.00  0.00    +0.000 C 
ATOM      3  C   UNL     1       0.193  13.430  22.248  0.00  0.00    +0.000 C 
ATOM      4  C   UNL     1      -1.185  13.280  22.882  0.00  0.00    +0.000 C 
ATOM      5  C   UNL     1      -1.728  11.874  22.643  0.00  0.00    +0.000 C 
ATOM      6  C   UNL     1      -1.712  11.502  21.165  0.00  0.00    +0.000 C 
ATOM      7  N   UNL     1      -0.403  11.740  20.557  0.00  0.00    +0.000 N 
ATOM      8  C   UNL     1       0.347  10.694  20.060  0.00  0.00    +0.000 A 
ATOM      9  N   UNL     1       0.421   9.520  20.613  0.00  0.00    +0.000 NA
ATOM     10  C   UNL     1       1.227   8.566  20.014  0.00  0.00    +0.000 A 
ATOM     11  C   UNL     1       1.877   8.767  18.853  0.00  0.00    +0.000 A 
ATOM     12  C   UNL     1       1.745  10.070  18.207  0.00  0.00    +0.000 A 
ATOM     13  O   UNL     1       2.262  10.335  17.128  0.00  0.00    +0.000 OA
ATOM     14  N   UNL     1       1.008  10.977  18.898  0.00  0.00    +0.000 N 
ATOM     15  C   UNL     1       2.754   7.750  18.207  0.00  0.00    +0.000 C 
ATOM     16  C   UNL     1       3.132   6.622  19.166  0.00  0.00    +0.000 C 
ATOM     17  N   UNL     1       1.949   6.133  19.893  0.00  0.00    +0.000 NA
ATOM     18  C   UNL     1       1.378   7.222  20.730  0.00  0.00    +0.000 C 
ATOM     19  H   UNL     1       0.849  11.861  18.446  0.00  0.00    +0.000 HD
ENDROOT
BRANCH  17  20
ATOM     20  C   UNL     1       2.287   4.956  20.725  0.00  0.00    +0.000 C 
BRANCH  20  21
ATOM     21  C   UNL     1       2.777   3.775  19.902  0.00  0.00    +0.000 A 
ATOM     22  C   UNL     1       3.961   3.113  20.274  0.00  0.00    +0.000 A 
ATOM     23  C   UNL     1       4.363   1.946  19.619  0.00  0.00    +0.000 A 
ATOM     24  C   UNL     1       3.598   1.432  18.575  0.00  0.00    +0.000 A 
ATOM     25  C   UNL     1       2.437   2.090  18.173  0.00  0.00    +0.000 A 
ATOM     26  C   UNL     1       2.032   3.251  18.836  0.00  0.00    +0.000 A 
BRANCH  26  27
ATOM     27  O   UNL     1       0.868   3.868  18.469  0.00  0.00    +0.000 OA
ATOM     28  H   UNL     1       0.933   4.810  18.693  0.00  0.00    +0.000 HD
ENDBRANCH  26  27
ENDBRANCH  20  21
ENDBRANCH  17  20
TORSDOF 3
ENDMDL
MODEL 9
REMARK VINA RESULT:      -7.0      2.102      8.672
REMARK  Name = 
REMARK  4 active torsions:
REMARK  status: ('A' for Active; 'I' for Inactive)
REMARK    1  A    between atoms: C_1  and  C_2
REMARK    2  A    between atoms: N_17  and  C_18
REMARK    3  A    between atoms: C_18  and  C_19
REMARK    4  A    between atoms: C_24  and  O_25
REMARK                            x       y       z     vdW  Elec       q    Type
REMARK                         _______ _______ _______ _____ _____    ______ ____
ROOT
ATOM      1  C   UNL     1      -4.060  15.073  21.183  0.00  0.00    +0.000 C 
ATOM      2  C   UNL     1      -2.686  14.510  21.545  0.00  0.00    +0.000 C 
ATOM      3  C   UNL     1      -2.122  15.105  22.841  0.00  0.00    +0.000 C 
ATOM      4  C   UNL     1      -2.855  14.599  24.079  0.00  0.00    +0.000 C 
ATOM      5  C   UNL     1      -2.847  13.073  24.112  0.00  0.00    +0.000 C 
ATOM      6  C   UNL     1      -3.385  12.473  22.818  0.00  0.00    +0.000 C 
ATOM      7  N   UNL     1      -2.728  13.041  21.640  0.00  0.00    +0.000 N 
ATOM      8  C   UNL     1      -1.960  12.252  20.809  0.00  0.00    +0.000 A 
ATOM      9  N   UNL     1      -1.182  11.295  21.223  0.00  0.00    +0.000 NA
ATOM     10  C   UNL     1      -0.453  10.593  20.278  0.00  0.00    +0.000 A 
ATOM     11  C   UNL     1      -0.563  10.798  18.953  0.00  0.00    +0.000 A 
ATOM     12  C   UNL     1      -1.482  11.836  18.492  0.00  0.00    +0.000 A 
ATOM     13  O   UNL     1      -1.684  12.068  17.304  0.00  0.00    +0.000 OA
ATOM     14  N   UNL     1      -2.094  12.536  19.479  0.00  0.00    +0.000 N 
ATOM     15  C   UNL     1       0.224  10.054  17.930  0.00  0.00    +0.000 C 
ATOM     16  C   UNL     1       1.415   9.318  18.543  0.00  0.00    +0.000 C 
ATOM     17  N   UNL     1       1.012   8.585  19.754  0.00  0.00    +0.000 NA
ATOM     18  C   UNL     1       0.529   9.536  20.789  0.00  0.00    +0.000 C 
ATOM     19  H   UNL     1      -2.778  13.213  19.190  0.00  0.00    +0.000 HD
ENDROOT
BRANCH  17  20
ATOM     20  C   UNL     1       2.132   7.768  20.276  0.00  0.00    +0.000 C 
BRANCH  20  21
ATOM     21  C   UNL     1       2.027   6.304  19.878  0.00  0.00    +0.000 A 
ATOM     22  C   UNL     1       1.304   5.414  20.692  0.00  0.00    +0.000 A 
ATOM     23  C   UNL     1       1.078   4.096  20.285  0.00  0.00    +0.000 A 
ATOM     24  C   UNL     1       1.582   3.645  19.067  0.00  0.00    +0.000 A 
ATOM     25  C   UNL     1       2.326   4.505  18.260  0.00  0.00    +0.000 A 
ATOM     26  C   UNL     1       2.542   5.824  18.665  0.00  0.00    +0.000 A 
BRANCH  26  27
ATOM     27  O   UNL     1       3.233   6.676  17.849  0.00  0.00    +0.000 OA
ATOM     28  H   UNL     1       3.660   7.353  18.400  0.00  0.00    +0.000 HD
ENDBRANCH  26  27
ENDBRANCH  20  21
ENDBRANCH  17  20
TORSDOF 3
ENDMDL
