MODEL 1
REMARK VINA RESULT:      -7.0      0.000      0.000
REMARK  Name = 
REMARK  8 active torsions:
REMARK  status: ('A' for Active; 'I' for Inactive)
REMARK    1  A    between atoms: C_1  and  C_2
REMARK    2  A    between atoms: C_2  and  N_3
REMARK    3  A    between atoms: C_2  and  C_13
REMARK    4  A    between atoms: C_8  and  N_9
REMARK    5  A    between atoms: C_13  and  O_14
REMARK    6  A    between atoms: C_13  and  C_15
REMARK    7  A    between atoms: C_13  and  C_21
REMARK    8  A    between atoms: C_15  and  N_16
REMARK                            x       y       z     vdW  Elec       q    Type
REMARK                         _______ _______ _______ _____ _____    ______ ____
ROOT
ATOM      1  C   UNL     1       6.003   4.912  16.269  0.00  0.00    +0.000 C 
ENDROOT
BRANCH   1   2
ATOM      2  C   UNL     1       6.681   6.027  17.114  0.00  0.00    +0.000 A 
ATOM      3  C   UNL     1       6.643   7.393  16.779  0.00  0.00    +0.000 A 
ATOM      4  C   UNL     1       7.405   8.343  17.474  0.00  0.00    +0.000 A 
ATOM      5  C   UNL     1       8.224   7.944  18.517  0.00  0.00    +0.000 A 
ATOM      6  F   UNL     1       8.995   8.845  19.140  0.00  0.00    +0.000 F 
ATOM      7  C   UNL     1       8.209   6.635  18.949  0.00  0.00    +0.000 A 
ATOM      8  C   UNL     1       7.390   5.723  18.292  0.00  0.00    +0.000 A 
ATOM      9  F   UNL     1       7.237   4.530  18.875  0.00  0.00    +0.000 F 
ENDBRANCH   1   2
BRANCH   1  11
ATOM     10  C   UNL     1       4.436   2.771  16.294  0.00  0.00    +0.000 C 
ATOM     11  C   UNL     1       5.092   3.900  17.111  0.00  0.00    +0.000 C 
BRANCH  11  12
ATOM     12  N   UNL     1       4.070   4.500  17.974  0.00  0.00    +0.000 N 
ATOM     13  N   UNL     1       3.486   5.674  17.631  0.00  0.00    +0.000 NA
ATOM     14  C   UNL     1       2.590   5.874  18.598  0.00  0.00    +0.000 A 
ATOM     15  C   UNL     1       2.541   4.819  19.527  0.00  0.00    +0.000 A 
ATOM     16  C   UNL     1       1.764   4.501  20.662  0.00  0.00    +0.000 A 
ATOM     17  C   UNL     1       1.985   3.301  21.342  0.00  0.00    +0.000 A 
ATOM     18  C   UNL     1       2.950   2.408  20.865  0.00  0.00    +0.000 A 
ATOM     19  C   UNL     1       3.756   2.708  19.764  0.00  0.00    +0.000 A 
ATOM     20  C   UNL     1       3.511   3.920  19.099  0.00  0.00    +0.000 A 
BRANCH  17  21
ATOM     21  N   UNL     1       1.082   2.881  22.325  0.00  0.00    +0.000 N 
ATOM     22  H   UNL     1       0.927   1.878  22.347  0.00  0.00    +0.000 HD
ATOM     23  H   UNL     1       0.216   3.407  22.352  0.00  0.00    +0.000 HD
ENDBRANCH  17  21
ENDBRANCH  11  12
ENDBRANCH   1  11
BRANCH   1  24
ATOM     24  O   UNL     1       5.201   5.551  15.244  0.00  0.00    +0.000 OA
ATOM     25  H   UNL     1       5.515   5.275  14.365  0.00  0.00    +0.000 HD
ENDBRANCH   1  24
BRANCH   1  26
ATOM     26  C   UNL     1       7.021   4.087  15.396  0.00  0.00    +0.000 C 
BRANCH  26  27
ATOM     27  N   UNL     1       7.220   4.444  14.011  0.00  0.00    +0.000 N 
ATOM     28  C   UNL     1       6.718   3.805  12.916  0.00  0.00    +0.000 A 
ATOM     29  N   UNL     1       7.075   4.446  11.827  0.00  0.00    +0.000 NA
ATOM     30  C   UNL     1       7.833   5.471  12.310  0.00  0.00    +0.000 A 
ATOM     31  N   UNL     1       7.951   5.506  13.636  0.00  0.00    +0.000 NA
ENDBRANCH  26  27
ENDBRANCH   1  26
TORSDOF 7
ENDMDL
MODEL 2
REMARK VINA RESULT:      -6.9      3.129      7.122
REMARK  Name = 
REMARK  8 active torsions:
REMARK  status: ('A' for Active; 'I' for Inactive)
REMARK    1  A    between atoms: C_1  and  C_2
REMARK    2  A    between atoms: C_2  and  N_3
REMARK    3  A    between atoms: C_2  and  C_13
REMARK    4  A    between atoms: C_8  and  N_9
REMARK    5  A    between atoms: C_13  and  O_14
REMARK    6  A    between atoms: C_13  and  C_15
REMARK    7  A    between atoms: C_13  and  C_21
REMARK    8  A    between atoms: C_15  and  N_16
REMARK                            x       y       z     vdW  Elec       q    Type
REMARK                         _______ _______ _______ _____ _____    ______ ____
ROOT
ATOM      1  C   UNL     1       2.184   6.256  19.627  0.00  0.00    +0.000 C 
ENDROOT
BRANCH   1   2
ATOM      2  C   UNL     1       1.809   7.765  19.633  0.00  0.00    +0.000 A 
ATOM      3  C   UNL     1       1.286   8.435  20.754  0.00  0.00    +0.000 A 
ATOM      4  C   UNL     1       0.807   9.750  20.668  0.00  0.00    +0.000 A 
ATOM      5  C   UNL     1       0.839  10.421  19.457  0.00  0.00    +0.000 A 
ATOM      6  F   UNL     1       0.327  11.655  19.366  0.00  0.00    +0.000 F 
ATOM      7  C   UNL     1       1.442   9.843  18.361  0.00  0.00    +0.000 A 
ATOM      8  C   UNL     1       1.977   8.565  18.487  0.00  0.00    +0.000 A 
ATOM      9  F   UNL     1       2.741   8.135  17.478  0.00  0.00    +0.000 F 
ENDBRANCH   1   2
BRANCH   1  11
ATOM     10  C   UNL     1       1.412   4.727  17.601  0.00  0.00    +0.000 C 
ATOM     11  C   UNL     1       2.498   5.653  18.177  0.00  0.00    +0.000 C 
BRANCH  11  12
ATOM     12  N   UNL     1       3.801   5.003  18.006  0.00  0.00    +0.000 N 
ATOM     13  N   UNL     1       4.138   3.933  18.767  0.00  0.00    +0.000 NA
ATOM     14  C   UNL     1       5.338   3.583  18.301  0.00  0.00    +0.000 A 
ATOM     15  C   UNL     1       5.754   4.368  17.211  0.00  0.00    +0.000 A 
ATOM     16  C   UNL     1       6.862   4.383  16.336  0.00  0.00    +0.000 A 
ATOM     17  C   UNL     1       6.922   5.326  15.307  0.00  0.00    +0.000 A 
ATOM     18  C   UNL     1       5.860   6.219  15.130  0.00  0.00    +0.000 A 
ATOM     19  C   UNL     1       4.765   6.248  15.996  0.00  0.00    +0.000 A 
ATOM     20  C   UNL     1       4.731   5.289  17.021  0.00  0.00    +0.000 A 
BRANCH  17  21
ATOM     21  N   UNL     1       7.898   5.210  14.312  0.00  0.00    +0.000 N 
ATOM     22  H   UNL     1       8.838   5.438  14.621  0.00  0.00    +0.000 HD
ATOM     23  H   UNL     1       7.660   5.660  13.435  0.00  0.00    +0.000 HD
ENDBRANCH  17  21
ENDBRANCH  11  12
ENDBRANCH   1  11
BRANCH   1  24
ATOM     24  O   UNL     1       3.335   6.076  20.489  0.00  0.00    +0.000 OA
ATOM     25  H   UNL     1       3.995   5.519  20.039  0.00  0.00    +0.000 HD
ENDBRANCH   1  24
BRANCH   1  26
ATOM     26  C   UNL     1       1.115   5.347  20.343  0.00  0.00    +0.000 C 
BRANCH  26  27
ATOM     27  N   UNL     1       1.498   4.032  20.803  0.00  0.00    +0.000 N 
ATOM     28  C   UNL     1       1.115   2.833  20.279  0.00  0.00    +0.000 A 
ATOM     29  N   UNL     1       1.700   1.857  20.934  0.00  0.00    +0.000 NA
ATOM     30  C   UNL     1       2.419   2.516  21.888  0.00  0.00    +0.000 A 
ATOM     31  N   UNL     1       2.322   3.844  21.846  0.00  0.00    +0.000 NA
ENDBRANCH  26  27
ENDBRANCH   1  26
TORSDOF 7
ENDMDL
MODEL 3
REMARK VINA RESULT:      -6.8      3.219      7.092
REMARK  Name = 
REMARK  8 active torsions:
REMARK  status: ('A' for Active; 'I' for Inactive)
REMARK    1  A    between atoms: C_1  and  C_2
REMARK    2  A    between atoms: C_2  and  N_3
REMARK    3  A    between atoms: C_2  and  C_13
REMARK    4  A    between atoms: C_8  and  N_9
REMARK    5  A    between atoms: C_13  and  O_14
REMARK    6  A    between atoms: C_13  and  C_15
REMARK    7  A    between atoms: C_13  and  C_21
REMARK    8  A    between atoms: C_15  and  N_16
REMARK                            x       y       z     vdW  Elec       q    Type
REMARK                         _______ _______ _______ _____ _____    ______ ____
ROOT
ATOM      1  C   UNL     1       2.126   6.382  19.432  0.00  0.00    +0.000 C 
ENDROOT
BRANCH   1   2
ATOM      2  C   UNL     1       1.709   7.871  19.270  0.00  0.00    +0.000 A 
ATOM      3  C   UNL     1       1.798   8.580  18.058  0.00  0.00    +0.000 A 
ATOM      4  C   UNL     1       1.570   9.962  17.995  0.00  0.00    +0.000 A 
ATOM      5  C   UNL     1       1.251  10.664  19.145  0.00  0.00    +0.000 A 
ATOM      6  F   UNL     1       1.092  11.993  19.090  0.00  0.00    +0.000 F 
ATOM      7  C   UNL     1       1.046   9.994  20.331  0.00  0.00    +0.000 A 
ATOM      8  C   UNL     1       1.206   8.612  20.356  0.00  0.00    +0.000 A 
ATOM      9  F   UNL     1       0.786   7.982  21.458  0.00  0.00    +0.000 F 
ENDBRANCH   1   2
BRANCH   1  11
ATOM     10  C   UNL     1       1.426   4.596  17.599  0.00  0.00    +0.000 C 
ATOM     11  C   UNL     1       2.467   5.633  18.058  0.00  0.00    +0.000 C 
BRANCH  11  12
ATOM     12  N   UNL     1       3.799   5.030  17.953  0.00  0.00    +0.000 N 
ATOM     13  N   UNL     1       4.164   4.026  18.787  0.00  0.00    +0.000 NA
ATOM     14  C   UNL     1       5.387   3.699  18.367  0.00  0.00    +0.000 A 
ATOM     15  C   UNL     1       5.794   4.431  17.237  0.00  0.00    +0.000 A 
ATOM     16  C   UNL     1       6.919   4.440  16.385  0.00  0.00    +0.000 A 
ATOM     17  C   UNL     1       6.962   5.318  15.299  0.00  0.00    +0.000 A 
ATOM     18  C   UNL     1       5.868   6.152  15.045  0.00  0.00    +0.000 A 
ATOM     19  C   UNL     1       4.754   6.187  15.887  0.00  0.00    +0.000 A 
ATOM     20  C   UNL     1       4.738   5.294  16.970  0.00  0.00    +0.000 A 
BRANCH  17  21
ATOM     21  N   UNL     1       7.964   5.182  14.332  0.00  0.00    +0.000 N 
ATOM     22  H   UNL     1       8.238   4.223  14.148  0.00  0.00    +0.000 HD
ATOM     23  H   UNL     1       8.762   5.794  14.464  0.00  0.00    +0.000 HD
ENDBRANCH  17  21
ENDBRANCH  11  12
ENDBRANCH   1  11
BRANCH   1  24
ATOM     24  O   UNL     1       3.277   6.331  20.312  0.00  0.00    +0.000 OA
ATOM     25  H   UNL     1       2.980   6.195  21.228  0.00  0.00    +0.000 HD
ENDBRANCH   1  24
BRANCH   1  26
ATOM     26  C   UNL     1       1.078   5.527  20.239  0.00  0.00    +0.000 C 
BRANCH  26  27
ATOM     27  N   UNL     1       1.462   4.229  20.744  0.00  0.00    +0.000 N 
ATOM     28  C   UNL     1       0.985   3.017  20.343  0.00  0.00    +0.000 A 
ATOM     29  N   UNL     1       1.602   2.060  20.998  0.00  0.00    +0.000 NA
ATOM     30  C   UNL     1       2.440   2.747  21.826  0.00  0.00    +0.000 A 
ATOM     31  N   UNL     1       2.385   4.073  21.707  0.00  0.00    +0.000 NA
ENDBRANCH  26  27
ENDBRANCH   1  26
TORSDOF 7
ENDMDL
MODEL 4
REMARK VINA RESULT:      -6.8      3.551      6.040
REMARK  Name = 
REMARK  8 active torsions:
REMARK  status: ('A' for Active; 'I' for Inactive)
REMARK    1  A    between atoms: C_1  and  C_2
REMARK    2  A    between atoms: C_2  and  N_3
REMARK    3  A    between atoms: C_2  and  C_13
REMARK    4  A    between atoms: C_8  and  N_9
REMARK    5  A    between atoms: C_13  and  O_14
REMARK    6  A    between atoms: C_13  and  C_15
REMARK    7  A    between atoms: C_13  and  C_21
REMARK    8  A    between atoms: C_15  and  N_16
REMARK                            x       y       z     vdW  Elec       q    Type
REMARK                         _______ _______ _______ _____ _____    ______ ____
ROOT
ATOM      1  C   UNL     1       3.502   5.527  18.516  0.00  0.00    +0.000 C 
ENDROOT
BRANCH   1   2
ATOM      2  C   UNL     1       2.730   4.513  19.406  0.00  0.00    +0.000 A 
ATOM      3  C   UNL     1       1.326   4.454  19.486  0.00  0.00    +0.000 A 
ATOM      4  C   UNL     1       0.676   3.639  20.424  0.00  0.00    +0.000 A 
ATOM      5  C   UNL     1       1.417   2.868  21.303  0.00  0.00    +0.000 A 
ATOM      6  F   UNL     1       0.793   2.137  22.235  0.00  0.00    +0.000 F 
ATOM      7  C   UNL     1       2.789   2.811  21.188  0.00  0.00    +0.000 A 
ATOM      8  C   UNL     1       3.410   3.572  20.202  0.00  0.00    +0.000 A 
ATOM      9  F   UNL     1       4.704   3.320  19.981  0.00  0.00    +0.000 F 
ENDBRANCH   1   2
BRANCH   1  11
ATOM     10  C   UNL     1       3.450   7.893  17.318  0.00  0.00    +0.000 C 
ATOM     11  C   UNL     1       2.686   6.859  18.164  0.00  0.00    +0.000 C 
BRANCH  11  12
ATOM     12  N   UNL     1       2.053   7.556  19.287  0.00  0.00    +0.000 N 
ATOM     13  N   UNL     1       2.330   7.192  20.563  0.00  0.00    +0.000 NA
ATOM     14  C   UNL     1       1.635   8.065  21.296  0.00  0.00    +0.000 A 
ATOM     15  C   UNL     1       0.965   9.024  20.517  0.00  0.00    +0.000 A 
ATOM     16  C   UNL     1       0.174  10.166  20.773  0.00  0.00    +0.000 A 
ATOM     17  C   UNL     1      -0.313  10.926  19.707  0.00  0.00    +0.000 A 
ATOM     18  C   UNL     1       0.025  10.570  18.397  0.00  0.00    +0.000 A 
ATOM     19  C   UNL     1       0.780   9.431  18.111  0.00  0.00    +0.000 A 
ATOM     20  C   UNL     1       1.256   8.685  19.202  0.00  0.00    +0.000 A 
BRANCH  17  21
ATOM     21  N   UNL     1      -0.907  12.169  19.952  0.00  0.00    +0.000 N 
ATOM     22  H   UNL     1      -0.971  12.414  20.935  0.00  0.00    +0.000 HD
ATOM     23  H   UNL     1      -1.778  12.324  19.458  0.00  0.00    +0.000 HD
ENDBRANCH  17  21
ENDBRANCH  11  12
ENDBRANCH   1  11
BRANCH   1  24
ATOM     24  O   UNL     1       4.732   5.876  19.197  0.00  0.00    +0.000 OA
ATOM     25  H   UNL     1       4.527   6.385  20.001  0.00  0.00    +0.000 HD
ENDBRANCH   1  24
BRANCH   1  26
ATOM     26  C   UNL     1       4.053   4.892  17.184  0.00  0.00    +0.000 C 
BRANCH  26  27
ATOM     27  N   UNL     1       5.464   4.977  16.890  0.00  0.00    +0.000 N 
ATOM     28  C   UNL     1       6.059   5.729  15.921  0.00  0.00    +0.000 A 
ATOM     29  N   UNL     1       7.362   5.584  15.985  0.00  0.00    +0.000 NA
ATOM     30  C   UNL     1       7.521   4.694  17.005  0.00  0.00    +0.000 A 
ATOM     31  N   UNL     1       6.389   4.295  17.584  0.00  0.00    +0.000 NA
ENDBRANCH  26  27
ENDBRANCH   1  26
TORSDOF 7
ENDMDL
MODEL 5
REMARK VINA RESULT:      -6.8      3.440      5.748
REMARK  Name = 
REMARK  8 active torsions:
REMARK  status: ('A' for Active; 'I' for Inactive)
REMARK    1  A    between atoms: C_1  and  C_2
REMARK    2  A    between atoms: C_2  and  N_3
REMARK    3  A    between atoms: C_2  and  C_13
REMARK    4  A    between atoms: C_8  and  N_9
REMARK    5  A    between atoms: C_13  and  O_14
REMARK    6  A    between atoms: C_13  and  C_15
REMARK    7  A    between atoms: C_13  and  C_21
REMARK    8  A    between atoms: C_15  and  N_16
REMARK                            x       y       z     vdW  Elec       q    Type
REMARK                         _______ _______ _______ _____ _____    ______ ____
ROOT
ATOM      1  C   UNL     1       2.732   4.807  18.557  0.00  0.00    +0.000 C 
ENDROOT
BRANCH   1   2
ATOM      2  C   UNL     1       4.095   4.810  17.811  0.00  0.00    +0.000 A 
ATOM      3  C   UNL     1       4.232   4.561  16.432  0.00  0.00    +0.000 A 
ATOM      4  C   UNL     1       5.490   4.408  15.833  0.00  0.00    +0.000 A 
ATOM      5  C   UNL     1       6.639   4.500  16.601  0.00  0.00    +0.000 A 
ATOM      6  F   UNL     1       7.835   4.295  16.036  0.00  0.00    +0.000 F 
ATOM      7  C   UNL     1       6.557   4.851  17.931  0.00  0.00    +0.000 A 
ATOM      8  C   UNL     1       5.301   5.069  18.490  0.00  0.00    +0.000 A 
ATOM      9  F   UNL     1       5.277   5.619  19.708  0.00  0.00    +0.000 F 
ENDBRANCH   1   2
BRANCH   1  11
ATOM     10  C   UNL     1       1.662   5.576  20.860  0.00  0.00    +0.000 C 
ATOM     11  C   UNL     1       2.587   5.936  19.683  0.00  0.00    +0.000 C 
BRANCH  11  12
ATOM     12  N   UNL     1       2.242   7.284  19.219  0.00  0.00    +0.000 N 
ATOM     13  N   UNL     1       2.444   7.635  17.926  0.00  0.00    +0.000 NA
ATOM     14  C   UNL     1       1.970   8.881  17.862  0.00  0.00    +0.000 A 
ATOM     15  C   UNL     1       1.410   9.317  19.075  0.00  0.00    +0.000 A 
ATOM     16  C   UNL     1       0.739  10.476  19.524  0.00  0.00    +0.000 A 
ATOM     17  C   UNL     1       0.276  10.544  20.841  0.00  0.00    +0.000 A 
ATOM     18  C   UNL     1       0.446   9.445  21.688  0.00  0.00    +0.000 A 
ATOM     19  C   UNL     1       1.131   8.297  21.282  0.00  0.00    +0.000 A 
ATOM     20  C   UNL     1       1.586   8.256  19.954  0.00  0.00    +0.000 A 
BRANCH  17  21
ATOM     21  N   UNL     1      -0.573  11.587  21.227  0.00  0.00    +0.000 N 
ATOM     22  H   UNL     1      -0.913  12.155  20.457  0.00  0.00    +0.000 HD
ATOM     23  H   UNL     1      -0.227  12.148  21.997  0.00  0.00    +0.000 HD
ENDBRANCH  17  21
ENDBRANCH  11  12
ENDBRANCH   1  11
BRANCH   1  24
ATOM     24  O   UNL     1       1.680   4.964  17.572  0.00  0.00    +0.000 OA
ATOM     25  H   UNL     1       0.875   5.298  18.005  0.00  0.00    +0.000 HD
ENDBRANCH   1  24
BRANCH   1  26
ATOM     26  C   UNL     1       2.367   3.407  19.181  0.00  0.00    +0.000 C 
BRANCH  26  27
ATOM     27  N   UNL     1       3.426   2.480  19.507  0.00  0.00    +0.000 N 
ATOM     28  C   UNL     1       4.222   2.496  20.613  0.00  0.00    +0.000 A 
ATOM     29  N   UNL     1       5.040   1.469  20.585  0.00  0.00    +0.000 NA
ATOM     30  C   UNL     1       4.724   0.858  19.408  0.00  0.00    +0.000 A 
ATOM     31  N   UNL     1       3.747   1.443  18.716  0.00  0.00    +0.000 NA
ENDBRANCH  26  27
ENDBRANCH   1  26
TORSDOF 7
ENDMDL
MODEL 6
REMARK VINA RESULT:      -6.7      0.927      1.710
REMARK  Name = 
REMARK  8 active torsions:
REMARK  status: ('A' for Active; 'I' for Inactive)
REMARK    1  A    between atoms: C_1  and  C_2
REMARK    2  A    between atoms: C_2  and  N_3
REMARK    3  A    between atoms: C_2  and  C_13
REMARK    4  A    between atoms: C_8  and  N_9
REMARK    5  A    between atoms: C_13  and  O_14
REMARK    6  A    between atoms: C_13  and  C_15
REMARK    7  A    between atoms: C_13  and  C_21
REMARK    8  A    between atoms: C_15  and  N_16
REMARK                            x       y       z     vdW  Elec       q    Type
REMARK                         _______ _______ _______ _____ _____    ______ ____
ROOT
ATOM      1  C   UNL     1       5.259   5.974  16.290  0.00  0.00    +0.000 C 
ENDROOT
BRANCH   1   2
ATOM      2  C   UNL     1       6.282   6.732  17.182  0.00  0.00    +0.000 A 
ATOM      3  C   UNL     1       6.614   8.088  17.010  0.00  0.00    +0.000 A 
ATOM      4  C   UNL     1       7.661   8.686  17.727  0.00  0.00    +0.000 A 
ATOM      5  C   UNL     1       8.398   7.938  18.629  0.00  0.00    +0.000 A 
ATOM      6  F   UNL     1       9.433   8.498  19.268  0.00  0.00    +0.000 F 
ATOM      7  C   UNL     1       8.037   6.638  18.910  0.00  0.00    +0.000 A 
ATOM      8  C   UNL     1       6.949   6.086  18.240  0.00  0.00    +0.000 A 
ATOM      9  F   UNL     1       6.500   4.913  18.697  0.00  0.00    +0.000 F 
ENDBRANCH   1   2
BRANCH   1  11
ATOM     10  C   UNL     1       3.378   6.832  17.953  0.00  0.00    +0.000 C 
ATOM     11  C   UNL     1       3.830   5.735  16.972  0.00  0.00    +0.000 C 
BRANCH  11  12
ATOM     12  N   UNL     1       3.616   4.430  17.605  0.00  0.00    +0.000 N 
ATOM     13  N   UNL     1       4.231   3.324  17.120  0.00  0.00    +0.000 NA
ATOM     14  C   UNL     1       3.856   2.361  17.963  0.00  0.00    +0.000 A 
ATOM     15  C   UNL     1       3.060   2.837  19.021  0.00  0.00    +0.000 A 
ATOM     16  C   UNL     1       2.472   2.282  20.178  0.00  0.00    +0.000 A 
ATOM     17  C   UNL     1       1.750   3.099  21.051  0.00  0.00    +0.000 A 
ATOM     18  C   UNL     1       1.653   4.470  20.789  0.00  0.00    +0.000 A 
ATOM     19  C   UNL     1       2.199   5.043  19.638  0.00  0.00    +0.000 A 
ATOM     20  C   UNL     1       2.919   4.198  18.779  0.00  0.00    +0.000 A 
BRANCH  17  21
ATOM     21  N   UNL     1       1.354   2.606  22.299  0.00  0.00    +0.000 N 
ATOM     22  H   UNL     1       0.421   2.890  22.582  0.00  0.00    +0.000 HD
ATOM     23  H   UNL     1       2.037   2.733  23.037  0.00  0.00    +0.000 HD
ENDBRANCH  17  21
ENDBRANCH  11  12
ENDBRANCH   1  11
BRANCH   1  24
ATOM     24  O   UNL     1       5.092   6.725  15.061  0.00  0.00    +0.000 OA
ATOM     25  H   UNL     1       5.649   6.337  14.364  0.00  0.00    +0.000 HD
ENDBRANCH   1  24
BRANCH   1  26
ATOM     26  C   UNL     1       5.806   4.602  15.744  0.00  0.00    +0.000 C 
BRANCH  26  27
ATOM     27  N   UNL     1       6.460   4.562  14.456  0.00  0.00    +0.000 N 
ATOM     28  C   UNL     1       6.140   3.768  13.395  0.00  0.00    +0.000 A 
ATOM     29  N   UNL     1       6.928   4.044  12.382  0.00  0.00    +0.000 NA
ATOM     30  C   UNL     1       7.749   5.009  12.887  0.00  0.00    +0.000 A 
ATOM     31  N   UNL     1       7.500   5.353  14.150  0.00  0.00    +0.000 NA
ENDBRANCH  26  27
ENDBRANCH   1  26
TORSDOF 7
ENDMDL
MODEL 7
REMARK VINA RESULT:      -6.7      3.457      5.793
REMARK  Name = 
REMARK  8 active torsions:
REMARK  status: ('A' for Active; 'I' for Inactive)
REMARK    1  A    between atoms: C_1  and  C_2
REMARK    2  A    between atoms: C_2  and  N_3
REMARK    3  A    between atoms: C_2  and  C_13
REMARK    4  A    between atoms: C_8  and  N_9
REMARK    5  A    between atoms: C_13  and  O_14
REMARK    6  A    between atoms: C_13  and  C_15
REMARK    7  A    between atoms: C_13  and  C_21
REMARK    8  A    between atoms: C_15  and  N_16
REMARK                            x       y       z     vdW  Elec       q    Type
REMARK                         _______ _______ _______ _____ _____    ______ ____
ROOT
ATOM      1  C   UNL     1       4.001   4.585  17.412  0.00  0.00    +0.000 C 
ENDROOT
BRANCH   1   2
ATOM      2  C   UNL     1       4.902   4.654  16.147  0.00  0.00    +0.000 A 
ATOM      3  C   UNL     1       5.378   3.519  15.464  0.00  0.00    +0.000 A 
ATOM      4  C   UNL     1       6.320   3.623  14.431  0.00  0.00    +0.000 A 
ATOM      5  C   UNL     1       6.807   4.865  14.060  0.00  0.00    +0.000 A 
ATOM      6  F   UNL     1       7.750   4.955  13.114  0.00  0.00    +0.000 F 
ATOM      7  C   UNL     1       6.287   6.010  14.625  0.00  0.00    +0.000 A 
ATOM      8  C   UNL     1       5.300   5.888  15.599  0.00  0.00    +0.000 A 
ATOM      9  F   UNL     1       4.672   7.012  15.956  0.00  0.00    +0.000 F 
ENDBRANCH   1   2
BRANCH   1  11
ATOM     10  C   UNL     1       5.412   5.168  19.582  0.00  0.00    +0.000 C 
ATOM     11  C   UNL     1       4.373   5.646  18.552  0.00  0.00    +0.000 C 
BRANCH  11  12
ATOM     12  N   UNL     1       3.250   6.252  19.274  0.00  0.00    +0.000 N 
ATOM     13  N   UNL     1       2.824   5.723  20.447  0.00  0.00    +0.000 NA
ATOM     14  C   UNL     1       1.852   6.552  20.831  0.00  0.00    +0.000 A 
ATOM     15  C   UNL     1       1.686   7.643  19.960  0.00  0.00    +0.000 A 
ATOM     16  C   UNL     1       0.879   8.801  19.927  0.00  0.00    +0.000 A 
ATOM     17  C   UNL     1       1.018   9.715  18.879  0.00  0.00    +0.000 A 
ATOM     18  C   UNL     1       1.985   9.490  17.894  0.00  0.00    +0.000 A 
ATOM     19  C   UNL     1       2.777   8.339  17.883  0.00  0.00    +0.000 A 
ATOM     20  C   UNL     1       2.616   7.439  18.948  0.00  0.00    +0.000 A 
BRANCH  17  21
ATOM     21  N   UNL     1       0.386  10.961  18.952  0.00  0.00    +0.000 N 
ATOM     22  H   UNL     1      -0.112  11.125  19.821  0.00  0.00    +0.000 HD
ATOM     23  H   UNL     1      -0.169  11.200  18.138  0.00  0.00    +0.000 HD
ENDBRANCH  17  21
ENDBRANCH  11  12
ENDBRANCH   1  11
BRANCH   1  24
ATOM     24  O   UNL     1       2.627   4.779  16.996  0.00  0.00    +0.000 OA
ATOM     25  H   UNL     1       2.538   5.642  16.556  0.00  0.00    +0.000 HD
ENDBRANCH   1  24
BRANCH   1  26
ATOM     26  C   UNL     1       3.933   3.146  18.049  0.00  0.00    +0.000 C 
BRANCH  26  27
ATOM     27  N   UNL     1       2.736   2.736  18.746  0.00  0.00    +0.000 N 
ATOM     28  C   UNL     1       2.576   2.594  20.093  0.00  0.00    +0.000 A 
ATOM     29  N   UNL     1       1.337   2.249  20.357  0.00  0.00    +0.000 NA
ATOM     30  C   UNL     1       0.773   2.160  19.119  0.00  0.00    +0.000 A 
ATOM     31  N   UNL     1       1.592   2.446  18.107  0.00  0.00    +0.000 NA
ENDBRANCH  26  27
ENDBRANCH   1  26
TORSDOF 7
ENDMDL
MODEL 8
REMARK VINA RESULT:      -6.6      4.195      6.651
REMARK  Name = 
REMARK  8 active torsions:
REMARK  status: ('A' for Active; 'I' for Inactive)
REMARK    1  A    between atoms: C_1  and  C_2
REMARK    2  A    between atoms: C_2  and  N_3
REMARK    3  A    between atoms: C_2  and  C_13
REMARK    4  A    between atoms: C_8  and  N_9
REMARK    5  A    between atoms: C_13  and  O_14
REMARK    6  A    between atoms: C_13  and  C_15
REMARK    7  A    between atoms: C_13  and  C_21
REMARK    8  A    between atoms: C_15  and  N_16
REMARK                            x       y       z     vdW  Elec       q    Type
REMARK                         _______ _______ _______ _____ _____    ______ ____
ROOT
ATOM      1  C   UNL     1       3.153   6.344  18.735  0.00  0.00    +0.000 C 
ENDROOT
BRANCH   1   2
ATOM      2  C   UNL     1       2.450   5.006  19.101  0.00  0.00    +0.000 A 
ATOM      3  C   UNL     1       2.580   4.371  20.350  0.00  0.00    +0.000 A 
ATOM      4  C   UNL     1       2.066   3.088  20.580  0.00  0.00    +0.000 A 
ATOM      5  C   UNL     1       1.412   2.411  19.564  0.00  0.00    +0.000 A 
ATOM      6  F   UNL     1       0.975   1.162  19.770  0.00  0.00    +0.000 F 
ATOM      7  C   UNL     1       1.166   3.037  18.361  0.00  0.00    +0.000 A 
ATOM      8  C   UNL     1       1.622   4.339  18.178  0.00  0.00    +0.000 A 
ATOM      9  F   UNL     1       1.174   4.981  17.095  0.00  0.00    +0.000 F 
ENDBRANCH   1   2
BRANCH   1  11
ATOM     10  C   UNL     1       2.720   8.677  17.549  0.00  0.00    +0.000 C 
ATOM     11  C   UNL     1       2.156   7.564  18.451  0.00  0.00    +0.000 C 
BRANCH  11  12
ATOM     12  N   UNL     1       1.533   8.188  19.622  0.00  0.00    +0.000 N 
ATOM     13  N   UNL     1       1.868   7.786  20.872  0.00  0.00    +0.000 NA
ATOM     14  C   UNL     1       1.163   8.598  21.662  0.00  0.00    +0.000 A 
ATOM     15  C   UNL     1       0.427   9.557  20.946  0.00  0.00    +0.000 A 
ATOM     16  C   UNL     1      -0.402  10.652  21.274  0.00  0.00    +0.000 A 
ATOM     17  C   UNL     1      -0.957  11.432  20.256  0.00  0.00    +0.000 A 
ATOM     18  C   UNL     1      -0.650  11.144  18.923  0.00  0.00    +0.000 A 
ATOM     19  C   UNL     1       0.142  10.050  18.566  0.00  0.00    +0.000 A 
ATOM     20  C   UNL     1       0.687   9.284  19.609  0.00  0.00    +0.000 A 
BRANCH  17  21
ATOM     21  N   UNL     1      -1.595  12.637  20.571  0.00  0.00    +0.000 N 
ATOM     22  H   UNL     1      -1.115  13.464  20.231  0.00  0.00    +0.000 HD
ATOM     23  H   UNL     1      -1.873  12.724  21.542  0.00  0.00    +0.000 HD
ENDBRANCH  17  21
ENDBRANCH  11  12
ENDBRANCH   1  11
BRANCH   1  24
ATOM     24  O   UNL     1       4.049   6.691  19.820  0.00  0.00    +0.000 OA
ATOM     25  H   UNL     1       4.217   5.905  20.368  0.00  0.00    +0.000 HD
ENDBRANCH   1  24
BRANCH   1  26
ATOM     26  C   UNL     1       4.159   6.208  17.531  0.00  0.00    +0.000 C 
BRANCH  26  27
ATOM     27  N   UNL     1       5.521   5.801  17.789  0.00  0.00    +0.000 N 
ATOM     28  C   UNL     1       5.983   4.529  17.951  0.00  0.00    +0.000 A 
ATOM     29  N   UNL     1       7.285   4.549  18.125  0.00  0.00    +0.000 NA
ATOM     30  C   UNL     1       7.577   5.881  18.091  0.00  0.00    +0.000 A 
ATOM     31  N   UNL     1       6.530   6.681  17.892  0.00  0.00    +0.000 NA
ENDBRANCH  26  27
ENDBRANCH   1  26
TORSDOF 7
ENDMDL
MODEL 9
REMARK VINA RESULT:      -6.6      3.416      5.810
REMARK  Name = 
REMARK  8 active torsions:
REMARK  status: ('A' for Active; 'I' for Inactive)
REMARK    1  A    between atoms: C_1  and  C_2
REMARK    2  A    between atoms: C_2  and  N_3
REMARK    3  A    between atoms: C_2  and  C_13
REMARK    4  A    between atoms: C_8  and  N_9
REMARK    5  A    between atoms: C_13  and  O_14
REMARK    6  A    between atoms: C_13  and  C_15
REMARK    7  A    between atoms: C_13  and  C_21
REMARK    8  A    between atoms: C_15  and  N_16
REMARK                            x       y       z     vdW  Elec       q    Type
REMARK                         _______ _______ _______ _____ _____    ______ ____
ROOT
ATOM      1  C   UNL     1       2.740   5.045  18.509  0.00  0.00    +0.000 C 
ENDROOT
BRANCH   1   2
ATOM      2  C   UNL     1       4.099   5.034  17.755  0.00  0.00    +0.000 A 
ATOM      3  C   UNL     1       5.245   5.718  18.201  0.00  0.00    +0.000 A 
ATOM      4  C   UNL     1       6.397   5.819  17.409  0.00  0.00    +0.000 A 
ATOM      5  C   UNL     1       6.426   5.238  16.152  0.00  0.00    +0.000 A 
ATOM      6  F   UNL     1       7.507   5.386  15.375  0.00  0.00    +0.000 F 
ATOM      7  C   UNL     1       5.369   4.466  15.721  0.00  0.00    +0.000 A 
ATOM      8  C   UNL     1       4.264   4.319  16.554  0.00  0.00    +0.000 A 
ATOM      9  F   UNL     1       3.368   3.394  16.198  0.00  0.00    +0.000 F 
ENDBRANCH   1   2
BRANCH   1  11
ATOM     10  C   UNL     1       1.802   5.723  20.896  0.00  0.00    +0.000 C 
ATOM     11  C   UNL     1       2.630   6.144  19.669  0.00  0.00    +0.000 C 
BRANCH  11  12
ATOM     12  N   UNL     1       2.207   7.487  19.262  0.00  0.00    +0.000 N 
ATOM     13  N   UNL     1       2.424   7.920  17.996  0.00  0.00    +0.000 NA
ATOM     14  C   UNL     1       1.867   9.131  17.979  0.00  0.00    +0.000 A 
ATOM     15  C   UNL     1       1.238   9.463  19.192  0.00  0.00    +0.000 A 
ATOM     16  C   UNL     1       0.474  10.548  19.675  0.00  0.00    +0.000 A 
ATOM     17  C   UNL     1      -0.035  10.514  20.976  0.00  0.00    +0.000 A 
ATOM     18  C   UNL     1       0.185   9.386  21.772  0.00  0.00    +0.000 A 
ATOM     19  C   UNL     1       0.962   8.311  21.333  0.00  0.00    +0.000 A 
ATOM     20  C   UNL     1       1.460   8.371  20.021  0.00  0.00    +0.000 A 
BRANCH  17  21
ATOM     21  N   UNL     1      -0.967  11.474  21.384  0.00  0.00    +0.000 N 
ATOM     22  H   UNL     1      -0.742  11.927  22.264  0.00  0.00    +0.000 HD
ATOM     23  H   UNL     1      -1.933  11.167  21.343  0.00  0.00    +0.000 HD
ENDBRANCH  17  21
ENDBRANCH  11  12
ENDBRANCH   1  11
BRANCH   1  24
ATOM     24  O   UNL     1       1.688   5.260  17.535  0.00  0.00    +0.000 OA
ATOM     25  H   UNL     1       0.844   4.931  17.889  0.00  0.00    +0.000 HD
ENDBRANCH   1  24
BRANCH   1  26
ATOM     26  C   UNL     1       2.340   3.638  19.092  0.00  0.00    +0.000 C 
BRANCH  26  27
ATOM     27  N   UNL     1       3.378   2.694  19.438  0.00  0.00    +0.000 N 
ATOM     28  C   UNL     1       4.270   2.792  20.464  0.00  0.00    +0.000 A 
ATOM     29  N   UNL     1       5.032   1.723  20.492  0.00  0.00    +0.000 NA
ATOM     30  C   UNL     1       4.583   0.999  19.427  0.00  0.00    +0.000 A 
ATOM     31  N   UNL     1       3.577   1.557  18.753  0.00  0.00    +0.000 NA
ENDBRANCH  26  27
ENDBRANCH   1  26
TORSDOF 7
ENDMDL
