MODEL 1
REMARK VINA RESULT:      -7.5      0.000      0.000
REMARK  Name = 
REMARK  6 active torsions:
REMARK  status: ('A' for Active; 'I' for Inactive)
REMARK    1  A    between atoms: C_1  and  O_2
REMARK    2  A    between atoms: O_2  and  C_3
REMARK    3  A    between atoms: C_5  and  O_6
REMARK    4  A    between atoms: O_6  and  C_7
REMARK    5  A    between atoms: C_8  and  N_9
REMARK    6  A    between atoms: C_19  and  C_20
REMARK                            x       y       z     vdW  Elec       q    Type
REMARK                         _______ _______ _______ _____ _____    ______ ____
ROOT
ATOM      1  N   UNL     1       2.654   6.824  19.057  0.00  0.00    +0.000 N 
ATOM      2  C   UNL     1       2.152   8.082  18.759  0.00  0.00    +0.000 C 
ATOM      3  O   UNL     1       2.227   8.583  17.640  0.00  0.00    +0.000 OA
ATOM      4  N   UNL     1       1.474   8.701  19.846  0.00  0.00    +0.000 N 
ATOM      5  C   UNL     1       1.095   8.011  21.094  0.00  0.00    +0.000 C 
ATOM      6  C   UNL     1      -0.262   8.478  21.591  0.00  0.00    +0.000 C 
ATOM      7  O   UNL     1      -0.239   9.862  21.910  0.00  0.00    +0.000 OA
ATOM      8  C   UNL     1       0.302  10.619  20.899  0.00  0.00    +0.000 A 
ATOM      9  C   UNL     1      -0.008  11.979  20.988  0.00  0.00    +0.000 A 
ATOM     10  C   UNL     1       0.479  12.872  20.042  0.00  0.00    +0.000 A 
ATOM     11  C   UNL     1       1.292  12.408  19.006  0.00  0.00    +0.000 A 
ATOM     12  C   UNL     1       1.856  13.359  17.991  0.00  0.00    +0.000 C 
ATOM     13  C   UNL     1       1.607  11.035  18.925  0.00  0.00    +0.000 A 
ATOM     14  C   UNL     1       1.121  10.109  19.863  0.00  0.00    +0.000 A 
ATOM     15  H   UNL     1       2.327   6.412  19.907  0.00  0.00    +0.000 HD
ENDROOT
BRANCH   1  19
ATOM     16  C   UNL     1       5.223   4.427  16.665  0.00  0.00    +0.000 A 
ATOM     17  C   UNL     1       3.897   4.011  16.861  0.00  0.00    +0.000 A 
ATOM     18  C   UNL     1       2.990   4.737  17.659  0.00  0.00    +0.000 A 
ATOM     19  C   UNL     1       3.420   5.922  18.272  0.00  0.00    +0.000 A 
ATOM     20  C   UNL     1       4.750   6.338  18.059  0.00  0.00    +0.000 A 
ATOM     21  C   UNL     1       5.645   5.610  17.266  0.00  0.00    +0.000 A 
ATOM     22 CL   UNL     1       7.199   6.326  17.031  0.00  0.00    +0.000 Cl
BRANCH  16  24
ATOM     23  C   UNL     1       5.979   4.101  14.431  0.00  0.00    +0.000 C 
ATOM     24  O   UNL     1       5.910   3.645  15.776  0.00  0.00    +0.000 OA
ENDBRANCH  16  24
BRANCH  18  25
ATOM     25  O   UNL     1       1.665   4.400  17.694  0.00  0.00    +0.000 OA
ATOM     26  C   UNL     1       1.339   3.249  18.471  0.00  0.00    +0.000 C 
ENDBRANCH  18  25
ENDBRANCH   1  19
TORSDOF 3
ENDMDL
MODEL 2
REMARK VINA RESULT:      -7.5      2.406      3.750
REMARK  Name = 
REMARK  6 active torsions:
REMARK  status: ('A' for Active; 'I' for Inactive)
REMARK    1  A    between atoms: C_1  and  O_2
REMARK    2  A    between atoms: O_2  and  C_3
REMARK    3  A    between atoms: C_5  and  O_6
REMARK    4  A    between atoms: O_6  and  C_7
REMARK    5  A    between atoms: C_8  and  N_9
REMARK    6  A    between atoms: C_19  and  C_20
REMARK                            x       y       z     vdW  Elec       q    Type
REMARK                         _______ _______ _______ _____ _____    ______ ____
ROOT
ATOM      1  N   UNL     1       2.370   7.066  18.106  0.00  0.00    +0.000 N 
ATOM      2  C   UNL     1       2.047   7.769  19.258  0.00  0.00    +0.000 C 
ATOM      3  O   UNL     1       2.142   7.287  20.383  0.00  0.00    +0.000 OA
ATOM      4  N   UNL     1       1.672   9.121  19.018  0.00  0.00    +0.000 N 
ATOM      5  C   UNL     1       1.844   9.819  17.729  0.00  0.00    +0.000 C 
ATOM      6  C   UNL     1       2.260  11.264  17.938  0.00  0.00    +0.000 C 
ATOM      7  O   UNL     1       1.255  11.988  18.633  0.00  0.00    +0.000 OA
ATOM      8  C   UNL     1       0.836  11.335  19.768  0.00  0.00    +0.000 A 
ATOM      9  C   UNL     1       0.162  12.159  20.674  0.00  0.00    +0.000 A 
ATOM     10  C   UNL     1      -0.332  11.636  21.862  0.00  0.00    +0.000 A 
ATOM     11  C   UNL     1      -0.165  10.279  22.143  0.00  0.00    +0.000 A 
ATOM     12  C   UNL     1      -0.719   9.685  23.406  0.00  0.00    +0.000 C 
ATOM     13  C   UNL     1       0.510   9.451  21.222  0.00  0.00    +0.000 A 
ATOM     14  C   UNL     1       1.027   9.955  20.017  0.00  0.00    +0.000 A 
ATOM     15  H   UNL     1       2.497   7.615  17.281  0.00  0.00    +0.000 HD
ENDROOT
BRANCH   1  19
ATOM     16  C   UNL     1       3.140   2.900  17.781  0.00  0.00    +0.000 A 
ATOM     17  C   UNL     1       4.163   3.804  17.459  0.00  0.00    +0.000 A 
ATOM     18  C   UNL     1       3.980   5.200  17.518  0.00  0.00    +0.000 A 
ATOM     19  C   UNL     1       2.737   5.707  17.922  0.00  0.00    +0.000 A 
ATOM     20  C   UNL     1       1.720   4.791  18.256  0.00  0.00    +0.000 A 
ATOM     21  C   UNL     1       1.910   3.405  18.192  0.00  0.00    +0.000 A 
ATOM     22 CL   UNL     1       0.588   2.437  18.739  0.00  0.00    +0.000 Cl
BRANCH  16  24
ATOM     23  C   UNL     1       4.012   1.041  18.987  0.00  0.00    +0.000 C 
ATOM     24  O   UNL     1       3.546   1.593  17.761  0.00  0.00    +0.000 OA
ENDBRANCH  16  24
BRANCH  18  25
ATOM     25  O   UNL     1       5.040   6.052  17.363  0.00  0.00    +0.000 OA
ATOM     26  C   UNL     1       5.309   6.467  16.026  0.00  0.00    +0.000 C 
ENDBRANCH  18  25
ENDBRANCH   1  19
TORSDOF 3
ENDMDL
MODEL 3
REMARK VINA RESULT:      -7.2      1.748      2.070
REMARK  Name = 
REMARK  6 active torsions:
REMARK  status: ('A' for Active; 'I' for Inactive)
REMARK    1  A    between atoms: C_1  and  O_2
REMARK    2  A    between atoms: O_2  and  C_3
REMARK    3  A    between atoms: C_5  and  O_6
REMARK    4  A    between atoms: O_6  and  C_7
REMARK    5  A    between atoms: C_8  and  N_9
REMARK    6  A    between atoms: C_19  and  C_20
REMARK                            x       y       z     vdW  Elec       q    Type
REMARK                         _______ _______ _______ _____ _____    ______ ____
ROOT
ATOM      1  N   UNL     1       1.834   7.497  20.469  0.00  0.00    +0.000 N 
ATOM      2  C   UNL     1       1.381   8.732  20.026  0.00  0.00    +0.000 C 
ATOM      3  O   UNL     1       1.336   9.038  18.838  0.00  0.00    +0.000 OA
ATOM      4  N   UNL     1       0.903   9.575  21.067  0.00  0.00    +0.000 N 
ATOM      5  C   UNL     1       0.653   9.131  22.452  0.00  0.00    +0.000 C 
ATOM      6  C   UNL     1      -0.588   9.791  23.026  0.00  0.00    +0.000 C 
ATOM      7  O   UNL     1      -0.428  11.200  23.100  0.00  0.00    +0.000 OA
ATOM      8  C   UNL     1       0.019  11.734  21.914  0.00  0.00    +0.000 A 
ATOM      9  C   UNL     1      -0.183  13.113  21.809  0.00  0.00    +0.000 A 
ATOM     10  C   UNL     1       0.229  13.796  20.671  0.00  0.00    +0.000 A 
ATOM     11  C   UNL     1       0.859  13.101  19.637  0.00  0.00    +0.000 A 
ATOM     12  C   UNL     1       1.342  13.823  18.413  0.00  0.00    +0.000 C 
ATOM     13  C   UNL     1       1.066  11.710  19.753  0.00  0.00    +0.000 A 
ATOM     14  C   UNL     1       0.652  10.994  20.887  0.00  0.00    +0.000 A 
ATOM     15  H   UNL     1       1.599   7.258  21.411  0.00  0.00    +0.000 HD
ENDROOT
BRANCH   1  19
ATOM     16  C   UNL     1       3.686   4.532  18.052  0.00  0.00    +0.000 A 
ATOM     17  C   UNL     1       2.859   4.124  19.110  0.00  0.00    +0.000 A 
ATOM     18  C   UNL     1       2.227   5.044  19.970  0.00  0.00    +0.000 A 
ATOM     19  C   UNL     1       2.422   6.416  19.761  0.00  0.00    +0.000 A 
ATOM     20  C   UNL     1       3.244   6.817  18.689  0.00  0.00    +0.000 A 
ATOM     21  C   UNL     1       3.868   5.896  17.839  0.00  0.00    +0.000 A 
ATOM     22 CL   UNL     1       4.752   6.569  16.516  0.00  0.00    +0.000 Cl
BRANCH  16  24
ATOM     23  C   UNL     1       3.661   2.192  17.612  0.00  0.00    +0.000 C 
ATOM     24  O   UNL     1       4.118   3.495  17.271  0.00  0.00    +0.000 OA
ENDBRANCH  16  24
BRANCH  18  25
ATOM     25  O   UNL     1       1.298   4.624  20.882  0.00  0.00    +0.000 OA
ATOM     26  C   UNL     1       1.322   3.234  21.196  0.00  0.00    +0.000 C 
ENDBRANCH  18  25
ENDBRANCH   1  19
TORSDOF 3
ENDMDL
MODEL 4
REMARK VINA RESULT:      -7.0      2.542      3.164
REMARK  Name = 
REMARK  6 active torsions:
REMARK  status: ('A' for Active; 'I' for Inactive)
REMARK    1  A    between atoms: C_1  and  O_2
REMARK    2  A    between atoms: O_2  and  C_3
REMARK    3  A    between atoms: C_5  and  O_6
REMARK    4  A    between atoms: O_6  and  C_7
REMARK    5  A    between atoms: C_8  and  N_9
REMARK    6  A    between atoms: C_19  and  C_20
REMARK                            x       y       z     vdW  Elec       q    Type
REMARK                         _______ _______ _______ _____ _____    ______ ____
ROOT
ATOM      1  N   UNL     1       1.638   7.386  20.843  0.00  0.00    +0.000 N 
ATOM      2  C   UNL     1       1.304   8.599  20.257  0.00  0.00    +0.000 C 
ATOM      3  O   UNL     1       1.330   8.784  19.044  0.00  0.00    +0.000 OA
ATOM      4  N   UNL     1       0.854   9.579  21.185  0.00  0.00    +0.000 N 
ATOM      5  C   UNL     1       0.515   9.301  22.594  0.00  0.00    +0.000 C 
ATOM      6  C   UNL     1      -0.690  10.110  23.040  0.00  0.00    +0.000 C 
ATOM      7  O   UNL     1      -0.421  11.502  22.979  0.00  0.00    +0.000 OA
ATOM      8  C   UNL     1       0.114  11.876  21.769  0.00  0.00    +0.000 A 
ATOM      9  C   UNL     1       0.028  13.248  21.516  0.00  0.00    +0.000 A 
ATOM     10  C   UNL     1       0.538  13.775  20.337  0.00  0.00    +0.000 A 
ATOM     11  C   UNL     1       1.150  12.931  19.408  0.00  0.00    +0.000 A 
ATOM     12  C   UNL     1       1.737  13.484  18.142  0.00  0.00    +0.000 C 
ATOM     13  C   UNL     1       1.240  11.548  19.673  0.00  0.00    +0.000 A 
ATOM     14  C   UNL     1       0.725  10.987  20.852  0.00  0.00    +0.000 A 
ATOM     15  H   UNL     1       1.348   7.265  21.792  0.00  0.00    +0.000 HD
ENDROOT
BRANCH   1  19
ATOM     16  C   UNL     1       3.116   3.636  19.496  0.00  0.00    +0.000 A 
ATOM     17  C   UNL     1       3.487   4.799  18.804  0.00  0.00    +0.000 A 
ATOM     18  C   UNL     1       3.022   6.077  19.173  0.00  0.00    +0.000 A 
ATOM     19  C   UNL     1       2.165   6.196  20.275  0.00  0.00    +0.000 A 
ATOM     20  C   UNL     1       1.807   5.025  20.972  0.00  0.00    +0.000 A 
ATOM     21  C   UNL     1       2.274   3.759  20.598  0.00  0.00    +0.000 A 
ATOM     22 CL   UNL     1       1.818   2.452  21.631  0.00  0.00    +0.000 Cl
BRANCH  16  24
ATOM     23  C   UNL     1       3.172   1.831  17.945  0.00  0.00    +0.000 C 
ATOM     24  O   UNL     1       3.755   2.511  19.050  0.00  0.00    +0.000 OA
ENDBRANCH  16  24
BRANCH  18  25
ATOM     25  O   UNL     1       3.532   7.203  18.587  0.00  0.00    +0.000 OA
ATOM     26  C   UNL     1       4.251   6.998  17.373  0.00  0.00    +0.000 C 
ENDBRANCH  18  25
ENDBRANCH   1  19
TORSDOF 3
ENDMDL
MODEL 5
REMARK VINA RESULT:      -6.8      1.611      2.309
REMARK  Name = 
REMARK  6 active torsions:
REMARK  status: ('A' for Active; 'I' for Inactive)
REMARK    1  A    between atoms: C_1  and  O_2
REMARK    2  A    between atoms: O_2  and  C_3
REMARK    3  A    between atoms: C_5  and  O_6
REMARK    4  A    between atoms: O_6  and  C_7
REMARK    5  A    between atoms: C_8  and  N_9
REMARK    6  A    between atoms: C_19  and  C_20
REMARK                            x       y       z     vdW  Elec       q    Type
REMARK                         _______ _______ _______ _____ _____    ______ ____
ROOT
ATOM      1  N   UNL     1       2.563   7.088  18.942  0.00  0.00    +0.000 N 
ATOM      2  C   UNL     1       2.041   8.349  18.693  0.00  0.00    +0.000 C 
ATOM      3  O   UNL     1       2.052   8.868  17.580  0.00  0.00    +0.000 OA
ATOM      4  N   UNL     1       1.422   8.948  19.826  0.00  0.00    +0.000 N 
ATOM      5  C   UNL     1       1.114   8.236  21.082  0.00  0.00    +0.000 C 
ATOM      6  C   UNL     1      -0.214   8.690  21.659  0.00  0.00    +0.000 C 
ATOM      7  O   UNL     1      -0.178  10.068  22.000  0.00  0.00    +0.000 OA
ATOM      8  C   UNL     1       0.304  10.844  20.972  0.00  0.00    +0.000 A 
ATOM      9  C   UNL     1      -0.005  12.201  21.101  0.00  0.00    +0.000 A 
ATOM     10  C   UNL     1       0.426  13.111  20.145  0.00  0.00    +0.000 A 
ATOM     11  C   UNL     1       1.182  12.667  19.058  0.00  0.00    +0.000 A 
ATOM     12  C   UNL     1       1.687  13.637  18.029  0.00  0.00    +0.000 C 
ATOM     13  C   UNL     1       1.497  11.297  18.937  0.00  0.00    +0.000 A 
ATOM     14  C   UNL     1       1.066  10.354  19.885  0.00  0.00    +0.000 A 
ATOM     15  H   UNL     1       2.284   6.662  19.802  0.00  0.00    +0.000 HD
ENDROOT
BRANCH   1  19
ATOM     16  C   UNL     1       4.515   4.129  16.597  0.00  0.00    +0.000 A 
ATOM     17  C   UNL     1       5.087   5.407  16.688  0.00  0.00    +0.000 A 
ATOM     18  C   UNL     1       4.490   6.449  17.426  0.00  0.00    +0.000 A 
ATOM     19  C   UNL     1       3.287   6.202  18.102  0.00  0.00    +0.000 A 
ATOM     20  C   UNL     1       2.727   4.912  18.016  0.00  0.00    +0.000 A 
ATOM     21  C   UNL     1       3.326   3.883  17.279  0.00  0.00    +0.000 A 
ATOM     22 CL   UNL     1       2.554   2.340  17.373  0.00  0.00    +0.000 Cl
BRANCH  16  24
ATOM     23  C   UNL     1       6.234   3.759  14.992  0.00  0.00    +0.000 C 
ATOM     24  O   UNL     1       5.298   3.231  15.924  0.00  0.00    +0.000 OA
ENDBRANCH  16  24
BRANCH  18  25
ATOM     25  O   UNL     1       5.153   7.628  17.634  0.00  0.00    +0.000 OA
ATOM     26  C   UNL     1       6.567   7.582  17.459  0.00  0.00    +0.000 C 
ENDBRANCH  18  25
ENDBRANCH   1  19
TORSDOF 3
ENDMDL
MODEL 6
REMARK VINA RESULT:      -6.6      2.891      7.786
REMARK  Name = 
REMARK  6 active torsions:
REMARK  status: ('A' for Active; 'I' for Inactive)
REMARK    1  A    between atoms: C_1  and  O_2
REMARK    2  A    between atoms: O_2  and  C_3
REMARK    3  A    between atoms: C_5  and  O_6
REMARK    4  A    between atoms: O_6  and  C_7
REMARK    5  A    between atoms: C_8  and  N_9
REMARK    6  A    between atoms: C_19  and  C_20
REMARK                            x       y       z     vdW  Elec       q    Type
REMARK                         _______ _______ _______ _____ _____    ______ ____
ROOT
ATOM      1  N   UNL     1       0.708   8.373  20.164  0.00  0.00    +0.000 N 
ATOM      2  C   UNL     1       1.863   7.992  19.497  0.00  0.00    +0.000 C 
ATOM      3  O   UNL     1       2.595   8.792  18.920  0.00  0.00    +0.000 OA
ATOM      4  N   UNL     1       2.160   6.605  19.610  0.00  0.00    +0.000 N 
ATOM      5  C   UNL     1       1.485   5.681  20.542  0.00  0.00    +0.000 C 
ATOM      6  C   UNL     1       2.463   4.678  21.126  0.00  0.00    +0.000 C 
ATOM      7  O   UNL     1       3.020   3.857  20.110  0.00  0.00    +0.000 OA
ATOM      8  C   UNL     1       3.505   4.594  19.055  0.00  0.00    +0.000 A 
ATOM      9  C   UNL     1       4.394   3.889  18.239  0.00  0.00    +0.000 A 
ATOM     10  C   UNL     1       4.957   4.500  17.126  0.00  0.00    +0.000 A 
ATOM     11  C   UNL     1       4.620   5.819  16.815  0.00  0.00    +0.000 A 
ATOM     12  C   UNL     1       5.190   6.489  15.599  0.00  0.00    +0.000 C 
ATOM     13  C   UNL     1       3.716   6.523  17.639  0.00  0.00    +0.000 A 
ATOM     14  C   UNL     1       3.140   5.933  18.775  0.00  0.00    +0.000 A 
ATOM     15  H   UNL     1       0.328   7.701  20.799  0.00  0.00    +0.000 HD
ENDROOT
BRANCH   1  19
ATOM     16  C   UNL     1      -1.254  12.140  20.005  0.00  0.00    +0.000 A 
ATOM     17  C   UNL     1      -0.621  11.756  21.197  0.00  0.00    +0.000 A 
ATOM     18  C   UNL     1       0.031  10.514  21.338  0.00  0.00    +0.000 A 
ATOM     19  C   UNL     1       0.058   9.633  20.248  0.00  0.00    +0.000 A 
ATOM     20  C   UNL     1      -0.570  10.032  19.052  0.00  0.00    +0.000 A 
ATOM     21  C   UNL     1      -1.216  11.267  18.921  0.00  0.00    +0.000 A 
ATOM     22 CL   UNL     1      -1.837  11.631  17.350  0.00  0.00    +0.000 Cl
BRANCH  16  24
ATOM     23  C   UNL     1      -0.799  14.470  19.832  0.00  0.00    +0.000 C 
ATOM     24  O   UNL     1      -1.736  13.420  20.035  0.00  0.00    +0.000 OA
ENDBRANCH  16  24
BRANCH  18  25
ATOM     25  O   UNL     1       0.781  10.240  22.449  0.00  0.00    +0.000 OA
ATOM     26  C   UNL     1       0.109   9.532  23.489  0.00  0.00    +0.000 C 
ENDBRANCH  18  25
ENDBRANCH   1  19
TORSDOF 3
ENDMDL
MODEL 7
REMARK VINA RESULT:      -6.5      3.211      7.853
REMARK  Name = 
REMARK  6 active torsions:
REMARK  status: ('A' for Active; 'I' for Inactive)
REMARK    1  A    between atoms: C_1  and  O_2
REMARK    2  A    between atoms: O_2  and  C_3
REMARK    3  A    between atoms: C_5  and  O_6
REMARK    4  A    between atoms: O_6  and  C_7
REMARK    5  A    between atoms: C_8  and  N_9
REMARK    6  A    between atoms: C_19  and  C_20
REMARK                            x       y       z     vdW  Elec       q    Type
REMARK                         _______ _______ _______ _____ _____    ______ ____
ROOT
ATOM      1  N   UNL     1       0.659   8.489  19.968  0.00  0.00    +0.000 N 
ATOM      2  C   UNL     1       1.830   8.101  19.335  0.00  0.00    +0.000 C 
ATOM      3  O   UNL     1       2.545   8.883  18.715  0.00  0.00    +0.000 OA
ATOM      4  N   UNL     1       2.165   6.732  19.537  0.00  0.00    +0.000 N 
ATOM      5  C   UNL     1       1.507   5.848  20.519  0.00  0.00    +0.000 C 
ATOM      6  C   UNL     1       2.507   4.912  21.172  0.00  0.00    +0.000 C 
ATOM      7  O   UNL     1       3.096   4.046  20.213  0.00  0.00    +0.000 OA
ATOM      8  C   UNL     1       3.570   4.729  19.118  0.00  0.00    +0.000 A 
ATOM      9  C   UNL     1       4.487   4.001  18.355  0.00  0.00    +0.000 A 
ATOM     10  C   UNL     1       5.042   4.557  17.210  0.00  0.00    +0.000 A 
ATOM     11  C   UNL     1       4.672   5.844  16.815  0.00  0.00    +0.000 A 
ATOM     12  C   UNL     1       5.235   6.453  15.564  0.00  0.00    +0.000 C 
ATOM     13  C   UNL     1       3.741   6.572  17.586  0.00  0.00    +0.000 A 
ATOM     14  C   UNL     1       3.171   6.037  18.753  0.00  0.00    +0.000 A 
ATOM     15  H   UNL     1       0.292   7.847  20.640  0.00  0.00    +0.000 HD
ENDROOT
BRANCH   1  19
ATOM     16  C   UNL     1      -1.431  12.167  20.377  0.00  0.00    +0.000 A 
ATOM     17  C   UNL     1      -1.306  11.598  19.101  0.00  0.00    +0.000 A 
ATOM     18  C   UNL     1      -0.609  10.393  18.878  0.00  0.00    +0.000 A 
ATOM     19  C   UNL     1      -0.027   9.732  19.969  0.00  0.00    +0.000 A 
ATOM     20  C   UNL     1      -0.169  10.305  21.249  0.00  0.00    +0.000 A 
ATOM     21  C   UNL     1      -0.862  11.502  21.461  0.00  0.00    +0.000 A 
ATOM     22 CL   UNL     1      -1.025  11.998  23.107  0.00  0.00    +0.000 Cl
BRANCH  16  24
ATOM     23  C   UNL     1      -3.637  13.062  20.409  0.00  0.00    +0.000 C 
ATOM     24  O   UNL     1      -2.231  13.277  20.400  0.00  0.00    +0.000 OA
ENDBRANCH  16  24
BRANCH  18  25
ATOM     25  O   UNL     1      -0.647   9.779  17.657  0.00  0.00    +0.000 OA
ATOM     26  C   UNL     1      -1.885   9.873  16.955  0.00  0.00    +0.000 C 
ENDBRANCH  18  25
ENDBRANCH   1  19
TORSDOF 3
ENDMDL
MODEL 8
REMARK VINA RESULT:      -6.4      2.031      2.530
REMARK  Name = 
REMARK  6 active torsions:
REMARK  status: ('A' for Active; 'I' for Inactive)
REMARK    1  A    between atoms: C_1  and  O_2
REMARK    2  A    between atoms: O_2  and  C_3
REMARK    3  A    between atoms: C_5  and  O_6
REMARK    4  A    between atoms: O_6  and  C_7
REMARK    5  A    between atoms: C_8  and  N_9
REMARK    6  A    between atoms: C_19  and  C_20
REMARK                            x       y       z     vdW  Elec       q    Type
REMARK                         _______ _______ _______ _____ _____    ______ ____
ROOT
ATOM      1  N   UNL     1       1.688   8.510  18.936  0.00  0.00    +0.000 N 
ATOM      2  C   UNL     1       1.804   9.810  18.463  0.00  0.00    +0.000 C 
ATOM      3  O   UNL     1       2.648  10.147  17.638  0.00  0.00    +0.000 OA
ATOM      4  N   UNL     1       0.805  10.692  18.962  0.00  0.00    +0.000 N 
ATOM      5  C   UNL     1      -0.397  10.260  19.700  0.00  0.00    +0.000 C 
ATOM      6  C   UNL     1      -1.608  11.091  19.313  0.00  0.00    +0.000 C 
ATOM      7  O   UNL     1      -1.420  12.456  19.654  0.00  0.00    +0.000 OA
ATOM      8  C   UNL     1      -0.215  12.942  19.206  0.00  0.00    +0.000 A 
ATOM      9  C   UNL     1      -0.153  14.338  19.163  0.00  0.00    +0.000 A 
ATOM     10  C   UNL     1       1.007  14.975  18.742  0.00  0.00    +0.000 A 
ATOM     11  C   UNL     1       2.119  14.215  18.373  0.00  0.00    +0.000 A 
ATOM     12  C   UNL     1       3.394  14.882  17.946  0.00  0.00    +0.000 C 
ATOM     13  C   UNL     1       2.053  12.807  18.425  0.00  0.00    +0.000 A 
ATOM     14  C   UNL     1       0.890  12.137  18.838  0.00  0.00    +0.000 A 
ATOM     15  H   UNL     1       0.831   8.289  19.401  0.00  0.00    +0.000 HD
ENDROOT
BRANCH   1  19
ATOM     16  C   UNL     1       4.202   5.242  17.906  0.00  0.00    +0.000 A 
ATOM     17  C   UNL     1       3.355   5.121  19.018  0.00  0.00    +0.000 A 
ATOM     18  C   UNL     1       2.509   6.166  19.439  0.00  0.00    +0.000 A 
ATOM     19  C   UNL     1       2.503   7.368  18.718  0.00  0.00    +0.000 A 
ATOM     20  C   UNL     1       3.347   7.477  17.595  0.00  0.00    +0.000 A 
ATOM     21  C   UNL     1       4.186   6.433  17.185  0.00  0.00    +0.000 A 
ATOM     22 CL   UNL     1       5.071   6.705  15.727  0.00  0.00    +0.000 Cl
BRANCH  16  24
ATOM     23  C   UNL     1       4.110   2.878  17.634  0.00  0.00    +0.000 C 
ATOM     24  O   UNL     1       4.863   4.084  17.600  0.00  0.00    +0.000 OA
ENDBRANCH  16  24
BRANCH  18  25
ATOM     25  O   UNL     1       1.576   5.961  20.418  0.00  0.00    +0.000 OA
ATOM     26  C   UNL     1       1.293   4.598  20.728  0.00  0.00    +0.000 C 
ENDBRANCH  18  25
ENDBRANCH   1  19
TORSDOF 3
ENDMDL
MODEL 9
REMARK VINA RESULT:      -6.4      1.866      3.008
REMARK  Name = 
REMARK  6 active torsions:
REMARK  status: ('A' for Active; 'I' for Inactive)
REMARK    1  A    between atoms: C_1  and  O_2
REMARK    2  A    between atoms: O_2  and  C_3
REMARK    3  A    between atoms: C_5  and  O_6
REMARK    4  A    between atoms: O_6  and  C_7
REMARK    5  A    between atoms: C_8  and  N_9
REMARK    6  A    between atoms: C_19  and  C_20
REMARK                            x       y       z     vdW  Elec       q    Type
REMARK                         _______ _______ _______ _____ _____    ______ ____
ROOT
ATOM      1  N   UNL     1       2.455   7.293  18.352  0.00  0.00    +0.000 N 
ATOM      2  C   UNL     1       2.057   8.046  19.447  0.00  0.00    +0.000 C 
ATOM      3  O   UNL     1       2.109   7.626  20.600  0.00  0.00    +0.000 OA
ATOM      4  N   UNL     1       1.659   9.372  19.118  0.00  0.00    +0.000 N 
ATOM      5  C   UNL     1       1.877  10.006  17.803  0.00  0.00    +0.000 C 
ATOM      6  C   UNL     1       2.243  11.471  17.953  0.00  0.00    +0.000 C 
ATOM      7  O   UNL     1       1.186  12.201  18.559  0.00  0.00    +0.000 OA
ATOM      8  C   UNL     1       0.729  11.597  19.706  0.00  0.00    +0.000 A 
ATOM      9  C   UNL     1      -0.010  12.448  20.533  0.00  0.00    +0.000 A 
ATOM     10  C   UNL     1      -0.548  11.974  21.722  0.00  0.00    +0.000 A 
ATOM     11  C   UNL     1      -0.360  10.639  22.084  0.00  0.00    +0.000 A 
ATOM     12  C   UNL     1      -0.959  10.097  23.349  0.00  0.00    +0.000 C 
ATOM     13  C   UNL     1       0.381   9.783  21.242  0.00  0.00    +0.000 A 
ATOM     14  C   UNL     1       0.944  10.238  20.038  0.00  0.00    +0.000 A 
ATOM     15  H   UNL     1       2.608   7.801  17.505  0.00  0.00    +0.000 HD
ENDROOT
BRANCH   1  19
ATOM     16  C   UNL     1       3.875   3.337  17.722  0.00  0.00    +0.000 A 
ATOM     17  C   UNL     1       2.851   3.548  18.657  0.00  0.00    +0.000 A 
ATOM     18  C   UNL     1       2.341   4.831  18.941  0.00  0.00    +0.000 A 
ATOM     19  C   UNL     1       2.867   5.937  18.259  0.00  0.00    +0.000 A 
ATOM     20  C   UNL     1       3.886   5.715  17.312  0.00  0.00    +0.000 A 
ATOM     21  C   UNL     1       4.387   4.436  17.038  0.00  0.00    +0.000 A 
ATOM     22 CL   UNL     1       5.559   4.341  15.773  0.00  0.00    +0.000 Cl
BRANCH  16  24
ATOM     23  C   UNL     1       3.778   1.103  18.539  0.00  0.00    +0.000 C 
ATOM     24  O   UNL     1       4.156   2.014  17.514  0.00  0.00    +0.000 OA
ENDBRANCH  16  24
BRANCH  18  25
ATOM     25  O   UNL     1       1.234   4.986  19.729  0.00  0.00    +0.000 OA
ATOM     26  C   UNL     1       0.860   3.847  20.502  0.00  0.00    +0.000 C 
ENDBRANCH  18  25
ENDBRANCH   1  19
TORSDOF 3
ENDMDL
