MODEL 1
REMARK VINA RESULT:      -7.1      0.000      0.000
REMARK  Name = 
REMARK  15 active torsions:
REMARK  status: ('A' for Active; 'I' for Inactive)
REMARK    1  A    between atoms: C_1  and  C_2
REMARK    2  A    between atoms: C_2  and  N_3
REMARK    3  A    between atoms: N_3  and  C_4
REMARK    4  A    between atoms: N_3  and  C_6
REMARK    5  A    between atoms: C_4  and  C_5
REMARK    6  A    between atoms: C_6  and  C_7
REMARK    7  A    between atoms: C_7  and  C_8
REMARK    8  A    between atoms: C_8  and  C_9
REMARK    9  A    between atoms: C_9  and  C_10
REMARK   10  A    between atoms: C_10  and  O_11
REMARK   11  A    between atoms: O_11  and  C_12
REMARK   12  A    between atoms: C_12  and  C_14
REMARK   13  A    between atoms: C_14  and  C_15
REMARK   14  A    between atoms: C_14  and  C_16
REMARK   15  A    between atoms: C_14  and  C_22
REMARK                            x       y       z     vdW  Elec       q    Type
REMARK                         _______ _______ _______ _____ _____    ______ ____
ROOT
ATOM      1  C   UNL     1       3.963   5.361  18.194  0.00  0.00    +0.000 C 
ATOM      2  C   UNL     1       4.613   4.775  19.473  0.00  0.00    +0.000 C 
ENDROOT
BRANCH   1   3
ATOM      3  C   UNL     1       3.110   6.615  18.523  0.00  0.00    +0.000 A 
ATOM      4  C   UNL     1       2.965   7.643  17.575  0.00  0.00    +0.000 A 
ATOM      5  C   UNL     1       2.208   8.786  17.853  0.00  0.00    +0.000 A 
ATOM      6  C   UNL     1       1.584   8.933  19.083  0.00  0.00    +0.000 A 
ATOM      7  C   UNL     1       1.710   7.931  20.038  0.00  0.00    +0.000 A 
ATOM      8  C   UNL     1       2.454   6.784  19.761  0.00  0.00    +0.000 A 
ENDBRANCH   1   3
BRANCH   1   9
ATOM      9  C   UNL     1       3.081   4.303  17.385  0.00  0.00    +0.000 C 
ATOM     10  C   UNL     1       3.599   2.849  17.335  0.00  0.00    +0.000 C 
ATOM     11  C   UNL     1       3.338   2.032  18.592  0.00  0.00    +0.000 C 
ATOM     12  C   UNL     1       1.877   2.056  19.016  0.00  0.00    +0.000 C 
ATOM     13  C   UNL     1       1.216   3.432  18.969  0.00  0.00    +0.000 C 
ATOM     14  C   UNL     1       1.575   4.256  17.737  0.00  0.00    +0.000 C 
ENDBRANCH   1   9
BRANCH   1  15
ATOM     15  C   UNL     1       5.192   5.833  17.369  0.00  0.00    +0.000 C 
ATOM     16  O   UNL     1       5.295   5.687  16.151  0.00  0.00    +0.000 OA
BRANCH  15  17
ATOM     17  O   UNL     1       6.154   6.430  18.129  0.00  0.00    +0.000 OA
BRANCH  17  18
ATOM     18  C   UNL     1       7.334   6.823  17.412  0.00  0.00    +0.000 C 
BRANCH  18  19
ATOM     19  C   UNL     1       7.485   8.342  17.470  0.00  0.00    +0.000 C 
BRANCH  19  20
ATOM     20  C   UNL     1       8.503   8.772  18.521  0.00  0.00    +0.000 C 
BRANCH  20  21
ATOM     21  C   UNL     1       9.161  10.095  18.121  0.00  0.00    +0.000 C 
BRANCH  21  22
ATOM     22  C   UNL     1       9.223  11.112  19.272  0.00  0.00    +0.000 C 
BRANCH  22  23
ATOM     23  N   UNL     1       9.695  12.456  18.891  0.00  0.00    +0.000 NA
BRANCH  23  25
ATOM     24  C   UNL     1       9.976  12.586  21.400  0.00  0.00    +0.000 C 
ATOM     25  C   UNL     1      10.302  13.169  20.029  0.00  0.00    +0.000 C 
ENDBRANCH  23  25
BRANCH  23  26
ATOM     26  C   UNL     1      10.543  12.407  17.688  0.00  0.00    +0.000 C 
ATOM     27  C   UNL     1      11.081  13.745  17.186  0.00  0.00    +0.000 C 
ENDBRANCH  23  26
ENDBRANCH  22  23
ENDBRANCH  21  22
ENDBRANCH  20  21
ENDBRANCH  19  20
ENDBRANCH  18  19
ENDBRANCH  17  18
ENDBRANCH  15  17
ENDBRANCH   1  15
TORSDOF 12
ENDMDL
MODEL 2
REMARK VINA RESULT:      -7.1      0.848      1.700
REMARK  Name = 
REMARK  15 active torsions:
REMARK  status: ('A' for Active; 'I' for Inactive)
REMARK    1  A    between atoms: C_1  and  C_2
REMARK    2  A    between atoms: C_2  and  N_3
REMARK    3  A    between atoms: N_3  and  C_4
REMARK    4  A    between atoms: N_3  and  C_6
REMARK    5  A    between atoms: C_4  and  C_5
REMARK    6  A    between atoms: C_6  and  C_7
REMARK    7  A    between atoms: C_7  and  C_8
REMARK    8  A    between atoms: C_8  and  C_9
REMARK    9  A    between atoms: C_9  and  C_10
REMARK   10  A    between atoms: C_10  and  O_11
REMARK   11  A    between atoms: O_11  and  C_12
REMARK   12  A    between atoms: C_12  and  C_14
REMARK   13  A    between atoms: C_14  and  C_15
REMARK   14  A    between atoms: C_14  and  C_16
REMARK   15  A    between atoms: C_14  and  C_22
REMARK                            x       y       z     vdW  Elec       q    Type
REMARK                         _______ _______ _______ _____ _____    ______ ____
ROOT
ATOM      1  C   UNL     1       3.527   5.625  18.384  0.00  0.00    +0.000 C 
ATOM      2  C   UNL     1       4.054   5.053  19.724  0.00  0.00    +0.000 C 
ENDROOT
BRANCH   1   3
ATOM      3  C   UNL     1       2.762   6.957  18.606  0.00  0.00    +0.000 A 
ATOM      4  C   UNL     1       2.230   7.266  19.871  0.00  0.00    +0.000 A 
ATOM      5  C   UNL     1       1.529   8.457  20.092  0.00  0.00    +0.000 A 
ATOM      6  C   UNL     1       1.338   9.362  19.059  0.00  0.00    +0.000 A 
ATOM      7  C   UNL     1       1.854   9.081  17.799  0.00  0.00    +0.000 A 
ATOM      8  C   UNL     1       2.564   7.900  17.576  0.00  0.00    +0.000 A 
ENDBRANCH   1   3
BRANCH   1   9
ATOM      9  C   UNL     1       2.610   4.603  17.571  0.00  0.00    +0.000 C 
ATOM     10  C   UNL     1       3.260   3.274  17.127  0.00  0.00    +0.000 C 
ATOM     11  C   UNL     1       3.379   2.222  18.221  0.00  0.00    +0.000 C 
ATOM     12  C   UNL     1       2.056   1.952  18.924  0.00  0.00    +0.000 C 
ATOM     13  C   UNL     1       1.254   3.200  19.285  0.00  0.00    +0.000 C 
ATOM     14  C   UNL     1       1.235   4.268  18.198  0.00  0.00    +0.000 C 
ENDBRANCH   1   9
BRANCH   1  15
ATOM     15  C   UNL     1       4.836   5.959  17.615  0.00  0.00    +0.000 C 
ATOM     16  O   UNL     1       4.908   6.033  16.388  0.00  0.00    +0.000 OA
BRANCH  15  17
ATOM     17  O   UNL     1       5.906   6.163  18.435  0.00  0.00    +0.000 OA
BRANCH  17  18
ATOM     18  C   UNL     1       7.185   6.106  17.786  0.00  0.00    +0.000 C 
BRANCH  18  19
ATOM     19  C   UNL     1       8.126   7.128  18.420  0.00  0.00    +0.000 C 
BRANCH  19  20
ATOM     20  C   UNL     1       8.037   8.486  17.731  0.00  0.00    +0.000 C 
BRANCH  20  21
ATOM     21  C   UNL     1       8.823   9.539  18.517  0.00  0.00    +0.000 C 
BRANCH  21  22
ATOM     22  C   UNL     1       8.536  10.976  18.056  0.00  0.00    +0.000 C 
BRANCH  22  23
ATOM     23  N   UNL     1       9.515  11.983  18.507  0.00  0.00    +0.000 NA
BRANCH  23  25
ATOM     24  C   UNL     1      11.270  13.029  17.019  0.00  0.00    +0.000 C 
ATOM     25  C   UNL     1      10.817  11.824  17.836  0.00  0.00    +0.000 C 
ENDBRANCH  23  25
BRANCH  23  26
ATOM     26  C   UNL     1       8.959  13.345  18.430  0.00  0.00    +0.000 C 
ATOM     27  C   UNL     1       8.896  14.123  19.742  0.00  0.00    +0.000 C 
ENDBRANCH  23  26
ENDBRANCH  22  23
ENDBRANCH  21  22
ENDBRANCH  20  21
ENDBRANCH  19  20
ENDBRANCH  18  19
ENDBRANCH  17  18
ENDBRANCH  15  17
ENDBRANCH   1  15
TORSDOF 12
ENDMDL
MODEL 3
REMARK VINA RESULT:      -7.1      0.829      1.773
REMARK  Name = 
REMARK  15 active torsions:
REMARK  status: ('A' for Active; 'I' for Inactive)
REMARK    1  A    between atoms: C_1  and  C_2
REMARK    2  A    between atoms: C_2  and  N_3
REMARK    3  A    between atoms: N_3  and  C_4
REMARK    4  A    between atoms: N_3  and  C_6
REMARK    5  A    between atoms: C_4  and  C_5
REMARK    6  A    between atoms: C_6  and  C_7
REMARK    7  A    between atoms: C_7  and  C_8
REMARK    8  A    between atoms: C_8  and  C_9
REMARK    9  A    between atoms: C_9  and  C_10
REMARK   10  A    between atoms: C_10  and  O_11
REMARK   11  A    between atoms: O_11  and  C_12
REMARK   12  A    between atoms: C_12  and  C_14
REMARK   13  A    between atoms: C_14  and  C_15
REMARK   14  A    between atoms: C_14  and  C_16
REMARK   15  A    between atoms: C_14  and  C_22
REMARK                            x       y       z     vdW  Elec       q    Type
REMARK                         _______ _______ _______ _____ _____    ______ ____
ROOT
ATOM      1  C   UNL     1       4.151   4.824  17.989  0.00  0.00    +0.000 C 
ATOM      2  C   UNL     1       4.892   4.228  19.212  0.00  0.00    +0.000 C 
ENDROOT
BRANCH   1   3
ATOM      3  C   UNL     1       3.393   6.123  18.371  0.00  0.00    +0.000 A 
ATOM      4  C   UNL     1       2.838   6.267  19.655  0.00  0.00    +0.000 A 
ATOM      5  C   UNL     1       2.143   7.426  20.020  0.00  0.00    +0.000 A 
ATOM      6  C   UNL     1       1.980   8.462  19.112  0.00  0.00    +0.000 A 
ATOM      7  C   UNL     1       2.520   8.345  17.836  0.00  0.00    +0.000 A 
ATOM      8  C   UNL     1       3.224   7.197  17.472  0.00  0.00    +0.000 A 
ENDBRANCH   1   3
BRANCH   1   9
ATOM      9  C   UNL     1       3.149   3.797  17.289  0.00  0.00    +0.000 C 
ATOM     10  C   UNL     1       3.488   2.295  17.402  0.00  0.00    +0.000 C 
ATOM     11  C   UNL     1       3.133   1.657  18.737  0.00  0.00    +0.000 C 
ATOM     12  C   UNL     1       1.686   1.901  19.140  0.00  0.00    +0.000 C 
ATOM     13  C   UNL     1       1.195   3.332  18.936  0.00  0.00    +0.000 C 
ATOM     14  C   UNL     1       1.648   3.968  17.626  0.00  0.00    +0.000 C 
ENDBRANCH   1   9
BRANCH   1  15
ATOM     15  C   UNL     1       5.317   5.223  17.042  0.00  0.00    +0.000 C 
ATOM     16  O   UNL     1       5.258   5.147  15.814  0.00  0.00    +0.000 OA
BRANCH  15  17
ATOM     17  O   UNL     1       6.422   5.668  17.705  0.00  0.00    +0.000 OA
BRANCH  17  18
ATOM     18  C   UNL     1       7.122   6.742  17.061  0.00  0.00    +0.000 C 
BRANCH  18  19
ATOM     19  C   UNL     1       7.897   7.547  18.103  0.00  0.00    +0.000 C 
BRANCH  19  20
ATOM     20  C   UNL     1       8.243   8.944  17.600  0.00  0.00    +0.000 C 
BRANCH  20  21
ATOM     21  C   UNL     1       8.758   9.816  18.748  0.00  0.00    +0.000 C 
BRANCH  21  22
ATOM     22  C   UNL     1       9.194  11.218  18.294  0.00  0.00    +0.000 C 
BRANCH  22  23
ATOM     23  N   UNL     1       9.822  12.045  19.342  0.00  0.00    +0.000 NA
BRANCH  23  25
ATOM     24  C   UNL     1      10.061  14.348  18.327  0.00  0.00    +0.000 C 
ATOM     25  C   UNL     1       9.335  13.435  19.310  0.00  0.00    +0.000 C 
ENDBRANCH  23  25
BRANCH  23  26
ATOM     26  C   UNL     1       9.727  11.402  20.663  0.00  0.00    +0.000 C 
ATOM     27  C   UNL     1       9.117  12.244  21.782  0.00  0.00    +0.000 C 
ENDBRANCH  23  26
ENDBRANCH  22  23
ENDBRANCH  21  22
ENDBRANCH  20  21
ENDBRANCH  19  20
ENDBRANCH  18  19
ENDBRANCH  17  18
ENDBRANCH  15  17
ENDBRANCH   1  15
TORSDOF 12
ENDMDL
MODEL 4
REMARK VINA RESULT:      -7.0      0.860      1.275
REMARK  Name = 
REMARK  15 active torsions:
REMARK  status: ('A' for Active; 'I' for Inactive)
REMARK    1  A    between atoms: C_1  and  C_2
REMARK    2  A    between atoms: C_2  and  N_3
REMARK    3  A    between atoms: N_3  and  C_4
REMARK    4  A    between atoms: N_3  and  C_6
REMARK    5  A    between atoms: C_4  and  C_5
REMARK    6  A    between atoms: C_6  and  C_7
REMARK    7  A    between atoms: C_7  and  C_8
REMARK    8  A    between atoms: C_8  and  C_9
REMARK    9  A    between atoms: C_9  and  C_10
REMARK   10  A    between atoms: C_10  and  O_11
REMARK   11  A    between atoms: O_11  and  C_12
REMARK   12  A    between atoms: C_12  and  C_14
REMARK   13  A    between atoms: C_14  and  C_15
REMARK   14  A    between atoms: C_14  and  C_16
REMARK   15  A    between atoms: C_14  and  C_22
REMARK                            x       y       z     vdW  Elec       q    Type
REMARK                         _______ _______ _______ _____ _____    ______ ____
ROOT
ATOM      1  C   UNL     1       4.117   5.345  18.098  0.00  0.00    +0.000 C 
ATOM      2  C   UNL     1       4.891   4.811  19.331  0.00  0.00    +0.000 C 
ENDROOT
BRANCH   1   3
ATOM      3  C   UNL     1       3.194   6.530  18.487  0.00  0.00    +0.000 A 
ATOM      4  C   UNL     1       2.856   7.507  17.533  0.00  0.00    +0.000 A 
ATOM      5  C   UNL     1       2.032   8.589  17.863  0.00  0.00    +0.000 A 
ATOM      6  C   UNL     1       1.532   8.724  19.150  0.00  0.00    +0.000 A 
ATOM      7  C   UNL     1       1.851   7.772  20.112  0.00  0.00    +0.000 A 
ATOM      8  C   UNL     1       2.663   6.686  19.785  0.00  0.00    +0.000 A 
ENDBRANCH   1   3
BRANCH   1   9
ATOM      9  C   UNL     1       3.269   4.223  17.343  0.00  0.00    +0.000 C 
ATOM     10  C   UNL     1       3.722   2.757  17.525  0.00  0.00    +0.000 C 
ATOM     11  C   UNL     1       3.306   2.117  18.842  0.00  0.00    +0.000 C 
ATOM     12  C   UNL     1       1.813   2.244  19.112  0.00  0.00    +0.000 C 
ATOM     13  C   UNL     1       1.224   3.624  18.828  0.00  0.00    +0.000 C 
ATOM     14  C   UNL     1       1.736   4.271  17.546  0.00  0.00    +0.000 C 
ENDBRANCH   1   9
BRANCH   1  15
ATOM     15  C   UNL     1       5.252   5.909  17.199  0.00  0.00    +0.000 C 
ATOM     16  O   UNL     1       5.311   5.733  15.982  0.00  0.00    +0.000 OA
BRANCH  15  17
ATOM     17  O   UNL     1       6.184   6.624  17.892  0.00  0.00    +0.000 OA
BRANCH  17  18
ATOM     18  C   UNL     1       7.323   7.038  17.123  0.00  0.00    +0.000 C 
BRANCH  18  19
ATOM     19  C   UNL     1       8.240   7.899  17.990  0.00  0.00    +0.000 C 
BRANCH  19  20
ATOM     20  C   UNL     1       7.926   9.384  17.847  0.00  0.00    +0.000 C 
BRANCH  20  21
ATOM     21  C   UNL     1       8.882  10.220  18.701  0.00  0.00    +0.000 C 
BRANCH  21  22
ATOM     22  C   UNL     1       9.586  11.333  17.909  0.00  0.00    +0.000 C 
BRANCH  22  23
ATOM     23  N   UNL     1      10.378  12.273  18.723  0.00  0.00    +0.000 NA
BRANCH  23  25
ATOM     24  C   UNL     1      12.332  13.464  17.650  0.00  0.00    +0.000 C 
ATOM     25  C   UNL     1      11.810  12.230  18.379  0.00  0.00    +0.000 C 
ENDBRANCH  23  25
BRANCH  23  26
ATOM     26  C   UNL     1       9.793  13.625  18.704  0.00  0.00    +0.000 C 
ATOM     27  C   UNL     1       8.371  13.737  18.160  0.00  0.00    +0.000 C 
ENDBRANCH  23  26
ENDBRANCH  22  23
ENDBRANCH  21  22
ENDBRANCH  20  21
ENDBRANCH  19  20
ENDBRANCH  18  19
ENDBRANCH  17  18
ENDBRANCH  15  17
ENDBRANCH   1  15
TORSDOF 12
ENDMDL
MODEL 5
REMARK VINA RESULT:      -7.0      4.336      6.041
REMARK  Name = 
REMARK  15 active torsions:
REMARK  status: ('A' for Active; 'I' for Inactive)
REMARK    1  A    between atoms: C_1  and  C_2
REMARK    2  A    between atoms: C_2  and  N_3
REMARK    3  A    between atoms: N_3  and  C_4
REMARK    4  A    between atoms: N_3  and  C_6
REMARK    5  A    between atoms: C_4  and  C_5
REMARK    6  A    between atoms: C_6  and  C_7
REMARK    7  A    between atoms: C_7  and  C_8
REMARK    8  A    between atoms: C_8  and  C_9
REMARK    9  A    between atoms: C_9  and  C_10
REMARK   10  A    between atoms: C_10  and  O_11
REMARK   11  A    between atoms: O_11  and  C_12
REMARK   12  A    between atoms: C_12  and  C_14
REMARK   13  A    between atoms: C_14  and  C_15
REMARK   14  A    between atoms: C_14  and  C_16
REMARK   15  A    between atoms: C_14  and  C_22
REMARK                            x       y       z     vdW  Elec       q    Type
REMARK                         _______ _______ _______ _____ _____    ______ ____
ROOT
ATOM      1  C   UNL     1       3.177   5.344  19.115  0.00  0.00    +0.000 C 
ATOM      2  C   UNL     1       2.867   4.734  20.505  0.00  0.00    +0.000 C 
ENDROOT
BRANCH   1   3
ATOM      3  C   UNL     1       2.614   6.786  18.998  0.00  0.00    +0.000 A 
ATOM      4  C   UNL     1       1.980   7.391  20.099  0.00  0.00    +0.000 A 
ATOM      5  C   UNL     1       1.458   8.686  20.015  0.00  0.00    +0.000 A 
ATOM      6  C   UNL     1       1.550   9.405  18.832  0.00  0.00    +0.000 A 
ATOM      7  C   UNL     1       2.172   8.831  17.729  0.00  0.00    +0.000 A 
ATOM      8  C   UNL     1       2.704   7.544  17.812  0.00  0.00    +0.000 A 
ENDBRANCH   1   3
BRANCH   1   9
ATOM      9  C   UNL     1       2.648   4.457  17.897  0.00  0.00    +0.000 C 
ATOM     10  C   UNL     1       3.462   3.193  17.544  0.00  0.00    +0.000 C 
ATOM     11  C   UNL     1       3.219   1.999  18.456  0.00  0.00    +0.000 C 
ATOM     12  C   UNL     1       1.743   1.654  18.593  0.00  0.00    +0.000 C 
ATOM     13  C   UNL     1       0.820   2.852  18.805  0.00  0.00    +0.000 C 
ATOM     14  C   UNL     1       1.153   4.060  17.938  0.00  0.00    +0.000 C 
ENDBRANCH   1   9
BRANCH   1  15
ATOM     15  C   UNL     1       4.727   5.445  19.121  0.00  0.00    +0.000 C 
ATOM     16  O   UNL     1       5.439   4.978  20.010  0.00  0.00    +0.000 OA
BRANCH  15  17
ATOM     17  O   UNL     1       5.229   6.106  18.039  0.00  0.00    +0.000 OA
BRANCH  17  18
ATOM     18  C   UNL     1       6.542   5.693  17.633  0.00  0.00    +0.000 C 
BRANCH  18  19
ATOM     19  C   UNL     1       6.762   6.057  16.166  0.00  0.00    +0.000 C 
BRANCH  19  20
ATOM     20  C   UNL     1       5.501   5.852  15.334  0.00  0.00    +0.000 C 
BRANCH  20  21
ATOM     21  C   UNL     1       5.247   4.360  15.104  0.00  0.00    +0.000 C 
BRANCH  21  22
ATOM     22  C   UNL     1       6.257   3.715  14.143  0.00  0.00    +0.000 C 
BRANCH  22  23
ATOM     23  N   UNL     1       6.079   4.066  12.722  0.00  0.00    +0.000 NA
BRANCH  23  25
ATOM     24  C   UNL     1       8.115   5.558  12.597  0.00  0.00    +0.000 C 
ATOM     25  C   UNL     1       7.363   4.345  12.058  0.00  0.00    +0.000 C 
ENDBRANCH  23  25
BRANCH  23  26
ATOM     26  C   UNL     1       5.241   3.076  12.025  0.00  0.00    +0.000 C 
ATOM     27  C   UNL     1       5.962   1.843  11.484  0.00  0.00    +0.000 C 
ENDBRANCH  23  26
ENDBRANCH  22  23
ENDBRANCH  21  22
ENDBRANCH  20  21
ENDBRANCH  19  20
ENDBRANCH  18  19
ENDBRANCH  17  18
ENDBRANCH  15  17
ENDBRANCH   1  15
TORSDOF 12
ENDMDL
MODEL 6
REMARK VINA RESULT:      -6.9      0.586      1.143
REMARK  Name = 
REMARK  15 active torsions:
REMARK  status: ('A' for Active; 'I' for Inactive)
REMARK    1  A    between atoms: C_1  and  C_2
REMARK    2  A    between atoms: C_2  and  N_3
REMARK    3  A    between atoms: N_3  and  C_4
REMARK    4  A    between atoms: N_3  and  C_6
REMARK    5  A    between atoms: C_4  and  C_5
REMARK    6  A    between atoms: C_6  and  C_7
REMARK    7  A    between atoms: C_7  and  C_8
REMARK    8  A    between atoms: C_8  and  C_9
REMARK    9  A    between atoms: C_9  and  C_10
REMARK   10  A    between atoms: C_10  and  O_11
REMARK   11  A    between atoms: O_11  and  C_12
REMARK   12  A    between atoms: C_12  and  C_14
REMARK   13  A    between atoms: C_14  and  C_15
REMARK   14  A    between atoms: C_14  and  C_16
REMARK   15  A    between atoms: C_14  and  C_22
REMARK                            x       y       z     vdW  Elec       q    Type
REMARK                         _______ _______ _______ _____ _____    ______ ____
ROOT
ATOM      1  C   UNL     1       3.932   5.465  18.094  0.00  0.00    +0.000 C 
ATOM      2  C   UNL     1       4.708   4.921  19.321  0.00  0.00    +0.000 C 
ENDROOT
BRANCH   1   3
ATOM      3  C   UNL     1       3.079   6.705  18.475  0.00  0.00    +0.000 A 
ATOM      4  C   UNL     1       2.538   6.822  19.768  0.00  0.00    +0.000 A 
ATOM      5  C   UNL     1       1.759   7.926  20.131  0.00  0.00    +0.000 A 
ATOM      6  C   UNL     1       1.499   8.934  19.214  0.00  0.00    +0.000 A 
ATOM      7  C   UNL     1       2.023   8.843  17.930  0.00  0.00    +0.000 A 
ATOM      8  C   UNL     1       2.810   7.749  17.567  0.00  0.00    +0.000 A 
ENDBRANCH   1   3
BRANCH   1   9
ATOM      9  C   UNL     1       3.010   4.370  17.387  0.00  0.00    +0.000 C 
ATOM     10  C   UNL     1       3.540   2.920  17.354  0.00  0.00    +0.000 C 
ATOM     11  C   UNL     1       3.374   2.148  18.656  0.00  0.00    +0.000 C 
ATOM     12  C   UNL     1       1.945   2.175  19.178  0.00  0.00    +0.000 C 
ATOM     13  C   UNL     1       1.267   3.542  19.125  0.00  0.00    +0.000 C 
ATOM     14  C   UNL     1       1.532   4.322  17.843  0.00  0.00    +0.000 C 
ENDBRANCH   1   9
BRANCH   1  15
ATOM     15  C   UNL     1       5.071   5.950  17.154  0.00  0.00    +0.000 C 
ATOM     16  O   UNL     1       4.994   5.940  15.926  0.00  0.00    +0.000 OA
BRANCH  15  17
ATOM     17  O   UNL     1       6.173   6.390  17.826  0.00  0.00    +0.000 OA
BRANCH  17  18
ATOM     18  C   UNL     1       6.507   7.768  17.601  0.00  0.00    +0.000 C 
BRANCH  18  19
ATOM     19  C   UNL     1       8.025   7.921  17.527  0.00  0.00    +0.000 C 
BRANCH  19  20
ATOM     20  C   UNL     1       8.561   8.814  18.641  0.00  0.00    +0.000 C 
BRANCH  20  21
ATOM     21  C   UNL     1       8.843  10.222  18.112  0.00  0.00    +0.000 C 
BRANCH  21  22
ATOM     22  C   UNL     1       9.469  11.150  19.164  0.00  0.00    +0.000 C 
BRANCH  22  23
ATOM     23  N   UNL     1       9.840  12.490  18.673  0.00  0.00    +0.000 NA
BRANCH  23  25
ATOM     24  C   UNL     1       8.314  14.148  19.819  0.00  0.00    +0.000 C 
ATOM     25  C   UNL     1       9.700  13.518  19.718  0.00  0.00    +0.000 C 
ENDBRANCH  23  25
BRANCH  23  26
ATOM     26  C   UNL     1      11.156  12.476  18.012  0.00  0.00    +0.000 C 
ATOM     27  C   UNL     1      11.272  13.282  16.721  0.00  0.00    +0.000 C 
ENDBRANCH  23  26
ENDBRANCH  22  23
ENDBRANCH  21  22
ENDBRANCH  20  21
ENDBRANCH  19  20
ENDBRANCH  18  19
ENDBRANCH  17  18
ENDBRANCH  15  17
ENDBRANCH   1  15
TORSDOF 12
ENDMDL
MODEL 7
REMARK VINA RESULT:      -6.8      2.428      4.443
REMARK  Name = 
REMARK  15 active torsions:
REMARK  status: ('A' for Active; 'I' for Inactive)
REMARK    1  A    between atoms: C_1  and  C_2
REMARK    2  A    between atoms: C_2  and  N_3
REMARK    3  A    between atoms: N_3  and  C_4
REMARK    4  A    between atoms: N_3  and  C_6
REMARK    5  A    between atoms: C_4  and  C_5
REMARK    6  A    between atoms: C_6  and  C_7
REMARK    7  A    between atoms: C_7  and  C_8
REMARK    8  A    between atoms: C_8  and  C_9
REMARK    9  A    between atoms: C_9  and  C_10
REMARK   10  A    between atoms: C_10  and  O_11
REMARK   11  A    between atoms: O_11  and  C_12
REMARK   12  A    between atoms: C_12  and  C_14
REMARK   13  A    between atoms: C_14  and  C_15
REMARK   14  A    between atoms: C_14  and  C_16
REMARK   15  A    between atoms: C_14  and  C_22
REMARK                            x       y       z     vdW  Elec       q    Type
REMARK                         _______ _______ _______ _____ _____    ______ ____
ROOT
ATOM      1  C   UNL     1       5.801   5.372  16.133  0.00  0.00    +0.000 C 
ATOM      2  C   UNL     1       4.946   6.660  16.028  0.00  0.00    +0.000 C 
ENDROOT
BRANCH   1   3
ATOM      3  C   UNL     1       6.229   4.867  14.729  0.00  0.00    +0.000 A 
ATOM      4  C   UNL     1       5.493   3.856  14.085  0.00  0.00    +0.000 A 
ATOM      5  C   UNL     1       5.865   3.380  12.823  0.00  0.00    +0.000 A 
ATOM      6  C   UNL     1       6.979   3.895  12.178  0.00  0.00    +0.000 A 
ATOM      7  C   UNL     1       7.723   4.896  12.792  0.00  0.00    +0.000 A 
ATOM      8  C   UNL     1       7.350   5.382  14.046  0.00  0.00    +0.000 A 
ENDBRANCH   1   3
BRANCH   1   9
ATOM      9  C   UNL     1       5.083   4.194  16.936  0.00  0.00    +0.000 C 
ATOM     10  C   UNL     1       5.399   4.076  18.444  0.00  0.00    +0.000 C 
ATOM     11  C   UNL     1       4.660   5.066  19.332  0.00  0.00    +0.000 C 
ATOM     12  C   UNL     1       3.155   5.050  19.107  0.00  0.00    +0.000 C 
ATOM     13  C   UNL     1       2.725   5.022  17.642  0.00  0.00    +0.000 C 
ATOM     14  C   UNL     1       3.549   4.085  16.766  0.00  0.00    +0.000 C 
ENDBRANCH   1   9
BRANCH   1  15
ATOM     15  C   UNL     1       7.080   5.868  16.863  0.00  0.00    +0.000 C 
ATOM     16  O   UNL     1       7.986   5.122  17.238  0.00  0.00    +0.000 OA
BRANCH  15  17
ATOM     17  O   UNL     1       7.105   7.218  17.051  0.00  0.00    +0.000 OA
BRANCH  17  18
ATOM     18  C   UNL     1       8.050   7.676  18.029  0.00  0.00    +0.000 C 
BRANCH  18  19
ATOM     19  C   UNL     1       8.265   9.180  17.868  0.00  0.00    +0.000 C 
BRANCH  19  20
ATOM     20  C   UNL     1       8.929   9.793  19.096  0.00  0.00    +0.000 C 
BRANCH  20  21
ATOM     21  C   UNL     1       9.405  11.216  18.795  0.00  0.00    +0.000 C 
BRANCH  21  22
ATOM     22  C   UNL     1      10.925  11.388  18.932  0.00  0.00    +0.000 C 
BRANCH  22  23
ATOM     23  N   UNL     1      11.409  12.776  18.817  0.00  0.00    +0.000 NA
BRANCH  23  25
ATOM     24  C   UNL     1      11.730  13.510  16.420  0.00  0.00    +0.000 C 
ATOM     25  C   UNL     1      10.831  13.467  17.652  0.00  0.00    +0.000 C 
ENDBRANCH  23  25
BRANCH  23  26
ATOM     26  C   UNL     1      11.256  13.505  20.088  0.00  0.00    +0.000 C 
ATOM     27  C   UNL     1      10.706  14.927  19.989  0.00  0.00    +0.000 C 
ENDBRANCH  23  26
ENDBRANCH  22  23
ENDBRANCH  21  22
ENDBRANCH  20  21
ENDBRANCH  19  20
ENDBRANCH  18  19
ENDBRANCH  17  18
ENDBRANCH  15  17
ENDBRANCH   1  15
TORSDOF 12
ENDMDL
MODEL 8
REMARK VINA RESULT:      -6.8      0.954      1.399
REMARK  Name = 
REMARK  15 active torsions:
REMARK  status: ('A' for Active; 'I' for Inactive)
REMARK    1  A    between atoms: C_1  and  C_2
REMARK    2  A    between atoms: C_2  and  N_3
REMARK    3  A    between atoms: N_3  and  C_4
REMARK    4  A    between atoms: N_3  and  C_6
REMARK    5  A    between atoms: C_4  and  C_5
REMARK    6  A    between atoms: C_6  and  C_7
REMARK    7  A    between atoms: C_7  and  C_8
REMARK    8  A    between atoms: C_8  and  C_9
REMARK    9  A    between atoms: C_9  and  C_10
REMARK   10  A    between atoms: C_10  and  O_11
REMARK   11  A    between atoms: O_11  and  C_12
REMARK   12  A    between atoms: C_12  and  C_14
REMARK   13  A    between atoms: C_14  and  C_15
REMARK   14  A    between atoms: C_14  and  C_16
REMARK   15  A    between atoms: C_14  and  C_22
REMARK                            x       y       z     vdW  Elec       q    Type
REMARK                         _______ _______ _______ _____ _____    ______ ____
ROOT
ATOM      1  C   UNL     1       4.244   5.178  18.021  0.00  0.00    +0.000 C 
ATOM      2  C   UNL     1       4.985   4.662  19.281  0.00  0.00    +0.000 C 
ENDROOT
BRANCH   1   3
ATOM      3  C   UNL     1       3.378   6.423  18.350  0.00  0.00    +0.000 A 
ATOM      4  C   UNL     1       2.757   6.542  19.606  0.00  0.00    +0.000 A 
ATOM      5  C   UNL     1       1.965   7.651  19.922  0.00  0.00    +0.000 A 
ATOM      6  C   UNL     1       1.770   8.662  18.993  0.00  0.00    +0.000 A 
ATOM      7  C   UNL     1       2.373   8.569  17.744  0.00  0.00    +0.000 A 
ATOM      8  C   UNL     1       3.173   7.470  17.428  0.00  0.00    +0.000 A 
ENDBRANCH   1   3
BRANCH   1   9
ATOM      9  C   UNL     1       3.346   4.066  17.310  0.00  0.00    +0.000 C 
ATOM     10  C   UNL     1       3.751   2.591  17.526  0.00  0.00    +0.000 C 
ATOM     11  C   UNL     1       3.333   2.002  18.866  0.00  0.00    +0.000 C 
ATOM     12  C   UNL     1       1.851   2.189  19.155  0.00  0.00    +0.000 C 
ATOM     13  C   UNL     1       1.306   3.580  18.842  0.00  0.00    +0.000 C 
ATOM     14  C   UNL     1       1.818   4.173  17.535  0.00  0.00    +0.000 C 
ENDBRANCH   1   9
BRANCH   1  15
ATOM     15  C   UNL     1       5.409   5.645  17.105  0.00  0.00    +0.000 C 
ATOM     16  O   UNL     1       5.427   5.484  15.885  0.00  0.00    +0.000 OA
BRANCH  15  17
ATOM     17  O   UNL     1       6.419   6.256  17.787  0.00  0.00    +0.000 OA
BRANCH  17  18
ATOM     18  C   UNL     1       6.688   7.608  17.388  0.00  0.00    +0.000 C 
BRANCH  18  19
ATOM     19  C   UNL     1       8.013   8.068  17.994  0.00  0.00    +0.000 C 
BRANCH  19  20
ATOM     20  C   UNL     1       8.210   9.573  17.852  0.00  0.00    +0.000 C 
BRANCH  20  21
ATOM     21  C   UNL     1       9.463  10.024  18.609  0.00  0.00    +0.000 C 
BRANCH  21  22
ATOM     22  C   UNL     1       9.148  10.696  19.954  0.00  0.00    +0.000 C 
BRANCH  22  23
ATOM     23  N   UNL     1       9.793  12.006  20.162  0.00  0.00    +0.000 NA
BRANCH  23  25
ATOM     24  C   UNL     1       9.570  14.260  21.284  0.00  0.00    +0.000 C 
ATOM     25  C   UNL     1       9.069  12.826  21.149  0.00  0.00    +0.000 C 
ENDBRANCH  23  25
BRANCH  23  26
ATOM     26  C   UNL     1      11.232  11.859  20.439  0.00  0.00    +0.000 C 
ATOM     27  C   UNL     1      12.183  12.354  19.352  0.00  0.00    +0.000 C 
ENDBRANCH  23  26
ENDBRANCH  22  23
ENDBRANCH  21  22
ENDBRANCH  20  21
ENDBRANCH  19  20
ENDBRANCH  18  19
ENDBRANCH  17  18
ENDBRANCH  15  17
ENDBRANCH   1  15
TORSDOF 12
ENDMDL
MODEL 9
REMARK VINA RESULT:      -6.8      0.835      1.033
REMARK  Name = 
REMARK  15 active torsions:
REMARK  status: ('A' for Active; 'I' for Inactive)
REMARK    1  A    between atoms: C_1  and  C_2
REMARK    2  A    between atoms: C_2  and  N_3
REMARK    3  A    between atoms: N_3  and  C_4
REMARK    4  A    between atoms: N_3  and  C_6
REMARK    5  A    between atoms: C_4  and  C_5
REMARK    6  A    between atoms: C_6  and  C_7
REMARK    7  A    between atoms: C_7  and  C_8
REMARK    8  A    between atoms: C_8  and  C_9
REMARK    9  A    between atoms: C_9  and  C_10
REMARK   10  A    between atoms: C_10  and  O_11
REMARK   11  A    between atoms: O_11  and  C_12
REMARK   12  A    between atoms: C_12  and  C_14
REMARK   13  A    between atoms: C_14  and  C_15
REMARK   14  A    between atoms: C_14  and  C_16
REMARK   15  A    between atoms: C_14  and  C_22
REMARK                            x       y       z     vdW  Elec       q    Type
REMARK                         _______ _______ _______ _____ _____    ______ ____
ROOT
ATOM      1  C   UNL     1       4.556   4.438  18.312  0.00  0.00    +0.000 C 
ATOM      2  C   UNL     1       5.181   3.930  19.636  0.00  0.00    +0.000 C 
ENDROOT
BRANCH   1   3
ATOM      3  C   UNL     1       3.701   5.711  18.549  0.00  0.00    +0.000 A 
ATOM      4  C   UNL     1       3.607   6.697  17.550  0.00  0.00    +0.000 A 
ATOM      5  C   UNL     1       2.848   7.857  17.744  0.00  0.00    +0.000 A 
ATOM      6  C   UNL     1       2.173   8.062  18.938  0.00  0.00    +0.000 A 
ATOM      7  C   UNL     1       2.249   7.103  19.941  0.00  0.00    +0.000 A 
ATOM      8  C   UNL     1       2.994   5.940  19.748  0.00  0.00    +0.000 A 
ENDBRANCH   1   3
BRANCH   1   9
ATOM      9  C   UNL     1       3.686   3.335  17.554  0.00  0.00    +0.000 C 
ATOM     10  C   UNL     1       3.439   2.002  18.295  0.00  0.00    +0.000 C 
ATOM     11  C   UNL     1       2.353   2.055  19.361  0.00  0.00    +0.000 C 
ATOM     12  C   UNL     1       1.040   2.618  18.837  0.00  0.00    +0.000 C 
ATOM     13  C   UNL     1       1.178   3.864  17.966  0.00  0.00    +0.000 C 
ATOM     14  C   UNL     1       2.333   3.810  16.973  0.00  0.00    +0.000 C 
ENDBRANCH   1   9
BRANCH   1  15
ATOM     15  C   UNL     1       5.802   4.856  17.483  0.00  0.00    +0.000 C 
ATOM     16  O   UNL     1       6.116   4.337  16.411  0.00  0.00    +0.000 OA
BRANCH  15  17
ATOM     17  O   UNL     1       6.520   5.862  18.059  0.00  0.00    +0.000 OA
BRANCH  17  18
ATOM     18  C   UNL     1       7.457   6.512  17.188  0.00  0.00    +0.000 C 
BRANCH  18  19
ATOM     19  C   UNL     1       7.423   8.020  17.434  0.00  0.00    +0.000 C 
BRANCH  19  20
ATOM     20  C   UNL     1       8.455   8.449  18.471  0.00  0.00    +0.000 C 
BRANCH  20  21
ATOM     21  C   UNL     1       8.673   9.963  18.417  0.00  0.00    +0.000 C 
BRANCH  21  22
ATOM     22  C   UNL     1       9.791  10.447  19.353  0.00  0.00    +0.000 C 
BRANCH  22  23
ATOM     23  N   UNL     1      10.166  11.865  19.196  0.00  0.00    +0.000 NA
BRANCH  23  25
ATOM     24  C   UNL     1       9.957  14.000  20.532  0.00  0.00    +0.000 C 
ATOM     25  C   UNL     1      10.363  12.530  20.495  0.00  0.00    +0.000 C 
ENDBRANCH  23  25
BRANCH  23  26
ATOM     26  C   UNL     1      11.292  12.022  18.260  0.00  0.00    +0.000 C 
ATOM     27  C   UNL     1      11.078  12.993  17.101  0.00  0.00    +0.000 C 
ENDBRANCH  23  26
ENDBRANCH  22  23
ENDBRANCH  21  22
ENDBRANCH  20  21
ENDBRANCH  19  20
ENDBRANCH  18  19
ENDBRANCH  17  18
ENDBRANCH  15  17
ENDBRANCH   1  15
TORSDOF 12
ENDMDL
