MODEL 1
REMARK VINA RESULT:      -6.8      0.000      0.000
REMARK  Name = 
REMARK  8 active torsions:
REMARK  status: ('A' for Active; 'I' for Inactive)
REMARK    1  A    between atoms: C_1  and  C_2
REMARK    2  A    between atoms: C_2  and  N_3
REMARK    3  A    between atoms: C_7  and  S_8
REMARK    4  A    between atoms: S_8  and  N_11
REMARK    5  A    between atoms: N_11  and  C_12
REMARK    6  A    between atoms: C_12  and  C_13
REMARK    7  A    between atoms: C_13  and  C_14
REMARK    8  A    between atoms: C_14  and  N_15
REMARK                            x       y       z     vdW  Elec       q    Type
REMARK                         _______ _______ _______ _____ _____    ______ ____
ROOT
ATOM      1  N   UNL     1       2.381   5.269  17.862  0.00  0.00    +0.000 NA
ATOM      2  H   UNL     1       3.073   5.629  17.212  0.00  0.00    +0.000 HD
ENDROOT
BRANCH   1   3
ATOM      3  S   UNL     1       2.507   6.065  19.344  0.00  0.00    +0.000 S 
ATOM      4  O   UNL     1       3.881   6.030  19.769  0.00  0.00    +0.000 OA
ATOM      5  O   UNL     1       1.414   5.589  20.159  0.00  0.00    +0.000 OA
BRANCH   3  10
ATOM      6  N   UNL     1       1.505   8.610  19.956  0.00  0.00    +0.000 N 
ATOM      7  N   UNL     1       1.238   9.836  19.444  0.00  0.00    +0.000 NA
ATOM      8  C   UNL     1       1.580   9.743  18.163  0.00  0.00    +0.000 A 
ATOM      9  C   UNL     1       2.116   8.486  17.859  0.00  0.00    +0.000 A 
ATOM     10  C   UNL     1       2.071   7.751  19.040  0.00  0.00    +0.000 A 
BRANCH   6  12
ATOM     11  C   UNL     1      -0.291   8.612  21.631  0.00  0.00    +0.000 C 
ATOM     12  C   UNL     1       1.189   8.412  21.359  0.00  0.00    +0.000 C 
ENDBRANCH   6  12
ENDBRANCH   3  10
ENDBRANCH   1   3
BRANCH   1  13
ATOM     13  C   UNL     1       2.210   3.810  17.914  0.00  0.00    +0.000 C 
BRANCH  13  14
ATOM     14  C   UNL     1       3.574   3.108  17.863  0.00  0.00    +0.000 C 
ATOM     15  C   UNL     1       4.160   2.659  19.189  0.00  0.00    +0.000 C 
ATOM     16  C   UNL     1       3.591   1.637  18.245  0.00  0.00    +0.000 C 
BRANCH  14  17
ATOM     17  C   UNL     1       4.442   3.695  16.767  0.00  0.00    +0.000 C 
BRANCH  17  18
ATOM     18  N   UNL     1       4.968   5.065  16.666  0.00  0.00    +0.000 NA
ATOM     19  C   UNL     1       5.496   5.237  15.270  0.00  0.00    +0.000 C 
ATOM     20  C   UNL     1       6.759   4.391  14.972  0.00  0.00    +0.000 C 
ATOM     21  O   UNL     1       7.807   4.640  15.915  0.00  0.00    +0.000 OA
ATOM     22  C   UNL     1       7.365   4.526  17.275  0.00  0.00    +0.000 C 
ATOM     23  C   UNL     1       6.116   5.382  17.541  0.00  0.00    +0.000 C 
ENDBRANCH  17  18
ENDBRANCH  14  17
ENDBRANCH  13  14
ENDBRANCH   1  13
TORSDOF 7
ENDMDL
MODEL 2
REMARK VINA RESULT:      -6.4      0.804      1.348
REMARK  Name = 
REMARK  8 active torsions:
REMARK  status: ('A' for Active; 'I' for Inactive)
REMARK    1  A    between atoms: C_1  and  C_2
REMARK    2  A    between atoms: C_2  and  N_3
REMARK    3  A    between atoms: C_7  and  S_8
REMARK    4  A    between atoms: S_8  and  N_11
REMARK    5  A    between atoms: N_11  and  C_12
REMARK    6  A    between atoms: C_12  and  C_13
REMARK    7  A    between atoms: C_13  and  C_14
REMARK    8  A    between atoms: C_14  and  N_15
REMARK                            x       y       z     vdW  Elec       q    Type
REMARK                         _______ _______ _______ _____ _____    ______ ____
ROOT
ATOM      1  N   UNL     1       2.159   5.130  18.117  0.00  0.00    +0.000 NA
ATOM      2  H   UNL     1       2.706   5.447  17.322  0.00  0.00    +0.000 HD
ENDROOT
BRANCH   1   3
ATOM      3  S   UNL     1       2.534   6.049  19.482  0.00  0.00    +0.000 S 
ATOM      4  O   UNL     1       3.957   6.004  19.690  0.00  0.00    +0.000 OA
ATOM      5  O   UNL     1       1.573   5.684  20.497  0.00  0.00    +0.000 OA
BRANCH   3  10
ATOM      6  N   UNL     1       1.512   8.614  19.964  0.00  0.00    +0.000 N 
ATOM      7  N   UNL     1       1.242   9.812  19.393  0.00  0.00    +0.000 NA
ATOM      8  C   UNL     1       1.593   9.660  18.121  0.00  0.00    +0.000 A 
ATOM      9  C   UNL     1       2.138   8.394  17.880  0.00  0.00    +0.000 A 
ATOM     10  C   UNL     1       2.090   7.716  19.094  0.00  0.00    +0.000 A 
BRANCH   6  12
ATOM     11  C   UNL     1      -0.309   8.572  21.612  0.00  0.00    +0.000 C 
ATOM     12  C   UNL     1       1.187   8.481  21.374  0.00  0.00    +0.000 C 
ENDBRANCH   6  12
ENDBRANCH   3  10
ENDBRANCH   1   3
BRANCH   1  13
ATOM     13  C   UNL     1       2.048   3.678  18.315  0.00  0.00    +0.000 C 
BRANCH  13  14
ATOM     14  C   UNL     1       3.410   3.002  18.103  0.00  0.00    +0.000 C 
ATOM     15  C   UNL     1       4.124   2.503  19.346  0.00  0.00    +0.000 C 
ATOM     16  C   UNL     1       3.481   1.516  18.412  0.00  0.00    +0.000 C 
BRANCH  14  17
ATOM     17  C   UNL     1       4.164   3.654  16.960  0.00  0.00    +0.000 C 
BRANCH  17  18
ATOM     18  N   UNL     1       5.617   3.831  16.820  0.00  0.00    +0.000 NA
ATOM     19  C   UNL     1       5.951   5.201  17.338  0.00  0.00    +0.000 C 
ATOM     20  C   UNL     1       5.406   6.352  16.456  0.00  0.00    +0.000 C 
ATOM     21  O   UNL     1       5.837   6.235  15.095  0.00  0.00    +0.000 OA
ATOM     22  C   UNL     1       5.580   4.935  14.543  0.00  0.00    +0.000 C 
ATOM     23  C   UNL     1       6.139   3.818  15.438  0.00  0.00    +0.000 C 
ENDBRANCH  17  18
ENDBRANCH  14  17
ENDBRANCH  13  14
ENDBRANCH   1  13
TORSDOF 7
ENDMDL
MODEL 3
REMARK VINA RESULT:      -6.4      1.675      2.289
REMARK  Name = 
REMARK  8 active torsions:
REMARK  status: ('A' for Active; 'I' for Inactive)
REMARK    1  A    between atoms: C_1  and  C_2
REMARK    2  A    between atoms: C_2  and  N_3
REMARK    3  A    between atoms: C_7  and  S_8
REMARK    4  A    between atoms: S_8  and  N_11
REMARK    5  A    between atoms: N_11  and  C_12
REMARK    6  A    between atoms: C_12  and  C_13
REMARK    7  A    between atoms: C_13  and  C_14
REMARK    8  A    between atoms: C_14  and  N_15
REMARK                            x       y       z     vdW  Elec       q    Type
REMARK                         _______ _______ _______ _____ _____    ______ ____
ROOT
ATOM      1  N   UNL     1       3.416   6.378  19.710  0.00  0.00    +0.000 NA
ATOM      2  H   UNL     1       3.188   7.016  20.466  0.00  0.00    +0.000 HD
ENDROOT
BRANCH   1   3
ATOM      3  S   UNL     1       2.739   6.925  18.265  0.00  0.00    +0.000 S 
ATOM      4  O   UNL     1       1.705   6.007  17.865  0.00  0.00    +0.000 OA
ATOM      5  O   UNL     1       3.843   7.295  17.410  0.00  0.00    +0.000 OA
BRANCH   3  10
ATOM      6  N   UNL     1       1.362   8.810  19.816  0.00  0.00    +0.000 N 
ATOM      7  N   UNL     1       0.832  10.057  19.812  0.00  0.00    +0.000 NA
ATOM      8  C   UNL     1       1.059  10.510  18.583  0.00  0.00    +0.000 A 
ATOM      9  C   UNL     1       1.778   9.588  17.814  0.00  0.00    +0.000 A 
ATOM     10  C   UNL     1       1.980   8.479  18.630  0.00  0.00    +0.000 A 
BRANCH   6  12
ATOM     11  C   UNL     1       1.027   8.965  22.244  0.00  0.00    +0.000 C 
ATOM     12  C   UNL     1       1.224   8.052  21.047  0.00  0.00    +0.000 C 
ENDBRANCH   6  12
ENDBRANCH   3  10
ENDBRANCH   1   3
BRANCH   1  13
ATOM     13  C   UNL     1       3.292   4.940  19.990  0.00  0.00    +0.000 C 
BRANCH  13  14
ATOM     14  C   UNL     1       4.419   4.159  19.300  0.00  0.00    +0.000 C 
ATOM     15  C   UNL     1       4.530   2.683  19.634  0.00  0.00    +0.000 C 
ATOM     16  C   UNL     1       3.991   3.104  18.295  0.00  0.00    +0.000 C 
BRANCH  14  17
ATOM     17  C   UNL     1       5.648   5.030  19.124  0.00  0.00    +0.000 C 
BRANCH  17  18
ATOM     18  N   UNL     1       6.982   4.626  18.653  0.00  0.00    +0.000 NA
ATOM     19  C   UNL     1       7.920   5.764  18.942  0.00  0.00    +0.000 C 
ATOM     20  C   UNL     1       7.651   7.027  18.086  0.00  0.00    +0.000 C 
ATOM     21  O   UNL     1       7.665   6.738  16.683  0.00  0.00    +0.000 OA
ATOM     22  C   UNL     1       6.815   5.634  16.337  0.00  0.00    +0.000 C 
ATOM     23  C   UNL     1       7.112   4.397  17.199  0.00  0.00    +0.000 C 
ENDBRANCH  17  18
ENDBRANCH  14  17
ENDBRANCH  13  14
ENDBRANCH   1  13
TORSDOF 7
ENDMDL
MODEL 4
REMARK VINA RESULT:      -6.3      2.331      6.665
REMARK  Name = 
REMARK  8 active torsions:
REMARK  status: ('A' for Active; 'I' for Inactive)
REMARK    1  A    between atoms: C_1  and  C_2
REMARK    2  A    between atoms: C_2  and  N_3
REMARK    3  A    between atoms: C_7  and  S_8
REMARK    4  A    between atoms: S_8  and  N_11
REMARK    5  A    between atoms: N_11  and  C_12
REMARK    6  A    between atoms: C_12  and  C_13
REMARK    7  A    between atoms: C_13  and  C_14
REMARK    8  A    between atoms: C_14  and  N_15
REMARK                            x       y       z     vdW  Elec       q    Type
REMARK                         _______ _______ _______ _____ _____    ______ ____
ROOT
ATOM      1  N   UNL     1       3.579   5.277  18.269  0.00  0.00    +0.000 NA
ATOM      2  H   UNL     1       2.702   5.131  17.778  0.00  0.00    +0.000 HD
ENDROOT
BRANCH   1   3
ATOM      3  S   UNL     1       4.601   3.955  18.035  0.00  0.00    +0.000 S 
ATOM      4  O   UNL     1       3.826   2.860  17.516  0.00  0.00    +0.000 OA
ATOM      5  O   UNL     1       5.416   3.854  19.224  0.00  0.00    +0.000 OA
BRANCH   3  10
ATOM      6  N   UNL     1       6.644   5.496  16.892  0.00  0.00    +0.000 N 
ATOM      7  N   UNL     1       7.396   5.667  15.778  0.00  0.00    +0.000 NA
ATOM      8  C   UNL     1       6.947   4.748  14.930  0.00  0.00    +0.000 A 
ATOM      9  C   UNL     1       5.952   3.951  15.507  0.00  0.00    +0.000 A 
ATOM     10  C   UNL     1       5.763   4.441  16.795  0.00  0.00    +0.000 A 
BRANCH   6  12
ATOM     11  C   UNL     1       7.646   7.646  17.529  0.00  0.00    +0.000 C 
ATOM     12  C   UNL     1       6.901   6.408  17.993  0.00  0.00    +0.000 C 
ENDBRANCH   6  12
ENDBRANCH   3  10
ENDBRANCH   1   3
BRANCH   1  13
ATOM     13  C   UNL     1       3.495   5.808  19.638  0.00  0.00    +0.000 C 
BRANCH  13  14
ATOM     14  C   UNL     1       2.115   5.519  20.242  0.00  0.00    +0.000 C 
ATOM     15  C   UNL     1       1.411   4.261  19.767  0.00  0.00    +0.000 C 
ATOM     16  C   UNL     1       2.015   4.299  21.143  0.00  0.00    +0.000 C 
BRANCH  14  17
ATOM     17  C   UNL     1       1.357   6.807  20.496  0.00  0.00    +0.000 C 
BRANCH  17  18
ATOM     18  N   UNL     1       1.898   8.171  20.595  0.00  0.00    +0.000 NA
ATOM     19  C   UNL     1       1.401   8.755  21.887  0.00  0.00    +0.000 C 
ATOM     20  C   UNL     1      -0.125   9.020  21.905  0.00  0.00    +0.000 C 
ATOM     21  O   UNL     1      -0.541   9.847  20.813  0.00  0.00    +0.000 OA
ATOM     22  C   UNL     1      -0.070   9.366  19.545  0.00  0.00    +0.000 C 
ATOM     23  C   UNL     1       1.447   9.121  19.557  0.00  0.00    +0.000 C 
ENDBRANCH  17  18
ENDBRANCH  14  17
ENDBRANCH  13  14
ENDBRANCH   1  13
TORSDOF 7
ENDMDL
MODEL 5
REMARK VINA RESULT:      -6.2      2.980      4.649
REMARK  Name = 
REMARK  8 active torsions:
REMARK  status: ('A' for Active; 'I' for Inactive)
REMARK    1  A    between atoms: C_1  and  C_2
REMARK    2  A    between atoms: C_2  and  N_3
REMARK    3  A    between atoms: C_7  and  S_8
REMARK    4  A    between atoms: S_8  and  N_11
REMARK    5  A    between atoms: N_11  and  C_12
REMARK    6  A    between atoms: C_12  and  C_13
REMARK    7  A    between atoms: C_13  and  C_14
REMARK    8  A    between atoms: C_14  and  N_15
REMARK                            x       y       z     vdW  Elec       q    Type
REMARK                         _______ _______ _______ _____ _____    ______ ____
ROOT
ATOM      1  N   UNL     1       2.205   3.668  17.218  0.00  0.00    +0.000 NA
ATOM      2  H   UNL     1       1.911   3.530  16.256  0.00  0.00    +0.000 HD
ENDROOT
BRANCH   1   3
ATOM      3  S   UNL     1       2.022   2.236  18.091  0.00  0.00    +0.000 S 
ATOM      4  O   UNL     1       3.163   1.397  17.844  0.00  0.00    +0.000 OA
ATOM      5  O   UNL     1       0.660   1.801  17.881  0.00  0.00    +0.000 OA
BRANCH   3  10
ATOM      6  N   UNL     1       3.157   2.789  20.593  0.00  0.00    +0.000 N 
ATOM      7  N   UNL     1       2.875   3.121  21.876  0.00  0.00    +0.000 NA
ATOM      8  C   UNL     1       1.548   3.175  21.921  0.00  0.00    +0.000 A 
ATOM      9  C   UNL     1       0.976   2.935  20.667  0.00  0.00    +0.000 A 
ATOM     10  C   UNL     1       2.035   2.691  19.799  0.00  0.00    +0.000 A 
BRANCH   6  12
ATOM     11  C   UNL     1       5.129   1.347  20.852  0.00  0.00    +0.000 C 
ATOM     12  C   UNL     1       4.561   2.625  20.260  0.00  0.00    +0.000 C 
ENDBRANCH   6  12
ENDBRANCH   3  10
ENDBRANCH   1   3
BRANCH   1  13
ATOM     13  C   UNL     1       1.759   4.902  17.881  0.00  0.00    +0.000 C 
BRANCH  13  14
ATOM     14  C   UNL     1       2.957   5.816  18.176  0.00  0.00    +0.000 C 
ATOM     15  C   UNL     1       2.649   7.276  18.449  0.00  0.00    +0.000 C 
ATOM     16  C   UNL     1       3.048   6.376  19.585  0.00  0.00    +0.000 C 
BRANCH  14  17
ATOM     17  C   UNL     1       4.168   5.396  17.366  0.00  0.00    +0.000 C 
BRANCH  17  18
ATOM     18  N   UNL     1       5.065   6.249  16.571  0.00  0.00    +0.000 NA
ATOM     19  C   UNL     1       5.558   5.422  15.417  0.00  0.00    +0.000 C 
ATOM     20  C   UNL     1       6.506   4.271  15.835  0.00  0.00    +0.000 C 
ATOM     21  O   UNL     1       7.622   4.744  16.599  0.00  0.00    +0.000 OA
ATOM     22  C   UNL     1       7.225   5.572  17.702  0.00  0.00    +0.000 C 
ATOM     23  C   UNL     1       6.292   6.708  17.253  0.00  0.00    +0.000 C 
ENDBRANCH  17  18
ENDBRANCH  14  17
ENDBRANCH  13  14
ENDBRANCH   1  13
TORSDOF 7
ENDMDL
MODEL 6
REMARK VINA RESULT:      -6.2      2.299      6.455
REMARK  Name = 
REMARK  8 active torsions:
REMARK  status: ('A' for Active; 'I' for Inactive)
REMARK    1  A    between atoms: C_1  and  C_2
REMARK    2  A    between atoms: C_2  and  N_3
REMARK    3  A    between atoms: C_7  and  S_8
REMARK    4  A    between atoms: S_8  and  N_11
REMARK    5  A    between atoms: N_11  and  C_12
REMARK    6  A    between atoms: C_12  and  C_13
REMARK    7  A    between atoms: C_13  and  C_14
REMARK    8  A    between atoms: C_14  and  N_15
REMARK                            x       y       z     vdW  Elec       q    Type
REMARK                         _______ _______ _______ _____ _____    ______ ____
ROOT
ATOM      1  N   UNL     1       4.151   5.730  19.671  0.00  0.00    +0.000 NA
ATOM      2  H   UNL     1       4.486   6.688  19.635  0.00  0.00    +0.000 HD
ENDROOT
BRANCH   1   3
ATOM      3  S   UNL     1       5.370   4.672  19.181  0.00  0.00    +0.000 S 
ATOM      4  O   UNL     1       4.937   3.323  19.431  0.00  0.00    +0.000 OA
ATOM      5  O   UNL     1       6.610   5.212  19.691  0.00  0.00    +0.000 OA
BRANCH   3  10
ATOM      6  N   UNL     1       5.832   6.062  16.792  0.00  0.00    +0.000 N 
ATOM      7  N   UNL     1       5.860   5.945  15.443  0.00  0.00    +0.000 NA
ATOM      8  C   UNL     1       5.513   4.683  15.212  0.00  0.00    +0.000 A 
ATOM      9  C   UNL     1       5.315   3.973  16.402  0.00  0.00    +0.000 A 
ATOM     10  C   UNL     1       5.535   4.880  17.433  0.00  0.00    +0.000 A 
BRANCH   6  12
ATOM     11  C   UNL     1       7.642   7.578  17.472  0.00  0.00    +0.000 C 
ATOM     12  C   UNL     1       6.144   7.373  17.334  0.00  0.00    +0.000 C 
ENDBRANCH   6  12
ENDBRANCH   3  10
ENDBRANCH   1   3
BRANCH   1  13
ATOM     13  C   UNL     1       2.806   5.473  19.137  0.00  0.00    +0.000 C 
BRANCH  13  14
ATOM     14  C   UNL     1       1.792   5.336  20.281  0.00  0.00    +0.000 C 
ATOM     15  C   UNL     1       0.963   4.065  20.310  0.00  0.00    +0.000 C 
ATOM     16  C   UNL     1       2.073   4.250  21.306  0.00  0.00    +0.000 C 
BRANCH  14  17
ATOM     17  C   UNL     1       1.195   6.684  20.637  0.00  0.00    +0.000 C 
BRANCH  17  18
ATOM     18  N   UNL     1       1.866   7.992  20.663  0.00  0.00    +0.000 NA
ATOM     19  C   UNL     1       1.433   8.691  21.920  0.00  0.00    +0.000 C 
ATOM     20  C   UNL     1      -0.061   9.102  21.922  0.00  0.00    +0.000 C 
ATOM     21  O   UNL     1      -0.398   9.906  20.786  0.00  0.00    +0.000 OA
ATOM     22  C   UNL     1       0.019   9.315  19.547  0.00  0.00    +0.000 C 
ATOM     23  C   UNL     1       1.506   8.925  19.575  0.00  0.00    +0.000 C 
ENDBRANCH  17  18
ENDBRANCH  14  17
ENDBRANCH  13  14
ENDBRANCH   1  13
TORSDOF 7
ENDMDL
MODEL 7
REMARK VINA RESULT:      -6.2      2.860      4.196
REMARK  Name = 
REMARK  8 active torsions:
REMARK  status: ('A' for Active; 'I' for Inactive)
REMARK    1  A    between atoms: C_1  and  C_2
REMARK    2  A    between atoms: C_2  and  N_3
REMARK    3  A    between atoms: C_7  and  S_8
REMARK    4  A    between atoms: S_8  and  N_11
REMARK    5  A    between atoms: N_11  and  C_12
REMARK    6  A    between atoms: C_12  and  C_13
REMARK    7  A    between atoms: C_13  and  C_14
REMARK    8  A    between atoms: C_14  and  N_15
REMARK                            x       y       z     vdW  Elec       q    Type
REMARK                         _______ _______ _______ _____ _____    ______ ____
ROOT
ATOM      1  N   UNL     1       4.467   3.267  17.460  0.00  0.00    +0.000 NA
ATOM      2  H   UNL     1       5.296   2.684  17.393  0.00  0.00    +0.000 HD
ENDROOT
BRANCH   1   3
ATOM      3  S   UNL     1       3.181   2.376  18.092  0.00  0.00    +0.000 S 
ATOM      4  O   UNL     1       3.652   1.057  18.419  0.00  0.00    +0.000 OA
ATOM      5  O   UNL     1       2.050   2.622  17.227  0.00  0.00    +0.000 OA
BRANCH   3  10
ATOM      6  N   UNL     1       2.392   4.512  19.726  0.00  0.00    +0.000 N 
ATOM      7  N   UNL     1       2.107   4.871  21.001  0.00  0.00    +0.000 NA
ATOM      8  C   UNL     1       2.312   3.766  21.710  0.00  0.00    +0.000 A 
ATOM      9  C   UNL     1       2.672   2.686  20.896  0.00  0.00    +0.000 A 
ATOM     10  C   UNL     1       2.714   3.180  19.596  0.00  0.00    +0.000 A 
BRANCH   6  12
ATOM     11  C   UNL     1       2.502   6.932  19.319  0.00  0.00    +0.000 C 
ATOM     12  C   UNL     1       2.282   5.555  18.720  0.00  0.00    +0.000 C 
ENDBRANCH   6  12
ENDBRANCH   3  10
ENDBRANCH   1   3
BRANCH   1  13
ATOM     13  C   UNL     1       4.165   4.130  16.309  0.00  0.00    +0.000 C 
BRANCH  13  14
ATOM     14  C   UNL     1       5.461   4.649  15.672  0.00  0.00    +0.000 C 
ATOM     15  C   UNL     1       6.540   3.621  15.386  0.00  0.00    +0.000 C 
ATOM     16  C   UNL     1       5.742   4.196  14.249  0.00  0.00    +0.000 C 
BRANCH  14  17
ATOM     17  C   UNL     1       5.798   6.034  16.188  0.00  0.00    +0.000 C 
BRANCH  17  18
ATOM     18  N   UNL     1       5.536   6.591  17.524  0.00  0.00    +0.000 NA
ATOM     19  C   UNL     1       6.205   7.935  17.586  0.00  0.00    +0.000 C 
ATOM     20  C   UNL     1       7.752   7.863  17.573  0.00  0.00    +0.000 C 
ATOM     21  O   UNL     1       8.260   7.025  18.617  0.00  0.00    +0.000 OA
ATOM     22  C   UNL     1       7.639   5.732  18.640  0.00  0.00    +0.000 C 
ATOM     23  C   UNL     1       6.105   5.838  18.660  0.00  0.00    +0.000 C 
ENDBRANCH  17  18
ENDBRANCH  14  17
ENDBRANCH  13  14
ENDBRANCH   1  13
TORSDOF 7
ENDMDL
MODEL 8
REMARK VINA RESULT:      -6.2      2.946      4.919
REMARK  Name = 
REMARK  8 active torsions:
REMARK  status: ('A' for Active; 'I' for Inactive)
REMARK    1  A    between atoms: C_1  and  C_2
REMARK    2  A    between atoms: C_2  and  N_3
REMARK    3  A    between atoms: C_7  and  S_8
REMARK    4  A    between atoms: S_8  and  N_11
REMARK    5  A    between atoms: N_11  and  C_12
REMARK    6  A    between atoms: C_12  and  C_13
REMARK    7  A    between atoms: C_13  and  C_14
REMARK    8  A    between atoms: C_14  and  N_15
REMARK                            x       y       z     vdW  Elec       q    Type
REMARK                         _______ _______ _______ _____ _____    ______ ____
ROOT
ATOM      1  N   UNL     1       2.693   3.902  17.444  0.00  0.00    +0.000 NA
ATOM      2  H   UNL     1       2.921   3.761  16.465  0.00  0.00    +0.000 HD
ENDROOT
BRANCH   1   3
ATOM      3  S   UNL     1       2.111   2.468  18.116  0.00  0.00    +0.000 S 
ATOM      4  O   UNL     1       3.008   1.399  17.767  0.00  0.00    +0.000 OA
ATOM      5  O   UNL     1       0.693   2.434  17.841  0.00  0.00    +0.000 OA
BRANCH   3  10
ATOM      6  N   UNL     1       3.291   2.532  20.657  0.00  0.00    +0.000 N 
ATOM      7  N   UNL     1       3.045   2.720  21.977  0.00  0.00    +0.000 NA
ATOM      8  C   UNL     1       1.735   2.931  22.043  0.00  0.00    +0.000 A 
ATOM      9  C   UNL     1       1.145   2.936  20.774  0.00  0.00    +0.000 A 
ATOM     10  C   UNL     1       2.171   2.682  19.870  0.00  0.00    +0.000 A 
BRANCH   6  12
ATOM     11  C   UNL     1       5.260   1.156  21.170  0.00  0.00    +0.000 C 
ATOM     12  C   UNL     1       4.666   2.242  20.291  0.00  0.00    +0.000 C 
ENDBRANCH   6  12
ENDBRANCH   3  10
ENDBRANCH   1   3
BRANCH   1  13
ATOM     13  C   UNL     1       1.964   5.131  17.789  0.00  0.00    +0.000 C 
BRANCH  13  14
ATOM     14  C   UNL     1       2.928   6.189  18.344  0.00  0.00    +0.000 C 
ATOM     15  C   UNL     1       2.322   7.523  18.739  0.00  0.00    +0.000 C 
ATOM     16  C   UNL     1       2.754   6.558  19.808  0.00  0.00    +0.000 C 
BRANCH  14  17
ATOM     17  C   UNL     1       4.279   6.099  17.662  0.00  0.00    +0.000 C 
BRANCH  17  18
ATOM     18  N   UNL     1       5.356   5.129  17.912  0.00  0.00    +0.000 NA
ATOM     19  C   UNL     1       6.532   5.898  18.446  0.00  0.00    +0.000 C 
ATOM     20  C   UNL     1       7.188   6.836  17.404  0.00  0.00    +0.000 C 
ATOM     21  O   UNL     1       7.573   6.135  16.215  0.00  0.00    +0.000 OA
ATOM     22  C   UNL     1       6.504   5.349  15.668  0.00  0.00    +0.000 C 
ATOM     23  C   UNL     1       5.879   4.424  16.724  0.00  0.00    +0.000 C 
ENDBRANCH  17  18
ENDBRANCH  14  17
ENDBRANCH  13  14
ENDBRANCH   1  13
TORSDOF 7
ENDMDL
MODEL 9
REMARK VINA RESULT:      -6.2      2.806      3.921
REMARK  Name = 
REMARK  8 active torsions:
REMARK  status: ('A' for Active; 'I' for Inactive)
REMARK    1  A    between atoms: C_1  and  C_2
REMARK    2  A    between atoms: C_2  and  N_3
REMARK    3  A    between atoms: C_7  and  S_8
REMARK    4  A    between atoms: S_8  and  N_11
REMARK    5  A    between atoms: N_11  and  C_12
REMARK    6  A    between atoms: C_12  and  C_13
REMARK    7  A    between atoms: C_13  and  C_14
REMARK    8  A    between atoms: C_14  and  N_15
REMARK                            x       y       z     vdW  Elec       q    Type
REMARK                         _______ _______ _______ _____ _____    ______ ____
ROOT
ATOM      1  N   UNL     1       5.153   3.287  17.820  0.00  0.00    +0.000 NA
ATOM      2  H   UNL     1       6.008   2.777  18.021  0.00  0.00    +0.000 HD
ENDROOT
BRANCH   1   3
ATOM      3  S   UNL     1       3.934   2.819  18.889  0.00  0.00    +0.000 S 
ATOM      4  O   UNL     1       4.542   2.223  20.048  0.00  0.00    +0.000 OA
ATOM      5  O   UNL     1       2.926   2.156  18.094  0.00  0.00    +0.000 OA
BRANCH   3  10
ATOM      6  N   UNL     1       2.456   4.486  20.589  0.00  0.00    +0.000 N 
ATOM      7  N   UNL     1       1.896   5.714  20.705  0.00  0.00    +0.000 NA
ATOM      8  C   UNL     1       2.154   6.308  19.545  0.00  0.00    +0.000 A 
ATOM      9  C   UNL     1       2.923   5.495  18.705  0.00  0.00    +0.000 A 
ATOM     10  C   UNL     1       3.124   4.306  19.398  0.00  0.00    +0.000 A 
BRANCH   6  12
ATOM     11  C   UNL     1       1.173   2.595  21.490  0.00  0.00    +0.000 C 
ATOM     12  C   UNL     1       2.295   3.592  21.721  0.00  0.00    +0.000 C 
ENDBRANCH   6  12
ENDBRANCH   3  10
ENDBRANCH   1   3
BRANCH   1  13
ATOM     13  C   UNL     1       4.772   3.417  16.406  0.00  0.00    +0.000 C 
BRANCH  13  14
ATOM     14  C   UNL     1       5.714   4.390  15.684  0.00  0.00    +0.000 C 
ATOM     15  C   UNL     1       6.321   3.909  14.379  0.00  0.00    +0.000 C 
ATOM     16  C   UNL     1       5.226   4.939  14.353  0.00  0.00    +0.000 C 
BRANCH  14  17
ATOM     17  C   UNL     1       6.513   5.207  16.680  0.00  0.00    +0.000 C 
BRANCH  17  18
ATOM     18  N   UNL     1       6.005   6.060  17.765  0.00  0.00    +0.000 NA
ATOM     19  C   UNL     1       6.333   7.481  17.405  0.00  0.00    +0.000 C 
ATOM     20  C   UNL     1       7.849   7.798  17.438  0.00  0.00    +0.000 C 
ATOM     21  O   UNL     1       8.439   7.475  18.703  0.00  0.00    +0.000 OA
ATOM     22  C   UNL     1       8.136   6.138  19.128  0.00  0.00    +0.000 C 
ATOM     23  C   UNL     1       6.625   5.857  19.091  0.00  0.00    +0.000 C 
ENDBRANCH  17  18
ENDBRANCH  14  17
ENDBRANCH  13  14
ENDBRANCH   1  13
TORSDOF 7
ENDMDL
