MODEL 1
REMARK VINA RESULT:      -7.7      0.000      0.000
REMARK  Name = 
REMARK  5 active torsions:
REMARK  status: ('A' for Active; 'I' for Inactive)
REMARK    1  A    between atoms: C_2  and  C_3
REMARK    2  A    between atoms: C_3  and  C_4
REMARK    3  A    between atoms: C_4  and  C_5
REMARK    4  A    between atoms: C_4  and  C_12
REMARK    5  A    between atoms: C_16  and  O_17
REMARK                            x       y       z     vdW  Elec       q    Type
REMARK                         _______ _______ _______ _____ _____    ______ ____
ROOT
ATOM      1  C   UNL     1       4.142   5.981  18.487  0.00  0.00    +0.000 A 
ATOM      2  C   UNL     1       3.797   5.853  17.148  0.00  0.00    +0.000 A 
ATOM      3  N   UNL     1       4.894   5.432  16.443  0.00  0.00    +0.000 N 
ATOM      4  C   UNL     1       5.962   5.290  17.287  0.00  0.00    +0.000 A 
ATOM      5  C   UNL     1       7.267   4.873  17.117  0.00  0.00    +0.000 A 
ATOM      6  N   UNL     1       8.090   4.851  18.170  0.00  0.00    +0.000 NA
ATOM      7  C   UNL     1       7.610   5.230  19.357  0.00  0.00    +0.000 A 
ATOM      8  N   UNL     1       8.504   5.219  20.411  0.00  0.00    +0.000 N 
ATOM      9  N   UNL     1       6.349   5.578  19.632  0.00  0.00    +0.000 NA
ATOM     10  C   UNL     1       5.530   5.634  18.561  0.00  0.00    +0.000 A 
ATOM     11  H   UNL     1       4.893   5.226  15.454  0.00  0.00    +0.000 HD
ATOM     12  H   UNL     1       9.250   4.568  20.209  0.00  0.00    +0.000 HD
ATOM     13  H   UNL     1       8.021   5.126  21.290  0.00  0.00    +0.000 HD
ENDROOT
BRANCH   5  14
ATOM     14  O   UNL     1       7.807   4.458  15.928  0.00  0.00    +0.000 OA
ATOM     15  H   UNL     1       8.769   4.505  15.997  0.00  0.00    +0.000 HD
ENDBRANCH   5  14
BRANCH   1  16
ATOM     16  C   UNL     1       3.165   6.293  19.602  0.00  0.00    +0.000 C 
BRANCH  16  17
ATOM     17  C   UNL     1       2.519   4.984  20.044  0.00  0.00    +0.000 A 
ATOM     18  C   UNL     1       2.625   4.570  21.385  0.00  0.00    +0.000 A 
ATOM     19  C   UNL     1       2.039   3.376  21.824  0.00  0.00    +0.000 A 
ATOM     20  C   UNL     1       1.344   2.568  20.927  0.00  0.00    +0.000 A 
ATOM     21  C   UNL     1       1.211   2.972  19.604  0.00  0.00    +0.000 A 
ATOM     22 CL   UNL     1       0.350   1.982  18.490  0.00  0.00    +0.000 Cl
ATOM     23  C   UNL     1       1.771   4.176  19.171  0.00  0.00    +0.000 A 
ENDBRANCH  16  17
BRANCH  16  24
ATOM     24  C   UNL     1       2.157   7.401  19.270  0.00  0.00    +0.000 C 
BRANCH  24  26
ATOM     25  N   UNL     1       1.167   8.493  21.454  0.00  0.00    +0.000 NA
ATOM     26  C   UNL     1       1.604   8.005  20.491  0.00  0.00    +0.000 C 
ENDBRANCH  24  26
ENDBRANCH  16  24
ENDBRANCH   1  16
TORSDOF 5
ENDMDL
MODEL 2
REMARK VINA RESULT:      -7.5      2.763      4.468
REMARK  Name = 
REMARK  5 active torsions:
REMARK  status: ('A' for Active; 'I' for Inactive)
REMARK    1  A    between atoms: C_2  and  C_3
REMARK    2  A    between atoms: C_3  and  C_4
REMARK    3  A    between atoms: C_4  and  C_5
REMARK    4  A    between atoms: C_4  and  C_12
REMARK    5  A    between atoms: C_16  and  O_17
REMARK                            x       y       z     vdW  Elec       q    Type
REMARK                         _______ _______ _______ _____ _____    ______ ____
ROOT
ATOM      1  C   UNL     1       4.019   4.968  18.145  0.00  0.00    +0.000 A 
ATOM      2  C   UNL     1       4.551   4.931  19.427  0.00  0.00    +0.000 A 
ATOM      3  N   UNL     1       5.902   4.715  19.344  0.00  0.00    +0.000 N 
ATOM      4  C   UNL     1       6.273   4.596  18.032  0.00  0.00    +0.000 A 
ATOM      5  C   UNL     1       7.482   4.407  17.393  0.00  0.00    +0.000 A 
ATOM      6  N   UNL     1       7.512   4.324  16.060  0.00  0.00    +0.000 NA
ATOM      7  C   UNL     1       6.360   4.434  15.393  0.00  0.00    +0.000 A 
ATOM      8  N   UNL     1       6.435   4.312  14.018  0.00  0.00    +0.000 N 
ATOM      9  N   UNL     1       5.157   4.688  15.916  0.00  0.00    +0.000 NA
ATOM     10  C   UNL     1       5.125   4.736  17.264  0.00  0.00    +0.000 A 
ATOM     11  H   UNL     1       6.526   4.687  20.138  0.00  0.00    +0.000 HD
ATOM     12  H   UNL     1       7.369   4.549  13.711  0.00  0.00    +0.000 HD
ATOM     13  H   UNL     1       5.660   4.778  13.573  0.00  0.00    +0.000 HD
ENDROOT
BRANCH   5  14
ATOM     14  O   UNL     1       8.693   4.305  18.026  0.00  0.00    +0.000 OA
ATOM     15  H   UNL     1       9.219   3.635  17.570  0.00  0.00    +0.000 HD
ENDBRANCH   5  14
BRANCH   1  16
ATOM     16  C   UNL     1       2.582   5.321  17.819  0.00  0.00    +0.000 C 
BRANCH  16  17
ATOM     17  C   UNL     1       2.307   6.722  18.355  0.00  0.00    +0.000 A 
ATOM     18  C   UNL     1       2.406   7.832  17.496  0.00  0.00    +0.000 A 
ATOM     19  C   UNL     1       2.154   9.130  17.956  0.00  0.00    +0.000 A 
ATOM     20  C   UNL     1       1.809   9.345  19.288  0.00  0.00    +0.000 A 
ATOM     21  C   UNL     1       1.685   8.258  20.146  0.00  0.00    +0.000 A 
ATOM     22 CL   UNL     1       1.255   8.513  21.792  0.00  0.00    +0.000 Cl
ATOM     23  C   UNL     1       1.909   6.960  19.682  0.00  0.00    +0.000 A 
ENDBRANCH  16  17
BRANCH  16  24
ATOM     24  C   UNL     1       1.554   4.272  18.264  0.00  0.00    +0.000 C 
BRANCH  24  26
ATOM     25  N   UNL     1       2.411   1.832  17.763  0.00  0.00    +0.000 NA
ATOM     26  C   UNL     1       2.027   2.909  17.987  0.00  0.00    +0.000 C 
ENDBRANCH  24  26
ENDBRANCH  16  24
ENDBRANCH   1  16
TORSDOF 5
ENDMDL
MODEL 3
REMARK VINA RESULT:      -7.5      2.918      4.359
REMARK  Name = 
REMARK  5 active torsions:
REMARK  status: ('A' for Active; 'I' for Inactive)
REMARK    1  A    between atoms: C_2  and  C_3
REMARK    2  A    between atoms: C_3  and  C_4
REMARK    3  A    between atoms: C_4  and  C_5
REMARK    4  A    between atoms: C_4  and  C_12
REMARK    5  A    between atoms: C_16  and  O_17
REMARK                            x       y       z     vdW  Elec       q    Type
REMARK                         _______ _______ _______ _____ _____    ______ ____
ROOT
ATOM      1  C   UNL     1       4.015   4.891  18.131  0.00  0.00    +0.000 A 
ATOM      2  C   UNL     1       4.539   4.796  19.413  0.00  0.00    +0.000 A 
ATOM      3  N   UNL     1       5.891   4.590  19.329  0.00  0.00    +0.000 N 
ATOM      4  C   UNL     1       6.271   4.535  18.015  0.00  0.00    +0.000 A 
ATOM      5  C   UNL     1       7.485   4.383  17.376  0.00  0.00    +0.000 A 
ATOM      6  N   UNL     1       7.524   4.363  16.040  0.00  0.00    +0.000 NA
ATOM      7  C   UNL     1       6.376   4.500  15.371  0.00  0.00    +0.000 A 
ATOM      8  N   UNL     1       6.460   4.444  13.993  0.00  0.00    +0.000 N 
ATOM      9  N   UNL     1       5.168   4.723  15.899  0.00  0.00    +0.000 NA
ATOM     10  C   UNL     1       5.127   4.707  17.247  0.00  0.00    +0.000 A 
ATOM     11  H   UNL     1       6.511   4.527  20.124  0.00  0.00    +0.000 HD
ATOM     12  H   UNL     1       7.394   4.700  13.704  0.00  0.00    +0.000 HD
ATOM     13  H   UNL     1       5.685   4.927  13.565  0.00  0.00    +0.000 HD
ENDROOT
BRANCH   5  14
ATOM     14  O   UNL     1       8.692   4.256  18.010  0.00  0.00    +0.000 OA
ATOM     15  H   UNL     1       8.603   3.589  18.703  0.00  0.00    +0.000 HD
ENDBRANCH   5  14
BRANCH   1  16
ATOM     16  C   UNL     1       2.578   5.253  17.812  0.00  0.00    +0.000 C 
BRANCH  16  17
ATOM     17  C   UNL     1       2.214   6.493  18.621  0.00  0.00    +0.000 A 
ATOM     18  C   UNL     1       1.893   6.369  19.985  0.00  0.00    +0.000 A 
ATOM     19  C   UNL     1       1.560   7.489  20.757  0.00  0.00    +0.000 A 
ATOM     20  C   UNL     1       1.530   8.754  20.176  0.00  0.00    +0.000 A 
ATOM     21  C   UNL     1       1.866   8.899  18.835  0.00  0.00    +0.000 A 
ATOM     22 CL   UNL     1       1.837  10.459  18.110  0.00  0.00    +0.000 Cl
ATOM     23  C   UNL     1       2.226   7.786  18.071  0.00  0.00    +0.000 A 
ENDBRANCH  16  17
BRANCH  16  24
ATOM     24  C   UNL     1       1.583   4.095  17.968  0.00  0.00    +0.000 C 
BRANCH  24  26
ATOM     25  N   UNL     1       2.793   1.761  17.807  0.00  0.00    +0.000 NA
ATOM     26  C   UNL     1       2.260   2.793  17.884  0.00  0.00    +0.000 C 
ENDBRANCH  24  26
ENDBRANCH  16  24
ENDBRANCH   1  16
TORSDOF 5
ENDMDL
MODEL 4
REMARK VINA RESULT:      -7.5      2.300      3.373
REMARK  Name = 
REMARK  5 active torsions:
REMARK  status: ('A' for Active; 'I' for Inactive)
REMARK    1  A    between atoms: C_2  and  C_3
REMARK    2  A    between atoms: C_3  and  C_4
REMARK    3  A    between atoms: C_4  and  C_5
REMARK    4  A    between atoms: C_4  and  C_12
REMARK    5  A    between atoms: C_16  and  O_17
REMARK                            x       y       z     vdW  Elec       q    Type
REMARK                         _______ _______ _______ _____ _____    ______ ____
ROOT
ATOM      1  C   UNL     1       3.810   4.585  18.381  0.00  0.00    +0.000 A 
ATOM      2  C   UNL     1       3.525   4.239  17.067  0.00  0.00    +0.000 A 
ATOM      3  N   UNL     1       4.692   4.213  16.349  0.00  0.00    +0.000 N 
ATOM      4  C   UNL     1       5.743   4.547  17.159  0.00  0.00    +0.000 A 
ATOM      5  C   UNL     1       7.107   4.643  16.967  0.00  0.00    +0.000 A 
ATOM      6  N   UNL     1       7.887   5.010  17.988  0.00  0.00    +0.000 NA
ATOM      7  C   UNL     1       7.312   5.265  19.165  0.00  0.00    +0.000 A 
ATOM      8  N   UNL     1       8.154   5.670  20.183  0.00  0.00    +0.000 N 
ATOM      9  N   UNL     1       6.016   5.130  19.465  0.00  0.00    +0.000 NA
ATOM     10  C   UNL     1       5.226   4.794  18.424  0.00  0.00    +0.000 A 
ATOM     11  H   UNL     1       4.759   3.950  15.375  0.00  0.00    +0.000 HD
ATOM     12  H   UNL     1       9.090   5.336  19.996  0.00  0.00    +0.000 HD
ATOM     13  H   UNL     1       7.753   5.466  21.085  0.00  0.00    +0.000 HD
ENDROOT
BRANCH   5  14
ATOM     14  O   UNL     1       7.750   4.377  15.787  0.00  0.00    +0.000 OA
ATOM     15  H   UNL     1       8.632   4.039  15.991  0.00  0.00    +0.000 HD
ENDBRANCH   5  14
BRANCH   1  16
ATOM     16  C   UNL     1       2.799   4.585  19.510  0.00  0.00    +0.000 C 
BRANCH  16  17
ATOM     17  C   UNL     1       2.298   6.013  19.695  0.00  0.00    +0.000 A 
ATOM     18  C   UNL     1       1.681   6.386  20.903  0.00  0.00    +0.000 A 
ATOM     19  C   UNL     1       1.216   7.691  21.107  0.00  0.00    +0.000 A 
ATOM     20  C   UNL     1       1.349   8.646  20.102  0.00  0.00    +0.000 A 
ATOM     21  C   UNL     1       1.977   8.301  18.911  0.00  0.00    +0.000 A 
ATOM     22 CL   UNL     1       2.151   9.475  17.665  0.00  0.00    +0.000 Cl
ATOM     23  C   UNL     1       2.467   7.007  18.716  0.00  0.00    +0.000 A 
ENDBRANCH  16  17
BRANCH  16  24
ATOM     24  C   UNL     1       3.295   3.928  20.805  0.00  0.00    +0.000 C 
BRANCH  24  26
ATOM     25  N   UNL     1       1.403   2.486  21.937  0.00  0.00    +0.000 NA
ATOM     26  C   UNL     1       2.237   3.128  21.438  0.00  0.00    +0.000 C 
ENDBRANCH  24  26
ENDBRANCH  16  24
ENDBRANCH   1  16
TORSDOF 5
ENDMDL
MODEL 5
REMARK VINA RESULT:      -7.5      2.287      3.577
REMARK  Name = 
REMARK  5 active torsions:
REMARK  status: ('A' for Active; 'I' for Inactive)
REMARK    1  A    between atoms: C_2  and  C_3
REMARK    2  A    between atoms: C_3  and  C_4
REMARK    3  A    between atoms: C_4  and  C_5
REMARK    4  A    between atoms: C_4  and  C_12
REMARK    5  A    between atoms: C_16  and  O_17
REMARK                            x       y       z     vdW  Elec       q    Type
REMARK                         _______ _______ _______ _____ _____    ______ ____
ROOT
ATOM      1  C   UNL     1       3.748   4.791  18.443  0.00  0.00    +0.000 A 
ATOM      2  C   UNL     1       3.477   4.419  17.134  0.00  0.00    +0.000 A 
ATOM      3  N   UNL     1       4.660   4.273  16.457  0.00  0.00    +0.000 N 
ATOM      4  C   UNL     1       5.709   4.554  17.290  0.00  0.00    +0.000 A 
ATOM      5  C   UNL     1       7.081   4.534  17.141  0.00  0.00    +0.000 A 
ATOM      6  N   UNL     1       7.857   4.878  18.174  0.00  0.00    +0.000 NA
ATOM      7  C   UNL     1       7.267   5.223  19.321  0.00  0.00    +0.000 A 
ATOM      8  N   UNL     1       8.107   5.599  20.352  0.00  0.00    +0.000 N 
ATOM      9  N   UNL     1       5.956   5.202  19.582  0.00  0.00    +0.000 NA
ATOM     10  C   UNL     1       5.174   4.890  18.527  0.00  0.00    +0.000 A 
ATOM     11  H   UNL     1       4.735   3.969  15.497  0.00  0.00    +0.000 HD
ATOM     12  H   UNL     1       9.019   5.185  20.209  0.00  0.00    +0.000 HD
ATOM     13  H   UNL     1       7.663   5.462  21.246  0.00  0.00    +0.000 HD
ENDROOT
BRANCH   5  14
ATOM     14  O   UNL     1       7.737   4.173  15.994  0.00  0.00    +0.000 OA
ATOM     15  H   UNL     1       8.426   4.828  15.819  0.00  0.00    +0.000 HD
ENDBRANCH   5  14
BRANCH   1  16
ATOM     16  C   UNL     1       2.706   4.915  19.537  0.00  0.00    +0.000 C 
BRANCH  16  17
ATOM     17  C   UNL     1       2.256   6.370  19.598  0.00  0.00    +0.000 A 
ATOM     18  C   UNL     1       2.360   7.183  18.454  0.00  0.00    +0.000 A 
ATOM     19  C   UNL     1       1.949   8.521  18.475  0.00  0.00    +0.000 A 
ATOM     20  C   UNL     1       1.437   9.077  19.645  0.00  0.00    +0.000 A 
ATOM     21  C   UNL     1       1.307   8.283  20.779  0.00  0.00    +0.000 A 
ATOM     22 CL   UNL     1       0.671   8.959  22.228  0.00  0.00    +0.000 Cl
ATOM     23  C   UNL     1       1.690   6.940  20.751  0.00  0.00    +0.000 A 
ENDBRANCH  16  17
BRANCH  16  24
ATOM     24  C   UNL     1       3.139   4.341  20.893  0.00  0.00    +0.000 C 
BRANCH  24  26
ATOM     25  N   UNL     1       1.370   2.622  21.817  0.00  0.00    +0.000 NA
ATOM     26  C   UNL     1       2.148   3.386  21.411  0.00  0.00    +0.000 C 
ENDBRANCH  24  26
ENDBRANCH  16  24
ENDBRANCH   1  16
TORSDOF 5
ENDMDL
MODEL 6
REMARK VINA RESULT:      -7.5      1.162      1.589
REMARK  Name = 
REMARK  5 active torsions:
REMARK  status: ('A' for Active; 'I' for Inactive)
REMARK    1  A    between atoms: C_2  and  C_3
REMARK    2  A    between atoms: C_3  and  C_4
REMARK    3  A    between atoms: C_4  and  C_5
REMARK    4  A    between atoms: C_4  and  C_12
REMARK    5  A    between atoms: C_16  and  O_17
REMARK                            x       y       z     vdW  Elec       q    Type
REMARK                         _______ _______ _______ _____ _____    ______ ____
ROOT
ATOM      1  C   UNL     1       3.975   6.631  18.183  0.00  0.00    +0.000 A 
ATOM      2  C   UNL     1       3.679   6.900  16.854  0.00  0.00    +0.000 A 
ATOM      3  N   UNL     1       4.792   6.659  16.091  0.00  0.00    +0.000 N 
ATOM      4  C   UNL     1       5.823   6.248  16.892  0.00  0.00    +0.000 A 
ATOM      5  C   UNL     1       7.124   5.852  16.650  0.00  0.00    +0.000 A 
ATOM      6  N   UNL     1       7.904   5.505  17.677  0.00  0.00    +0.000 NA
ATOM      7  C   UNL     1       7.387   5.547  18.908  0.00  0.00    +0.000 A 
ATOM      8  N   UNL     1       8.239   5.208  19.942  0.00  0.00    +0.000 N 
ATOM      9  N   UNL     1       6.125   5.846  19.233  0.00  0.00    +0.000 NA
ATOM     10  C   UNL     1       5.350   6.231  18.197  0.00  0.00    +0.000 A 
ATOM     11  H   UNL     1       4.825   6.742  15.085  0.00  0.00    +0.000 HD
ATOM     12  H   UNL     1       8.978   4.616  19.586  0.00  0.00    +0.000 HD
ATOM     13  H   UNL     1       7.721   4.886  20.744  0.00  0.00    +0.000 HD
ENDROOT
BRANCH   5  14
ATOM     14  O   UNL     1       7.699   5.774  15.409  0.00  0.00    +0.000 OA
ATOM     15  H   UNL     1       8.503   6.308  15.412  0.00  0.00    +0.000 HD
ENDBRANCH   5  14
BRANCH   1  16
ATOM     16  C   UNL     1       2.963   6.647  19.311  0.00  0.00    +0.000 C 
BRANCH  16  17
ATOM     17  C   UNL     1       2.292   5.278  19.362  0.00  0.00    +0.000 A 
ATOM     18  C   UNL     1       1.830   4.682  18.174  0.00  0.00    +0.000 A 
ATOM     19  C   UNL     1       1.215   3.423  18.186  0.00  0.00    +0.000 A 
ATOM     20  C   UNL     1       1.040   2.743  19.388  0.00  0.00    +0.000 A 
ATOM     21  C   UNL     1       1.509   3.307  20.568  0.00  0.00    +0.000 A 
ATOM     22 CL   UNL     1       1.302   2.472  22.058  0.00  0.00    +0.000 Cl
ATOM     23  C   UNL     1       2.148   4.550  20.555  0.00  0.00    +0.000 A 
ENDBRANCH  16  17
BRANCH  16  24
ATOM     24  C   UNL     1       1.976   7.821  19.260  0.00  0.00    +0.000 C 
BRANCH  24  26
ATOM     25  N   UNL     1       1.158   8.500  21.671  0.00  0.00    +0.000 NA
ATOM     26  C   UNL     1       1.519   8.194  20.607  0.00  0.00    +0.000 C 
ENDBRANCH  24  26
ENDBRANCH  16  24
ENDBRANCH   1  16
TORSDOF 5
ENDMDL
MODEL 7
REMARK VINA RESULT:      -7.4      3.417      5.351
REMARK  Name = 
REMARK  5 active torsions:
REMARK  status: ('A' for Active; 'I' for Inactive)
REMARK    1  A    between atoms: C_2  and  C_3
REMARK    2  A    between atoms: C_3  and  C_4
REMARK    3  A    between atoms: C_4  and  C_5
REMARK    4  A    between atoms: C_4  and  C_12
REMARK    5  A    between atoms: C_16  and  O_17
REMARK                            x       y       z     vdW  Elec       q    Type
REMARK                         _______ _______ _______ _____ _____    ______ ____
ROOT
ATOM      1  C   UNL     1       2.845   6.000  18.861  0.00  0.00    +0.000 A 
ATOM      2  C   UNL     1       2.450   6.680  20.005  0.00  0.00    +0.000 A 
ATOM      3  N   UNL     1       2.152   5.770  20.985  0.00  0.00    +0.000 N 
ATOM      4  C   UNL     1       2.329   4.499  20.508  0.00  0.00    +0.000 A 
ATOM      5  C   UNL     1       2.206   3.242  21.064  0.00  0.00    +0.000 A 
ATOM      6  N   UNL     1       2.451   2.165  20.311  0.00  0.00    +0.000 NA
ATOM      7  C   UNL     1       2.816   2.352  19.040  0.00  0.00    +0.000 A 
ATOM      8  N   UNL     1       3.031   1.210  18.292  0.00  0.00    +0.000 N 
ATOM      9  N   UNL     1       3.031   3.525  18.436  0.00  0.00    +0.000 NA
ATOM     10  C   UNL     1       2.748   4.609  19.188  0.00  0.00    +0.000 A 
ATOM     11  H   UNL     1       1.877   6.012  21.926  0.00  0.00    +0.000 HD
ATOM     12  H   UNL     1       3.260   0.443  18.909  0.00  0.00    +0.000 HD
ATOM     13  H   UNL     1       3.654   1.397  17.522  0.00  0.00    +0.000 HD
ENDROOT
BRANCH   5  14
ATOM     14  O   UNL     1       1.852   2.994  22.364  0.00  0.00    +0.000 OA
ATOM     15  H   UNL     1       2.222   3.693  22.919  0.00  0.00    +0.000 HD
ENDBRANCH   5  14
BRANCH   1  16
ATOM     16  C   UNL     1       3.384   6.661  17.609  0.00  0.00    +0.000 C 
BRANCH  16  17
ATOM     17  C   UNL     1       4.715   6.002  17.262  0.00  0.00    +0.000 A 
ATOM     18  C   UNL     1       5.780   6.053  18.180  0.00  0.00    +0.000 A 
ATOM     19  C   UNL     1       7.013   5.452  17.895  0.00  0.00    +0.000 A 
ATOM     20  C   UNL     1       7.207   4.798  16.681  0.00  0.00    +0.000 A 
ATOM     21  C   UNL     1       6.159   4.719  15.771  0.00  0.00    +0.000 A 
ATOM     22 CL   UNL     1       6.388   3.909  14.271  0.00  0.00    +0.000 Cl
ATOM     23  C   UNL     1       4.920   5.293  16.066  0.00  0.00    +0.000 A 
ENDBRANCH  16  17
BRANCH  16  24
ATOM     24  C   UNL     1       3.450   8.193  17.679  0.00  0.00    +0.000 C 
BRANCH  24  26
ATOM     25  N   UNL     1       1.037   9.248  17.752  0.00  0.00    +0.000 NA
ATOM     26  C   UNL     1       2.105   8.785  17.725  0.00  0.00    +0.000 C 
ENDBRANCH  24  26
ENDBRANCH  16  24
ENDBRANCH   1  16
TORSDOF 5
ENDMDL
MODEL 8
REMARK VINA RESULT:      -7.3      3.979      6.217
REMARK  Name = 
REMARK  5 active torsions:
REMARK  status: ('A' for Active; 'I' for Inactive)
REMARK    1  A    between atoms: C_2  and  C_3
REMARK    2  A    between atoms: C_3  and  C_4
REMARK    3  A    between atoms: C_4  and  C_5
REMARK    4  A    between atoms: C_4  and  C_12
REMARK    5  A    between atoms: C_16  and  O_17
REMARK                            x       y       z     vdW  Elec       q    Type
REMARK                         _______ _______ _______ _____ _____    ______ ____
ROOT
ATOM      1  C   UNL     1       2.169   7.114  19.606  0.00  0.00    +0.000 A 
ATOM      2  C   UNL     1       2.454   7.655  18.359  0.00  0.00    +0.000 A 
ATOM      3  N   UNL     1       1.983   8.941  18.312  0.00  0.00    +0.000 N 
ATOM      4  C   UNL     1       1.381   9.259  19.499  0.00  0.00    +0.000 A 
ATOM      5  C   UNL     1       0.782  10.400  19.993  0.00  0.00    +0.000 A 
ATOM      6  N   UNL     1       0.267  10.388  21.227  0.00  0.00    +0.000 NA
ATOM      7  C   UNL     1       0.362   9.264  21.941  0.00  0.00    +0.000 A 
ATOM      8  N   UNL     1      -0.209   9.289  23.199  0.00  0.00    +0.000 N 
ATOM      9  N   UNL     1       0.984   8.138  21.577  0.00  0.00    +0.000 NA
ATOM     10  C   UNL     1       1.470   8.141  20.319  0.00  0.00    +0.000 A 
ATOM     11  H   UNL     1       2.101   9.565  17.526  0.00  0.00    +0.000 HD
ATOM     12  H   UNL     1      -0.256  10.244  23.527  0.00  0.00    +0.000 HD
ATOM     13  H   UNL     1       0.219   8.604  23.802  0.00  0.00    +0.000 HD
ENDROOT
BRANCH   5  14
ATOM     14  O   UNL     1       0.673  11.583  19.311  0.00  0.00    +0.000 OA
ATOM     15  H   UNL     1      -0.258  11.728  19.100  0.00  0.00    +0.000 HD
ENDBRANCH   5  14
BRANCH   1  16
ATOM     16  C   UNL     1       2.651   5.761  20.088  0.00  0.00    +0.000 C 
BRANCH  16  17
ATOM     17  C   UNL     1       3.582   5.185  19.026  0.00  0.00    +0.000 A 
ATOM     18  C   UNL     1       3.044   4.481  17.932  0.00  0.00    +0.000 A 
ATOM     19  C   UNL     1       3.870   3.946  16.937  0.00  0.00    +0.000 A 
ATOM     20  C   UNL     1       5.253   4.094  17.022  0.00  0.00    +0.000 A 
ATOM     21  C   UNL     1       5.800   4.805  18.084  0.00  0.00    +0.000 A 
ATOM     22 CL   UNL     1       7.506   4.998  18.194  0.00  0.00    +0.000 Cl
ATOM     23  C   UNL     1       4.975   5.365  19.063  0.00  0.00    +0.000 A 
ENDBRANCH  16  17
BRANCH  16  24
ATOM     24  C   UNL     1       1.530   4.804  20.516  0.00  0.00    +0.000 C 
BRANCH  24  26
ATOM     25  N   UNL     1       2.438   2.892  22.084  0.00  0.00    +0.000 NA
ATOM     26  C   UNL     1       2.040   3.742  21.394  0.00  0.00    +0.000 C 
ENDBRANCH  24  26
ENDBRANCH  16  24
ENDBRANCH   1  16
TORSDOF 5
ENDMDL
MODEL 9
REMARK VINA RESULT:      -7.3      3.932      6.470
REMARK  Name = 
REMARK  5 active torsions:
REMARK  status: ('A' for Active; 'I' for Inactive)
REMARK    1  A    between atoms: C_2  and  C_3
REMARK    2  A    between atoms: C_3  and  C_4
REMARK    3  A    between atoms: C_4  and  C_5
REMARK    4  A    between atoms: C_4  and  C_12
REMARK    5  A    between atoms: C_16  and  O_17
REMARK                            x       y       z     vdW  Elec       q    Type
REMARK                         _______ _______ _______ _____ _____    ______ ____
ROOT
ATOM      1  C   UNL     1       4.190   4.997  17.288  0.00  0.00    +0.000 A 
ATOM      2  C   UNL     1       3.393   6.104  17.550  0.00  0.00    +0.000 A 
ATOM      3  N   UNL     1       2.358   5.724  18.364  0.00  0.00    +0.000 N 
ATOM      4  C   UNL     1       2.447   4.386  18.636  0.00  0.00    +0.000 A 
ATOM      5  C   UNL     1       1.705   3.515  19.408  0.00  0.00    +0.000 A 
ATOM      6  N   UNL     1       2.057   2.227  19.464  0.00  0.00    +0.000 NA
ATOM      7  C   UNL     1       3.128   1.833  18.770  0.00  0.00    +0.000 A 
ATOM      8  N   UNL     1       3.437   0.487  18.833  0.00  0.00    +0.000 N 
ATOM      9  N   UNL     1       3.947   2.612  18.056  0.00  0.00    +0.000 NA
ATOM     10  C   UNL     1       3.568   3.904  17.972  0.00  0.00    +0.000 A 
ATOM     11  H   UNL     1       1.659   6.355  18.732  0.00  0.00    +0.000 HD
ATOM     12  H   UNL     1       3.056   0.096  19.685  0.00  0.00    +0.000 HD
ATOM     13  H   UNL     1       4.414   0.333  18.640  0.00  0.00    +0.000 HD
ENDROOT
BRANCH   5  14
ATOM     14  O   UNL     1       0.610   3.868  20.152  0.00  0.00    +0.000 OA
ATOM     15  H   UNL     1       0.917   4.296  20.961  0.00  0.00    +0.000 HD
ENDBRANCH   5  14
BRANCH   1  16
ATOM     16  C   UNL     1       5.506   5.043  16.538  0.00  0.00    +0.000 C 
BRANCH  16  17
ATOM     17  C   UNL     1       6.513   5.800  17.397  0.00  0.00    +0.000 A 
ATOM     18  C   UNL     1       7.147   5.146  18.470  0.00  0.00    +0.000 A 
ATOM     19  C   UNL     1       8.081   5.810  19.274  0.00  0.00    +0.000 A 
ATOM     20  C   UNL     1       8.391   7.146  19.027  0.00  0.00    +0.000 A 
ATOM     21  C   UNL     1       7.791   7.801  17.959  0.00  0.00    +0.000 A 
ATOM     22 CL   UNL     1       8.172   9.449  17.643  0.00  0.00    +0.000 Cl
ATOM     23  C   UNL     1       6.880   7.131  17.138  0.00  0.00    +0.000 A 
ENDBRANCH  16  17
BRANCH  16  24
ATOM     24  C   UNL     1       5.398   5.568  15.099  0.00  0.00    +0.000 C 
BRANCH  24  26
ATOM     25  N   UNL     1       6.196   3.753  13.365  0.00  0.00    +0.000 NA
ATOM     26  C   UNL     1       5.843   4.560  14.127  0.00  0.00    +0.000 C 
ENDBRANCH  24  26
ENDBRANCH  16  24
ENDBRANCH   1  16
TORSDOF 5
ENDMDL
