MODEL 1
REMARK VINA RESULT:      -7.7      0.000      0.000
REMARK  Name = 
REMARK  11 active torsions:
REMARK  status: ('A' for Active; 'I' for Inactive)
REMARK    1  A    between atoms: C_1  and  N_2
REMARK    2  A    between atoms: C_6  and  C_7
REMARK    3  A    between atoms: C_7  and  C_8
REMARK    4  A    between atoms: C_10  and  O_11
REMARK    5  A    between atoms: O_11  and  C_12
REMARK    6  A    between atoms: C_13  and  O_14
REMARK    7  A    between atoms: O_14  and  C_15
REMARK    8  A    between atoms: C_17  and  S_18
REMARK    9  A    between atoms: S_18  and  N_21
REMARK   10  A    between atoms: N_21  and  C_22
REMARK   11  A    between atoms: N_21  and  C_23
REMARK                            x       y       z     vdW  Elec       q    Type
REMARK                         _______ _______ _______ _____ _____    ______ ____
ROOT
ATOM      1  C   UNL     1       3.902   5.799  18.157  0.00  0.00    +0.000 A 
ATOM      2  C   UNL     1       5.093   6.489  17.824  0.00  0.00    +0.000 A 
ATOM      3  C   UNL     1       6.026   5.990  16.908  0.00  0.00    +0.000 A 
ATOM      4  C   UNL     1       5.785   4.757  16.290  0.00  0.00    +0.000 A 
ATOM      5  C   UNL     1       4.603   4.072  16.582  0.00  0.00    +0.000 A 
ATOM      6  C   UNL     1       3.653   4.585  17.493  0.00  0.00    +0.000 A 
ENDROOT
BRANCH   6   7
ATOM      7  S   UNL     1       2.212   3.541  17.747  0.00  0.00    +0.000 S 
ATOM      8  O   UNL     1       1.052   4.313  17.351  0.00  0.00    +0.000 OA
ATOM      9  O   UNL     1       2.448   2.249  17.145  0.00  0.00    +0.000 OA
BRANCH   7  10
ATOM     10  N   UNL     1       2.153   3.364  19.435  0.00  0.00    +0.000 NA
ATOM     11  C   UNL     1       0.849   3.118  20.068  0.00  0.00    +0.000 C 
ATOM     12  C   UNL     1       3.250   2.613  20.074  0.00  0.00    +0.000 C 
ENDBRANCH   7  10
ENDBRANCH   6   7
BRANCH   3  13
ATOM     13  O   UNL     1       7.179   6.648  16.560  0.00  0.00    +0.000 OA
ATOM     14  C   UNL     1       7.647   7.639  17.467  0.00  0.00    +0.000 C 
ENDBRANCH   3  13
BRANCH   4  15
ATOM     15  O   UNL     1       6.750   4.297  15.429  0.00  0.00    +0.000 OA
ATOM     16  C   UNL     1       6.349   3.987  14.100  0.00  0.00    +0.000 C 
ENDBRANCH   4  15
BRANCH   1  17
ATOM     17  C   UNL     1       3.041   6.441  19.227  0.00  0.00    +0.000 C 
BRANCH  17  23
ATOM     18  C   UNL     1      -0.474  11.161  19.058  0.00  0.00    +0.000 C 
ATOM     19  N   UNL     1       0.397  10.276  19.795  0.00  0.00    +0.000 N 
ATOM     20  C   UNL     1       1.170   9.433  19.094  0.00  0.00    +0.000 A 
ATOM     21  N   UNL     1       1.505   9.412  17.823  0.00  0.00    +0.000 NA
ATOM     22  N   UNL     1       2.266   8.278  17.634  0.00  0.00    +0.000 NA
ATOM     23  C   UNL     1       2.348   7.691  18.809  0.00  0.00    +0.000 A 
ATOM     24  O   UNL     1       1.673   8.372  19.788  0.00  0.00    +0.000 OA
ATOM     25  H   UNL     1       0.029   9.919  20.670  0.00  0.00    +0.000 HD
ENDBRANCH  17  23
ENDBRANCH   1  17
TORSDOF 6
ENDMDL
MODEL 2
REMARK VINA RESULT:      -7.5      2.035      4.487
REMARK  Name = 
REMARK  11 active torsions:
REMARK  status: ('A' for Active; 'I' for Inactive)
REMARK    1  A    between atoms: C_1  and  N_2
REMARK    2  A    between atoms: C_6  and  C_7
REMARK    3  A    between atoms: C_7  and  C_8
REMARK    4  A    between atoms: C_10  and  O_11
REMARK    5  A    between atoms: O_11  and  C_12
REMARK    6  A    between atoms: C_13  and  O_14
REMARK    7  A    between atoms: O_14  and  C_15
REMARK    8  A    between atoms: C_17  and  S_18
REMARK    9  A    between atoms: S_18  and  N_21
REMARK   10  A    between atoms: N_21  and  C_22
REMARK   11  A    between atoms: N_21  and  C_23
REMARK                            x       y       z     vdW  Elec       q    Type
REMARK                         _______ _______ _______ _____ _____    ______ ____
ROOT
ATOM      1  C   UNL     1       3.639   6.000  17.605  0.00  0.00    +0.000 A 
ATOM      2  C   UNL     1       2.430   5.451  18.098  0.00  0.00    +0.000 A 
ATOM      3  C   UNL     1       2.208   4.072  18.191  0.00  0.00    +0.000 A 
ATOM      4  C   UNL     1       3.212   3.187  17.780  0.00  0.00    +0.000 A 
ATOM      5  C   UNL     1       4.423   3.708  17.316  0.00  0.00    +0.000 A 
ATOM      6  C   UNL     1       4.654   5.098  17.240  0.00  0.00    +0.000 A 
ENDROOT
BRANCH   6   7
ATOM      7  S   UNL     1       6.267   5.561  16.594  0.00  0.00    +0.000 S 
ATOM      8  O   UNL     1       7.051   4.346  16.499  0.00  0.00    +0.000 OA
ATOM      9  O   UNL     1       6.092   6.389  15.424  0.00  0.00    +0.000 OA
BRANCH   7  10
ATOM     10  N   UNL     1       6.932   6.499  17.844  0.00  0.00    +0.000 NA
ATOM     11  C   UNL     1       7.608   5.809  18.953  0.00  0.00    +0.000 C 
ATOM     12  C   UNL     1       7.598   7.758  17.463  0.00  0.00    +0.000 C 
ENDBRANCH   7  10
ENDBRANCH   6   7
BRANCH   3  13
ATOM     13  O   UNL     1       1.051   3.518  18.680  0.00  0.00    +0.000 OA
ATOM     14  C   UNL     1       0.832   3.632  20.082  0.00  0.00    +0.000 C 
ENDBRANCH   3  13
BRANCH   4  15
ATOM     15  O   UNL     1       2.928   1.847  17.858  0.00  0.00    +0.000 OA
ATOM     16  C   UNL     1       3.699   1.064  18.762  0.00  0.00    +0.000 C 
ENDBRANCH   4  15
BRANCH   1  17
ATOM     17  C   UNL     1       3.684   7.512  17.495  0.00  0.00    +0.000 C 
BRANCH  17  23
ATOM     18  C   UNL     1      -0.641  11.295  18.770  0.00  0.00    +0.000 C 
ATOM     19  N   UNL     1       0.066  10.483  17.809  0.00  0.00    +0.000 N 
ATOM     20  C   UNL     1       0.913   9.555  18.279  0.00  0.00    +0.000 A 
ATOM     21  N   UNL     1       1.054   9.033  19.477  0.00  0.00    +0.000 NA
ATOM     22  N   UNL     1       2.129   8.172  19.408  0.00  0.00    +0.000 NA
ATOM     23  C   UNL     1       2.561   8.223  18.166  0.00  0.00    +0.000 A 
ATOM     24  O   UNL     1       1.833   9.084  17.389  0.00  0.00    +0.000 OA
ATOM     25  H   UNL     1       0.348  10.950  16.954  0.00  0.00    +0.000 HD
ENDBRANCH  17  23
ENDBRANCH   1  17
TORSDOF 6
ENDMDL
MODEL 3
REMARK VINA RESULT:      -7.3      2.139      4.486
REMARK  Name = 
REMARK  11 active torsions:
REMARK  status: ('A' for Active; 'I' for Inactive)
REMARK    1  A    between atoms: C_1  and  N_2
REMARK    2  A    between atoms: C_6  and  C_7
REMARK    3  A    between atoms: C_7  and  C_8
REMARK    4  A    between atoms: C_10  and  O_11
REMARK    5  A    between atoms: O_11  and  C_12
REMARK    6  A    between atoms: C_13  and  O_14
REMARK    7  A    between atoms: O_14  and  C_15
REMARK    8  A    between atoms: C_17  and  S_18
REMARK    9  A    between atoms: S_18  and  N_21
REMARK   10  A    between atoms: N_21  and  C_22
REMARK   11  A    between atoms: N_21  and  C_23
REMARK                            x       y       z     vdW  Elec       q    Type
REMARK                         _______ _______ _______ _____ _____    ______ ____
ROOT
ATOM      1  C   UNL     1       3.032   6.226  17.828  0.00  0.00    +0.000 A 
ATOM      2  C   UNL     1       1.962   5.476  18.373  0.00  0.00    +0.000 A 
ATOM      3  C   UNL     1       1.915   4.078  18.323  0.00  0.00    +0.000 A 
ATOM      4  C   UNL     1       2.962   3.380  17.708  0.00  0.00    +0.000 A 
ATOM      5  C   UNL     1       4.041   4.099  17.187  0.00  0.00    +0.000 A 
ATOM      6  C   UNL     1       4.096   5.508  17.254  0.00  0.00    +0.000 A 
ENDROOT
BRANCH   6   7
ATOM      7  S   UNL     1       5.557   6.242  16.506  0.00  0.00    +0.000 S 
ATOM      8  O   UNL     1       5.149   6.796  15.231  0.00  0.00    +0.000 OA
ATOM      9  O   UNL     1       6.213   7.089  17.474  0.00  0.00    +0.000 OA
BRANCH   7  10
ATOM     10  N   UNL     1       6.545   4.899  16.184  0.00  0.00    +0.000 NA
ATOM     11  C   UNL     1       7.002   4.681  14.803  0.00  0.00    +0.000 C 
ATOM     12  C   UNL     1       7.572   4.560  17.186  0.00  0.00    +0.000 C 
ENDBRANCH   7  10
ENDBRANCH   6   7
BRANCH   3  13
ATOM     13  O   UNL     1       0.897   3.330  18.859  0.00  0.00    +0.000 OA
ATOM     14  C   UNL     1       0.888   3.185  20.275  0.00  0.00    +0.000 C 
ENDBRANCH   3  13
BRANCH   4  15
ATOM     15  O   UNL     1       2.848   2.013  17.654  0.00  0.00    +0.000 OA
ATOM     16  C   UNL     1       3.699   1.250  18.501  0.00  0.00    +0.000 C 
ENDBRANCH   4  15
BRANCH   1  17
ATOM     17  C   UNL     1       2.886   7.734  17.895  0.00  0.00    +0.000 C 
BRANCH  17  23
ATOM     18  C   UNL     1      -0.649  11.016  21.269  0.00  0.00    +0.000 C 
ATOM     19  N   UNL     1      -0.287  10.498  19.971  0.00  0.00    +0.000 N 
ATOM     20  C   UNL     1       0.585   9.479  19.926  0.00  0.00    +0.000 A 
ATOM     21  N   UNL     1       1.004   8.651  20.857  0.00  0.00    +0.000 NA
ATOM     22  N   UNL     1       1.954   7.844  20.269  0.00  0.00    +0.000 NA
ATOM     23  C   UNL     1       2.040   8.233  19.014  0.00  0.00    +0.000 A 
ATOM     24  O   UNL     1       1.195   9.272  18.724  0.00  0.00    +0.000 OA
ATOM     25  H   UNL     1      -0.212  11.181  19.225  0.00  0.00    +0.000 HD
ENDBRANCH  17  23
ENDBRANCH   1  17
TORSDOF 6
ENDMDL
MODEL 4
REMARK VINA RESULT:      -7.3      2.146      4.515
REMARK  Name = 
REMARK  11 active torsions:
REMARK  status: ('A' for Active; 'I' for Inactive)
REMARK    1  A    between atoms: C_1  and  N_2
REMARK    2  A    between atoms: C_6  and  C_7
REMARK    3  A    between atoms: C_7  and  C_8
REMARK    4  A    between atoms: C_10  and  O_11
REMARK    5  A    between atoms: O_11  and  C_12
REMARK    6  A    between atoms: C_13  and  O_14
REMARK    7  A    between atoms: O_14  and  C_15
REMARK    8  A    between atoms: C_17  and  S_18
REMARK    9  A    between atoms: S_18  and  N_21
REMARK   10  A    between atoms: N_21  and  C_22
REMARK   11  A    between atoms: N_21  and  C_23
REMARK                            x       y       z     vdW  Elec       q    Type
REMARK                         _______ _______ _______ _____ _____    ______ ____
ROOT
ATOM      1  C   UNL     1       3.356   6.081  17.668  0.00  0.00    +0.000 A 
ATOM      2  C   UNL     1       2.212   5.474  18.239  0.00  0.00    +0.000 A 
ATOM      3  C   UNL     1       2.043   4.086  18.304  0.00  0.00    +0.000 A 
ATOM      4  C   UNL     1       3.038   3.251  17.782  0.00  0.00    +0.000 A 
ATOM      5  C   UNL     1       4.189   3.828  17.238  0.00  0.00    +0.000 A 
ATOM      6  C   UNL     1       4.367   5.227  17.190  0.00  0.00    +0.000 A 
ENDROOT
BRANCH   6   7
ATOM      7  S   UNL     1       5.905   5.766  16.431  0.00  0.00    +0.000 S 
ATOM      8  O   UNL     1       6.651   4.573  16.087  0.00  0.00    +0.000 OA
ATOM      9  O   UNL     1       5.614   6.743  15.407  0.00  0.00    +0.000 OA
BRANCH   7  10
ATOM     10  N   UNL     1       6.723   6.528  17.709  0.00  0.00    +0.000 NA
ATOM     11  C   UNL     1       7.415   5.687  18.697  0.00  0.00    +0.000 C 
ATOM     12  C   UNL     1       7.461   7.766  17.396  0.00  0.00    +0.000 C 
ENDBRANCH   7  10
ENDBRANCH   6   7
BRANCH   3  13
ATOM     13  O   UNL     1       0.949   3.477  18.867  0.00  0.00    +0.000 OA
ATOM     14  C   UNL     1       0.899   3.444  20.289  0.00  0.00    +0.000 C 
ENDBRANCH   3  13
BRANCH   4  15
ATOM     15  O   UNL     1       2.805   1.900  17.838  0.00  0.00    +0.000 OA
ATOM     16  C   UNL     1       3.687   1.114  18.631  0.00  0.00    +0.000 C 
ENDBRANCH   4  15
BRANCH   1  17
ATOM     17  C   UNL     1       3.343   7.596  17.605  0.00  0.00    +0.000 C 
BRANCH  17  23
ATOM     18  C   UNL     1      -0.310   8.935  22.023  0.00  0.00    +0.000 C 
ATOM     19  N   UNL     1       0.987   8.500  21.561  0.00  0.00    +0.000 N 
ATOM     20  C   UNL     1       1.273   8.660  20.260  0.00  0.00    +0.000 A 
ATOM     21  N   UNL     1       0.702   9.388  19.327  0.00  0.00    +0.000 NA
ATOM     22  N   UNL     1       1.369   9.119  18.152  0.00  0.00    +0.000 NA
ATOM     23  C   UNL     1       2.309   8.249  18.455  0.00  0.00    +0.000 A 
ATOM     24  O   UNL     1       2.308   7.911  19.783  0.00  0.00    +0.000 OA
ATOM     25  H   UNL     1       1.356   7.662  21.997  0.00  0.00    +0.000 HD
ENDBRANCH  17  23
ENDBRANCH   1  17
TORSDOF 6
ENDMDL
MODEL 5
REMARK VINA RESULT:      -7.2      2.160      4.516
REMARK  Name = 
REMARK  11 active torsions:
REMARK  status: ('A' for Active; 'I' for Inactive)
REMARK    1  A    between atoms: C_1  and  N_2
REMARK    2  A    between atoms: C_6  and  C_7
REMARK    3  A    between atoms: C_7  and  C_8
REMARK    4  A    between atoms: C_10  and  O_11
REMARK    5  A    between atoms: O_11  and  C_12
REMARK    6  A    between atoms: C_13  and  O_14
REMARK    7  A    between atoms: O_14  and  C_15
REMARK    8  A    between atoms: C_17  and  S_18
REMARK    9  A    between atoms: S_18  and  N_21
REMARK   10  A    between atoms: N_21  and  C_22
REMARK   11  A    between atoms: N_21  and  C_23
REMARK                            x       y       z     vdW  Elec       q    Type
REMARK                         _______ _______ _______ _____ _____    ______ ____
ROOT
ATOM      1  C   UNL     1       3.051   6.457  17.783  0.00  0.00    +0.000 A 
ATOM      2  C   UNL     1       1.948   5.788  18.366  0.00  0.00    +0.000 A 
ATOM      3  C   UNL     1       1.834   4.393  18.387  0.00  0.00    +0.000 A 
ATOM      4  C   UNL     1       2.844   3.615  17.808  0.00  0.00    +0.000 A 
ATOM      5  C   UNL     1       3.954   4.253  17.251  0.00  0.00    +0.000 A 
ATOM      6  C   UNL     1       4.078   5.660  17.246  0.00  0.00    +0.000 A 
ENDROOT
BRANCH   6   7
ATOM      7  S   UNL     1       5.571   6.283  16.461  0.00  0.00    +0.000 S 
ATOM      8  O   UNL     1       5.184   6.803  15.165  0.00  0.00    +0.000 OA
ATOM      9  O   UNL     1       6.276   7.135  17.388  0.00  0.00    +0.000 OA
BRANCH   7  10
ATOM     10  N   UNL     1       6.485   4.877  16.193  0.00  0.00    +0.000 NA
ATOM     11  C   UNL     1       6.858   4.538  14.812  0.00  0.00    +0.000 C 
ATOM     12  C   UNL     1       7.550   4.568  17.165  0.00  0.00    +0.000 C 
ENDBRANCH   7  10
ENDBRANCH   6   7
BRANCH   3  13
ATOM     13  O   UNL     1       0.782   3.723  18.961  0.00  0.00    +0.000 OA
ATOM     14  C   UNL     1       0.859   3.496  20.364  0.00  0.00    +0.000 C 
ENDBRANCH   3  13
BRANCH   4  15
ATOM     15  O   UNL     1       2.663   2.254  17.824  0.00  0.00    +0.000 OA
ATOM     16  C   UNL     1       3.675   1.466  18.439  0.00  0.00    +0.000 C 
ENDBRANCH   4  15
BRANCH   1  17
ATOM     17  C   UNL     1       2.979   7.972  17.773  0.00  0.00    +0.000 C 
BRANCH  17  23
ATOM     18  C   UNL     1      -0.418   9.061  22.456  0.00  0.00    +0.000 C 
ATOM     19  N   UNL     1       0.865   8.706  21.897  0.00  0.00    +0.000 N 
ATOM     20  C   UNL     1       1.047   8.893  20.582  0.00  0.00    +0.000 A 
ATOM     21  N   UNL     1       0.370   9.594  19.700  0.00  0.00    +0.000 NA
ATOM     22  N   UNL     1       0.965   9.373  18.477  0.00  0.00    +0.000 NA
ATOM     23  C   UNL     1       1.973   8.557  18.702  0.00  0.00    +0.000 A 
ATOM     24  O   UNL     1       2.086   8.209  20.022  0.00  0.00    +0.000 OA
ATOM     25  H   UNL     1       1.312   7.887  22.296  0.00  0.00    +0.000 HD
ENDBRANCH  17  23
ENDBRANCH   1  17
TORSDOF 6
ENDMDL
MODEL 6
REMARK VINA RESULT:      -7.0      2.064      2.583
REMARK  Name = 
REMARK  11 active torsions:
REMARK  status: ('A' for Active; 'I' for Inactive)
REMARK    1  A    between atoms: C_1  and  N_2
REMARK    2  A    between atoms: C_6  and  C_7
REMARK    3  A    between atoms: C_7  and  C_8
REMARK    4  A    between atoms: C_10  and  O_11
REMARK    5  A    between atoms: O_11  and  C_12
REMARK    6  A    between atoms: C_13  and  O_14
REMARK    7  A    between atoms: O_14  and  C_15
REMARK    8  A    between atoms: C_17  and  S_18
REMARK    9  A    between atoms: S_18  and  N_21
REMARK   10  A    between atoms: N_21  and  C_22
REMARK   11  A    between atoms: N_21  and  C_23
REMARK                            x       y       z     vdW  Elec       q    Type
REMARK                         _______ _______ _______ _____ _____    ______ ____
ROOT
ATOM      1  C   UNL     1       3.834   5.863  18.056  0.00  0.00    +0.000 A 
ATOM      2  C   UNL     1       4.885   6.558  17.410  0.00  0.00    +0.000 A 
ATOM      3  C   UNL     1       6.236   6.275  17.644  0.00  0.00    +0.000 A 
ATOM      4  C   UNL     1       6.577   5.267  18.553  0.00  0.00    +0.000 A 
ATOM      5  C   UNL     1       5.555   4.549  19.182  0.00  0.00    +0.000 A 
ATOM      6  C   UNL     1       4.193   4.823  18.932  0.00  0.00    +0.000 A 
ENDROOT
BRANCH   6   7
ATOM      7  S   UNL     1       3.037   3.803  19.858  0.00  0.00    +0.000 S 
ATOM      8  O   UNL     1       3.806   2.743  20.477  0.00  0.00    +0.000 OA
ATOM      9  O   UNL     1       2.205   4.652  20.678  0.00  0.00    +0.000 OA
BRANCH   7  10
ATOM     10  N   UNL     1       2.083   3.097  18.643  0.00  0.00    +0.000 NA
ATOM     11  C   UNL     1       2.731   2.189  17.684  0.00  0.00    +0.000 C 
ATOM     12  C   UNL     1       0.726   2.657  19.020  0.00  0.00    +0.000 C 
ENDBRANCH   7  10
ENDBRANCH   6   7
BRANCH   3  13
ATOM     13  O   UNL     1       7.270   6.925  17.018  0.00  0.00    +0.000 OA
ATOM     14  C   UNL     1       7.653   8.185  17.559  0.00  0.00    +0.000 C 
ENDBRANCH   3  13
BRANCH   4  15
ATOM     15  O   UNL     1       7.915   5.056  18.773  0.00  0.00    +0.000 OA
ATOM     16  C   UNL     1       8.434   5.413  20.048  0.00  0.00    +0.000 C 
ENDBRANCH   4  15
BRANCH   1  17
ATOM     17  C   UNL     1       2.431   6.349  17.751  0.00  0.00    +0.000 C 
BRANCH  17  23
ATOM     18  C   UNL     1       1.446  12.048  18.848  0.00  0.00    +0.000 C 
ATOM     19  N   UNL     1       1.394  10.921  17.947  0.00  0.00    +0.000 N 
ATOM     20  C   UNL     1       1.567   9.697  18.468  0.00  0.00    +0.000 A 
ATOM     21  N   UNL     1       1.520   9.264  19.708  0.00  0.00    +0.000 NA
ATOM     22  N   UNL     1       1.844   7.925  19.671  0.00  0.00    +0.000 NA
ATOM     23  C   UNL     1       2.057   7.633  18.406  0.00  0.00    +0.000 A 
ATOM     24  O   UNL     1       1.898   8.716  17.580  0.00  0.00    +0.000 OA
ATOM     25  H   UNL     1       1.787  11.072  17.025  0.00  0.00    +0.000 HD
ENDBRANCH  17  23
ENDBRANCH   1  17
TORSDOF 6
ENDMDL
MODEL 7
REMARK VINA RESULT:      -6.9      0.962      1.141
REMARK  Name = 
REMARK  11 active torsions:
REMARK  status: ('A' for Active; 'I' for Inactive)
REMARK    1  A    between atoms: C_1  and  N_2
REMARK    2  A    between atoms: C_6  and  C_7
REMARK    3  A    between atoms: C_7  and  C_8
REMARK    4  A    between atoms: C_10  and  O_11
REMARK    5  A    between atoms: O_11  and  C_12
REMARK    6  A    between atoms: C_13  and  O_14
REMARK    7  A    between atoms: O_14  and  C_15
REMARK    8  A    between atoms: C_17  and  S_18
REMARK    9  A    between atoms: S_18  and  N_21
REMARK   10  A    between atoms: N_21  and  C_22
REMARK   11  A    between atoms: N_21  and  C_23
REMARK                            x       y       z     vdW  Elec       q    Type
REMARK                         _______ _______ _______ _____ _____    ______ ____
ROOT
ATOM      1  C   UNL     1       3.803   5.782  18.328  0.00  0.00    +0.000 A 
ATOM      2  C   UNL     1       4.852   6.686  18.032  0.00  0.00    +0.000 A 
ATOM      3  C   UNL     1       5.680   6.544  16.912  0.00  0.00    +0.000 A 
ATOM      4  C   UNL     1       5.475   5.465  16.043  0.00  0.00    +0.000 A 
ATOM      5  C   UNL     1       4.429   4.576  16.301  0.00  0.00    +0.000 A 
ATOM      6  C   UNL     1       3.583   4.731  17.421  0.00  0.00    +0.000 A 
ENDROOT
BRANCH   6   7
ATOM      7  S   UNL     1       2.313   3.468  17.586  0.00  0.00    +0.000 S 
ATOM      8  O   UNL     1       1.033   4.128  17.426  0.00  0.00    +0.000 OA
ATOM      9  O   UNL     1       2.645   2.345  16.742  0.00  0.00    +0.000 OA
BRANCH   7  10
ATOM     10  N   UNL     1       2.442   2.998  19.213  0.00  0.00    +0.000 NA
ATOM     11  C   UNL     1       1.230   2.538  19.906  0.00  0.00    +0.000 C 
ATOM     12  C   UNL     1       3.646   2.241  19.603  0.00  0.00    +0.000 C 
ENDBRANCH   7  10
ENDBRANCH   6   7
BRANCH   3  13
ATOM     13  O   UNL     1       6.691   7.416  16.597  0.00  0.00    +0.000 OA
ATOM     14  C   UNL     1       7.652   7.674  17.615  0.00  0.00    +0.000 C 
ENDBRANCH   3  13
BRANCH   4  15
ATOM     15  O   UNL     1       6.339   5.352  14.982  0.00  0.00    +0.000 OA
ATOM     16  C   UNL     1       6.178   4.230  14.122  0.00  0.00    +0.000 C 
ENDBRANCH   4  15
BRANCH   1  17
ATOM     17  C   UNL     1       3.055   6.036  19.623  0.00  0.00    +0.000 C 
BRANCH  17  23
ATOM     18  C   UNL     1       0.927  11.383  18.388  0.00  0.00    +0.000 C 
ATOM     19  N   UNL     1       1.366  10.080  17.948  0.00  0.00    +0.000 N 
ATOM     20  C   UNL     1       1.516   9.125  18.878  0.00  0.00    +0.000 A 
ATOM     21  N   UNL     1       1.090   9.044  20.119  0.00  0.00    +0.000 NA
ATOM     22  N   UNL     1       1.595   7.869  20.634  0.00  0.00    +0.000 NA
ATOM     23  C   UNL     1       2.289   7.312  19.664  0.00  0.00    +0.000 A 
ATOM     24  O   UNL     1       2.282   8.057  18.514  0.00  0.00    +0.000 OA
ATOM     25  H   UNL     1       2.038  10.071  17.189  0.00  0.00    +0.000 HD
ENDBRANCH  17  23
ENDBRANCH   1  17
TORSDOF 6
ENDMDL
MODEL 8
REMARK VINA RESULT:      -6.9      1.956      2.417
REMARK  Name = 
REMARK  11 active torsions:
REMARK  status: ('A' for Active; 'I' for Inactive)
REMARK    1  A    between atoms: C_1  and  N_2
REMARK    2  A    between atoms: C_6  and  C_7
REMARK    3  A    between atoms: C_7  and  C_8
REMARK    4  A    between atoms: C_10  and  O_11
REMARK    5  A    between atoms: O_11  and  C_12
REMARK    6  A    between atoms: C_13  and  O_14
REMARK    7  A    between atoms: O_14  and  C_15
REMARK    8  A    between atoms: C_17  and  S_18
REMARK    9  A    between atoms: S_18  and  N_21
REMARK   10  A    between atoms: N_21  and  C_22
REMARK   11  A    between atoms: N_21  and  C_23
REMARK                            x       y       z     vdW  Elec       q    Type
REMARK                         _______ _______ _______ _____ _____    ______ ____
ROOT
ATOM      1  C   UNL     1       3.552   6.437  17.781  0.00  0.00    +0.000 A 
ATOM      2  C   UNL     1       4.732   6.969  17.207  0.00  0.00    +0.000 A 
ATOM      3  C   UNL     1       6.009   6.487  17.518  0.00  0.00    +0.000 A 
ATOM      4  C   UNL     1       6.139   5.437  18.435  0.00  0.00    +0.000 A 
ATOM      5  C   UNL     1       4.986   4.878  18.992  0.00  0.00    +0.000 A 
ATOM      6  C   UNL     1       3.697   5.353  18.665  0.00  0.00    +0.000 A 
ENDROOT
BRANCH   6   7
ATOM      7  S   UNL     1       2.348   4.515  19.507  0.00  0.00    +0.000 S 
ATOM      8  O   UNL     1       2.024   5.302  20.680  0.00  0.00    +0.000 OA
ATOM      9  O   UNL     1       1.312   4.201  18.552  0.00  0.00    +0.000 OA
BRANCH   7  10
ATOM     10  N   UNL     1       3.063   3.071  20.045  0.00  0.00    +0.000 NA
ATOM     11  C   UNL     1       2.799   2.632  21.424  0.00  0.00    +0.000 C 
ATOM     12  C   UNL     1       3.123   1.950  19.089  0.00  0.00    +0.000 C 
ENDBRANCH   7  10
ENDBRANCH   6   7
BRANCH   3  13
ATOM     13  O   UNL     1       7.164   6.977  16.963  0.00  0.00    +0.000 OA
ATOM     14  C   UNL     1       7.658   8.202  17.495  0.00  0.00    +0.000 C 
ENDBRANCH   3  13
BRANCH   4  15
ATOM     15  O   UNL     1       7.415   5.028  18.732  0.00  0.00    +0.000 OA
ATOM     16  C   UNL     1       8.002   5.528  19.928  0.00  0.00    +0.000 C 
ENDBRANCH   4  15
BRANCH   1  17
ATOM     17  C   UNL     1       2.258   7.128  17.397  0.00  0.00    +0.000 C 
BRANCH  17  23
ATOM     18  C   UNL     1       2.119  12.820  18.892  0.00  0.00    +0.000 C 
ATOM     19  N   UNL     1       2.043  11.790  17.883  0.00  0.00    +0.000 N 
ATOM     20  C   UNL     1       1.887  10.523  18.295  0.00  0.00    +0.000 A 
ATOM     21  N   UNL     1       1.520  10.024  19.454  0.00  0.00    +0.000 NA
ATOM     22  N   UNL     1       1.598   8.652  19.336  0.00  0.00    +0.000 NA
ATOM     23  C   UNL     1       1.999   8.412  18.105  0.00  0.00    +0.000 A 
ATOM     24  O   UNL     1       2.203   9.559  17.383  0.00  0.00    +0.000 OA
ATOM     25  H   UNL     1       2.630  11.924  17.067  0.00  0.00    +0.000 HD
ENDBRANCH  17  23
ENDBRANCH   1  17
TORSDOF 6
ENDMDL
MODEL 9
REMARK VINA RESULT:      -6.8      1.930      2.425
REMARK  Name = 
REMARK  11 active torsions:
REMARK  status: ('A' for Active; 'I' for Inactive)
REMARK    1  A    between atoms: C_1  and  N_2
REMARK    2  A    between atoms: C_6  and  C_7
REMARK    3  A    between atoms: C_7  and  C_8
REMARK    4  A    between atoms: C_10  and  O_11
REMARK    5  A    between atoms: O_11  and  C_12
REMARK    6  A    between atoms: C_13  and  O_14
REMARK    7  A    between atoms: O_14  and  C_15
REMARK    8  A    between atoms: C_17  and  S_18
REMARK    9  A    between atoms: S_18  and  N_21
REMARK   10  A    between atoms: N_21  and  C_22
REMARK   11  A    between atoms: N_21  and  C_23
REMARK                            x       y       z     vdW  Elec       q    Type
REMARK                         _______ _______ _______ _____ _____    ______ ____
ROOT
ATOM      1  C   UNL     1       3.717   5.978  18.026  0.00  0.00    +0.000 A 
ATOM      2  C   UNL     1       4.778   6.656  17.376  0.00  0.00    +0.000 A 
ATOM      3  C   UNL     1       6.124   6.353  17.609  0.00  0.00    +0.000 A 
ATOM      4  C   UNL     1       6.451   5.343  18.522  0.00  0.00    +0.000 A 
ATOM      5  C   UNL     1       5.420   4.643  19.154  0.00  0.00    +0.000 A 
ATOM      6  C   UNL     1       4.061   4.936  18.905  0.00  0.00    +0.000 A 
ENDROOT
BRANCH   6   7
ATOM      7  S   UNL     1       2.891   3.937  19.835  0.00  0.00    +0.000 S 
ATOM      8  O   UNL     1       3.657   2.922  20.530  0.00  0.00    +0.000 OA
ATOM      9  O   UNL     1       2.015   4.805  20.585  0.00  0.00    +0.000 OA
BRANCH   7  10
ATOM     10  N   UNL     1       1.995   3.157  18.622  0.00  0.00    +0.000 NA
ATOM     11  C   UNL     1       2.708   2.282  17.679  0.00  0.00    +0.000 C 
ATOM     12  C   UNL     1       0.666   2.635  18.993  0.00  0.00    +0.000 C 
ENDBRANCH   7  10
ENDBRANCH   6   7
BRANCH   3  13
ATOM     13  O   UNL     1       7.167   6.986  16.980  0.00  0.00    +0.000 OA
ATOM     14  C   UNL     1       7.607   8.213  17.551  0.00  0.00    +0.000 C 
ENDBRANCH   3  13
BRANCH   4  15
ATOM     15  O   UNL     1       7.786   5.113  18.740  0.00  0.00    +0.000 OA
ATOM     16  C   UNL     1       8.322   5.508  19.998  0.00  0.00    +0.000 C 
ENDBRANCH   4  15
BRANCH   1  17
ATOM     17  C   UNL     1       2.321   6.485  17.720  0.00  0.00    +0.000 C 
BRANCH  17  23
ATOM     18  C   UNL     1       0.473  11.314  20.534  0.00  0.00    +0.000 C 
ATOM     19  N   UNL     1       1.004   9.972  20.570  0.00  0.00    +0.000 N 
ATOM     20  C   UNL     1       1.489   9.461  19.429  0.00  0.00    +0.000 A 
ATOM     21  N   UNL     1       1.830  10.032  18.295  0.00  0.00    +0.000 NA
ATOM     22  N   UNL     1       2.200   9.019  17.438  0.00  0.00    +0.000 NA
ATOM     23  C   UNL     1       2.067   7.898  18.115  0.00  0.00    +0.000 A 
ATOM     24  O   UNL     1       1.617   8.103  19.392  0.00  0.00    +0.000 OA
ATOM     25  H   UNL     1       0.522   9.320  21.180  0.00  0.00    +0.000 HD
ENDBRANCH  17  23
ENDBRANCH   1  17
TORSDOF 6
ENDMDL
