MODEL 1
REMARK VINA RESULT:      -8.3      0.000      0.000
REMARK  Name = 
REMARK  1 active torsions:
REMARK  status: ('A' for Active; 'I' for Inactive)
REMARK    1  A    between atoms: C_4  and  C_5
REMARK                            x       y       z     vdW  Elec       q    Type
REMARK                         _______ _______ _______ _____ _____    ______ ____
ROOT
ATOM      1  O   UNL     1       2.699   8.624  17.200  0.00  0.00    +0.000 OA
ATOM      2  C   UNL     1       2.319   8.216  18.293  0.00  0.00    +0.000 A 
ATOM      3  O   UNL     1       1.625   9.044  19.160  0.00  0.00    +0.000 OA
ATOM      4  C   UNL     1       1.175   8.605  20.441  0.00  0.00    +0.000 A 
ATOM      5  C   UNL     1       1.386   7.345  20.869  0.00  0.00    +0.000 A 
ATOM      6  C   UNL     1       2.084   6.424  20.038  0.00  0.00    +0.000 A 
ATOM      7  C   UNL     1       2.517   6.882  18.816  0.00  0.00    +0.000 A 
ATOM      8  S   UNL     1       3.333   5.683  17.941  0.00  0.00    +0.000 S 
ATOM      9  C   UNL     1       3.105   4.515  19.190  0.00  0.00    +0.000 A 
ATOM     10  C   UNL     1       3.540   3.176  19.167  0.00  0.00    +0.000 A 
ATOM     11  C   UNL     1       3.270   2.357  20.264  0.00  0.00    +0.000 A 
ATOM     12  C   UNL     1       2.584   2.856  21.362  0.00  0.00    +0.000 A 
ATOM     13  C   UNL     1       2.153   4.189  21.383  0.00  0.00    +0.000 A 
ATOM     14  C   UNL     1       2.409   5.049  20.283  0.00  0.00    +0.000 A 
ENDROOT
BRANCH   4  15
ATOM     15  C   UNL     1       0.442   9.626  21.215  0.00  0.00    +0.000 A 
ATOM     16  C   UNL     1       0.372  10.958  20.775  0.00  0.00    +0.000 A 
ATOM     17  C   UNL     1      -0.284  11.928  21.536  0.00  0.00    +0.000 A 
ATOM     18  C   UNL     1      -0.890  11.567  22.731  0.00  0.00    +0.000 A 
ATOM     19  F   UNL     1      -1.501  12.504  23.469  0.00  0.00    +0.000 F 
ATOM     20  C   UNL     1      -0.868  10.252  23.173  0.00  0.00    +0.000 A 
ATOM     21  C   UNL     1      -0.207   9.281  22.414  0.00  0.00    +0.000 A 
ENDBRANCH   4  15
TORSDOF 1
ENDMDL
MODEL 2
REMARK VINA RESULT:      -8.2      0.141      1.059
REMARK  Name = 
REMARK  1 active torsions:
REMARK  status: ('A' for Active; 'I' for Inactive)
REMARK    1  A    between atoms: C_4  and  C_5
REMARK                            x       y       z     vdW  Elec       q    Type
REMARK                         _______ _______ _______ _____ _____    ______ ____
ROOT
ATOM      1  O   UNL     1       2.670   8.729  17.283  0.00  0.00    +0.000 OA
ATOM      2  C   UNL     1       2.287   8.297  18.366  0.00  0.00    +0.000 A 
ATOM      3  O   UNL     1       1.583   9.103  19.246  0.00  0.00    +0.000 OA
ATOM      4  C   UNL     1       1.129   8.636  20.515  0.00  0.00    +0.000 A 
ATOM      5  C   UNL     1       1.346   7.369  20.919  0.00  0.00    +0.000 A 
ATOM      6  C   UNL     1       2.055   6.469  20.073  0.00  0.00    +0.000 A 
ATOM      7  C   UNL     1       2.491   6.953  18.863  0.00  0.00    +0.000 A 
ATOM      8  S   UNL     1       3.319   5.777  17.969  0.00  0.00    +0.000 S 
ATOM      9  C   UNL     1       3.092   4.583  19.193  0.00  0.00    +0.000 A 
ATOM     10  C   UNL     1       3.536   3.247  19.146  0.00  0.00    +0.000 A 
ATOM     11  C   UNL     1       3.265   2.405  20.225  0.00  0.00    +0.000 A 
ATOM     12  C   UNL     1       2.570   2.879  21.328  0.00  0.00    +0.000 A 
ATOM     13  C   UNL     1       2.131   4.208  21.374  0.00  0.00    +0.000 A 
ATOM     14  C   UNL     1       2.387   5.091  20.293  0.00  0.00    +0.000 A 
ENDROOT
BRANCH   4  15
ATOM     15  C   UNL     1       0.386   9.636  21.306  0.00  0.00    +0.000 A 
ATOM     16  C   UNL     1      -0.130   9.321  22.573  0.00  0.00    +0.000 A 
ATOM     17  C   UNL     1      -0.871  10.258  23.296  0.00  0.00    +0.000 A 
ATOM     18  C   UNL     1      -1.082  11.522  22.764  0.00  0.00    +0.000 A 
ATOM     19  F   UNL     1      -1.811  12.412  23.450  0.00  0.00    +0.000 F 
ATOM     20  C   UNL     1      -0.554  11.874  21.529  0.00  0.00    +0.000 A 
ATOM     21  C   UNL     1       0.184  10.934  20.803  0.00  0.00    +0.000 A 
ENDBRANCH   4  15
TORSDOF 1
ENDMDL
MODEL 3
REMARK VINA RESULT:      -8.2      3.196      6.876
REMARK  Name = 
REMARK  1 active torsions:
REMARK  status: ('A' for Active; 'I' for Inactive)
REMARK    1  A    between atoms: C_4  and  C_5
REMARK                            x       y       z     vdW  Elec       q    Type
REMARK                         _______ _______ _______ _____ _____    ______ ____
ROOT
ATOM      1  O   UNL     1       2.312   9.230  17.084  0.00  0.00    +0.000 OA
ATOM      2  C   UNL     1       2.085   8.696  18.166  0.00  0.00    +0.000 A 
ATOM      3  O   UNL     1       2.572   7.430  18.450  0.00  0.00    +0.000 OA
ATOM      4  C   UNL     1       2.322   6.778  19.694  0.00  0.00    +0.000 A 
ATOM      5  C   UNL     1       1.610   7.372  20.672  0.00  0.00    +0.000 A 
ATOM      6  C   UNL     1       1.080   8.676  20.467  0.00  0.00    +0.000 A 
ATOM      7  C   UNL     1       1.325   9.272  19.253  0.00  0.00    +0.000 A 
ATOM      8  S   UNL     1       0.632  10.814  19.150  0.00  0.00    +0.000 S 
ATOM      9  C   UNL     1      -0.004  10.714  20.751  0.00  0.00    +0.000 A 
ATOM     10  C   UNL     1      -0.751  11.707  21.414  0.00  0.00    +0.000 A 
ATOM     11  C   UNL     1      -1.190  11.467  22.716  0.00  0.00    +0.000 A 
ATOM     12  C   UNL     1      -0.896  10.267  23.347  0.00  0.00    +0.000 A 
ATOM     13  C   UNL     1      -0.155   9.280  22.686  0.00  0.00    +0.000 A 
ATOM     14  C   UNL     1       0.310   9.492  21.361  0.00  0.00    +0.000 A 
ENDROOT
BRANCH   4  15
ATOM     15  C   UNL     1       2.934   5.440  19.817  0.00  0.00    +0.000 A 
ATOM     16  C   UNL     1       4.166   5.147  19.208  0.00  0.00    +0.000 A 
ATOM     17  C   UNL     1       4.717   3.867  19.290  0.00  0.00    +0.000 A 
ATOM     18  C   UNL     1       4.048   2.878  19.999  0.00  0.00    +0.000 A 
ATOM     19  F   UNL     1       4.569   1.645  20.058  0.00  0.00    +0.000 F 
ATOM     20  C   UNL     1       2.848   3.147  20.640  0.00  0.00    +0.000 A 
ATOM     21  C   UNL     1       2.294   4.428  20.554  0.00  0.00    +0.000 A 
ENDBRANCH   4  15
TORSDOF 1
ENDMDL
MODEL 4
REMARK VINA RESULT:      -8.1      2.443      3.579
REMARK  Name = 
REMARK  1 active torsions:
REMARK  status: ('A' for Active; 'I' for Inactive)
REMARK    1  A    between atoms: C_4  and  C_5
REMARK                            x       y       z     vdW  Elec       q    Type
REMARK                         _______ _______ _______ _____ _____    ______ ____
ROOT
ATOM      1  O   UNL     1       1.695   3.890  21.239  0.00  0.00    +0.000 OA
ATOM      2  C   UNL     1       1.963   4.893  20.583  0.00  0.00    +0.000 A 
ATOM      3  O   UNL     1       1.469   6.135  20.948  0.00  0.00    +0.000 OA
ATOM      4  C   UNL     1       1.754   7.319  20.205  0.00  0.00    +0.000 A 
ATOM      5  C   UNL     1       2.542   7.293  19.113  0.00  0.00    +0.000 A 
ATOM      6  C   UNL     1       3.100   6.060  18.672  0.00  0.00    +0.000 A 
ATOM      7  C   UNL     1       2.795   4.935  19.400  0.00  0.00    +0.000 A 
ATOM      8  S   UNL     1       3.522   3.546  18.759  0.00  0.00    +0.000 S 
ATOM      9  C   UNL     1       4.276   4.439  17.491  0.00  0.00    +0.000 A 
ATOM     10  C   UNL     1       5.115   3.915  16.488  0.00  0.00    +0.000 A 
ATOM     11  C   UNL     1       5.651   4.779  15.533  0.00  0.00    +0.000 A 
ATOM     12  C   UNL     1       5.358   6.135  15.570  0.00  0.00    +0.000 A 
ATOM     13  C   UNL     1       4.522   6.654  16.566  0.00  0.00    +0.000 A 
ATOM     14  C   UNL     1       3.963   5.803  17.555  0.00  0.00    +0.000 A 
ENDROOT
BRANCH   4  15
ATOM     15  C   UNL     1       1.149   8.547  20.756  0.00  0.00    +0.000 A 
ATOM     16  C   UNL     1       0.829   8.650  22.120  0.00  0.00    +0.000 A 
ATOM     17  C   UNL     1       0.215   9.797  22.625  0.00  0.00    +0.000 A 
ATOM     18  C   UNL     1      -0.064  10.857  21.773  0.00  0.00    +0.000 A 
ATOM     19  F   UNL     1      -0.672  11.948  22.257  0.00  0.00    +0.000 F 
ATOM     20  C   UNL     1       0.272  10.798  20.428  0.00  0.00    +0.000 A 
ATOM     21  C   UNL     1       0.883   9.647  19.921  0.00  0.00    +0.000 A 
ENDBRANCH   4  15
TORSDOF 1
ENDMDL
MODEL 5
REMARK VINA RESULT:      -8.1      3.177      6.931
REMARK  Name = 
REMARK  1 active torsions:
REMARK  status: ('A' for Active; 'I' for Inactive)
REMARK    1  A    between atoms: C_4  and  C_5
REMARK                            x       y       z     vdW  Elec       q    Type
REMARK                         _______ _______ _______ _____ _____    ______ ____
ROOT
ATOM      1  O   UNL     1       2.318   9.254  17.101  0.00  0.00    +0.000 OA
ATOM      2  C   UNL     1       2.079   8.719  18.180  0.00  0.00    +0.000 A 
ATOM      3  O   UNL     1       2.543   7.443  18.460  0.00  0.00    +0.000 OA
ATOM      4  C   UNL     1       2.278   6.789  19.700  0.00  0.00    +0.000 A 
ATOM      5  C   UNL     1       1.574   7.391  20.679  0.00  0.00    +0.000 A 
ATOM      6  C   UNL     1       1.068   8.706  20.479  0.00  0.00    +0.000 A 
ATOM      7  C   UNL     1       1.327   9.304  19.269  0.00  0.00    +0.000 A 
ATOM      8  S   UNL     1       0.661  10.858  19.172  0.00  0.00    +0.000 S 
ATOM      9  C   UNL     1       0.020  10.762  20.770  0.00  0.00    +0.000 A 
ATOM     10  C   UNL     1      -0.710  11.765  21.436  0.00  0.00    +0.000 A 
ATOM     11  C   UNL     1      -1.157  11.527  22.737  0.00  0.00    +0.000 A 
ATOM     12  C   UNL     1      -0.886  10.319  23.363  0.00  0.00    +0.000 A 
ATOM     13  C   UNL     1      -0.161   9.322  22.698  0.00  0.00    +0.000 A 
ATOM     14  C   UNL     1       0.311   9.531  21.375  0.00  0.00    +0.000 A 
ENDROOT
BRANCH   4  15
ATOM     15  C   UNL     1       2.865   5.440  19.818  0.00  0.00    +0.000 A 
ATOM     16  C   UNL     1       2.234   4.438  20.573  0.00  0.00    +0.000 A 
ATOM     17  C   UNL     1       2.818   3.178  20.718  0.00  0.00    +0.000 A 
ATOM     18  C   UNL     1       4.027   2.908  20.092  0.00  0.00    +0.000 A 
ATOM     19  F   UNL     1       4.596   1.705  20.249  0.00  0.00    +0.000 F 
ATOM     20  C   UNL     1       4.656   3.867  19.311  0.00  0.00    +0.000 A 
ATOM     21  C   UNL     1       4.074   5.130  19.169  0.00  0.00    +0.000 A 
ENDBRANCH   4  15
TORSDOF 1
ENDMDL
MODEL 6
REMARK VINA RESULT:      -8.0      2.637      3.671
REMARK  Name = 
REMARK  1 active torsions:
REMARK  status: ('A' for Active; 'I' for Inactive)
REMARK    1  A    between atoms: C_4  and  C_5
REMARK                            x       y       z     vdW  Elec       q    Type
REMARK                         _______ _______ _______ _____ _____    ______ ____
ROOT
ATOM      1  O   UNL     1       2.219   3.828  21.106  0.00  0.00    +0.000 OA
ATOM      2  C   UNL     1       2.419   4.800  20.383  0.00  0.00    +0.000 A 
ATOM      3  O   UNL     1       1.869   6.036  20.683  0.00  0.00    +0.000 OA
ATOM      4  C   UNL     1       2.076   7.184  19.862  0.00  0.00    +0.000 A 
ATOM      5  C   UNL     1       2.840   7.130  18.753  0.00  0.00    +0.000 A 
ATOM      6  C   UNL     1       3.450   5.901  18.375  0.00  0.00    +0.000 A 
ATOM      7  C   UNL     1       3.221   4.810  19.178  0.00  0.00    +0.000 A 
ATOM      8  S   UNL     1       4.004   3.422  18.605  0.00  0.00    +0.000 S 
ATOM      9  C   UNL     1       4.682   4.271  17.265  0.00  0.00    +0.000 A 
ATOM     10  C   UNL     1       5.524   3.727  16.275  0.00  0.00    +0.000 A 
ATOM     11  C   UNL     1       5.993   4.556  15.255  0.00  0.00    +0.000 A 
ATOM     12  C   UNL     1       5.631   5.895  15.216  0.00  0.00    +0.000 A 
ATOM     13  C   UNL     1       4.792   6.433  16.200  0.00  0.00    +0.000 A 
ATOM     14  C   UNL     1       4.300   5.619  17.254  0.00  0.00    +0.000 A 
ENDROOT
BRANCH   4  15
ATOM     15  C   UNL     1       1.421   8.413  20.351  0.00  0.00    +0.000 A 
ATOM     16  C   UNL     1       1.092   9.459  19.473  0.00  0.00    +0.000 A 
ATOM     17  C   UNL     1       0.514  10.637  19.950  0.00  0.00    +0.000 A 
ATOM     18  C   UNL     1       0.243  10.767  21.305  0.00  0.00    +0.000 A 
ATOM     19  F   UNL     1      -0.293  11.906  21.762  0.00  0.00    +0.000 F 
ATOM     20  C   UNL     1       0.524   9.736  22.191  0.00  0.00    +0.000 A 
ATOM     21  C   UNL     1       1.107   8.559  21.714  0.00  0.00    +0.000 A 
ENDBRANCH   4  15
TORSDOF 1
ENDMDL
MODEL 7
REMARK VINA RESULT:      -8.0      5.493      8.663
REMARK  Name = 
REMARK  1 active torsions:
REMARK  status: ('A' for Active; 'I' for Inactive)
REMARK    1  A    between atoms: C_4  and  C_5
REMARK                            x       y       z     vdW  Elec       q    Type
REMARK                         _______ _______ _______ _____ _____    ______ ____
ROOT
ATOM      1  O   UNL     1       4.355   2.749  19.291  0.00  0.00    +0.000 OA
ATOM      2  C   UNL     1       4.312   3.715  18.534  0.00  0.00    +0.000 A 
ATOM      3  O   UNL     1       4.944   3.681  17.301  0.00  0.00    +0.000 OA
ATOM      4  C   UNL     1       4.920   4.788  16.401  0.00  0.00    +0.000 A 
ATOM      5  C   UNL     1       4.260   5.924  16.697  0.00  0.00    +0.000 A 
ATOM      6  C   UNL     1       3.576   6.041  17.939  0.00  0.00    +0.000 A 
ATOM      7  C   UNL     1       3.629   4.964  18.791  0.00  0.00    +0.000 A 
ATOM      8  S   UNL     1       2.777   5.246  20.227  0.00  0.00    +0.000 S 
ATOM      9  C   UNL     1       2.305   6.826  19.721  0.00  0.00    +0.000 A 
ATOM     10  C   UNL     1       1.511   7.732  20.451  0.00  0.00    +0.000 A 
ATOM     11  C   UNL     1       1.216   8.976  19.893  0.00  0.00    +0.000 A 
ATOM     12  C   UNL     1       1.702   9.317  18.639  0.00  0.00    +0.000 A 
ATOM     13  C   UNL     1       2.493   8.416  17.916  0.00  0.00    +0.000 A 
ATOM     14  C   UNL     1       2.810   7.140  18.452  0.00  0.00    +0.000 A 
ENDROOT
BRANCH   4  15
ATOM     15  C   UNL     1       5.639   4.559  15.132  0.00  0.00    +0.000 A 
ATOM     16  C   UNL     1       6.931   5.071  14.928  0.00  0.00    +0.000 A 
ATOM     17  C   UNL     1       7.587   4.890  13.708  0.00  0.00    +0.000 A 
ATOM     18  C   UNL     1       6.961   4.179  12.693  0.00  0.00    +0.000 A 
ATOM     19  F   UNL     1       7.584   4.024  11.517  0.00  0.00    +0.000 F 
ATOM     20  C   UNL     1       5.700   3.631  12.879  0.00  0.00    +0.000 A 
ATOM     21  C   UNL     1       5.041   3.816  14.098  0.00  0.00    +0.000 A 
ENDBRANCH   4  15
TORSDOF 1
ENDMDL
MODEL 8
REMARK VINA RESULT:      -7.9      5.540      8.725
REMARK  Name = 
REMARK  1 active torsions:
REMARK  status: ('A' for Active; 'I' for Inactive)
REMARK    1  A    between atoms: C_4  and  C_5
REMARK                            x       y       z     vdW  Elec       q    Type
REMARK                         _______ _______ _______ _____ _____    ______ ____
ROOT
ATOM      1  O   UNL     1       4.530   2.922  19.272  0.00  0.00    +0.000 OA
ATOM      2  C   UNL     1       4.437   3.865  18.492  0.00  0.00    +0.000 A 
ATOM      3  O   UNL     1       5.038   3.816  17.243  0.00  0.00    +0.000 OA
ATOM      4  C   UNL     1       4.956   4.896  16.314  0.00  0.00    +0.000 A 
ATOM      5  C   UNL     1       4.269   6.020  16.597  0.00  0.00    +0.000 A 
ATOM      6  C   UNL     1       3.614   6.150  17.854  0.00  0.00    +0.000 A 
ATOM      7  C   UNL     1       3.723   5.099  18.733  0.00  0.00    +0.000 A 
ATOM      8  S   UNL     1       2.900   5.396  20.184  0.00  0.00    +0.000 S 
ATOM      9  C   UNL     1       2.367   6.946  19.648  0.00  0.00    +0.000 A 
ATOM     10  C   UNL     1       1.565   7.848  20.374  0.00  0.00    +0.000 A 
ATOM     11  C   UNL     1       1.218   9.067  19.791  0.00  0.00    +0.000 A 
ATOM     12  C   UNL     1       1.660   9.387  18.516  0.00  0.00    +0.000 A 
ATOM     13  C   UNL     1       2.459   8.490  17.796  0.00  0.00    +0.000 A 
ATOM     14  C   UNL     1       2.829   7.240  18.358  0.00  0.00    +0.000 A 
ENDROOT
BRANCH   4  15
ATOM     15  C   UNL     1       5.648   4.654  15.033  0.00  0.00    +0.000 A 
ATOM     16  C   UNL     1       5.059   3.868  14.028  0.00  0.00    +0.000 A 
ATOM     17  C   UNL     1       5.739   3.606  12.837  0.00  0.00    +0.000 A 
ATOM     18  C   UNL     1       7.003   4.144  12.636  0.00  0.00    +0.000 A 
ATOM     19  F   UNL     1       7.660   3.874  11.501  0.00  0.00    +0.000 F 
ATOM     20  C   UNL     1       7.594   4.953  13.596  0.00  0.00    +0.000 A 
ATOM     21  C   UNL     1       6.916   5.212  14.791  0.00  0.00    +0.000 A 
ENDBRANCH   4  15
TORSDOF 1
ENDMDL
MODEL 9
REMARK VINA RESULT:      -7.8      5.630      8.367
REMARK  Name = 
REMARK  1 active torsions:
REMARK  status: ('A' for Active; 'I' for Inactive)
REMARK    1  A    between atoms: C_4  and  C_5
REMARK                            x       y       z     vdW  Elec       q    Type
REMARK                         _______ _______ _______ _____ _____    ______ ____
ROOT
ATOM      1  O   UNL     1       4.554   8.073  17.539  0.00  0.00    +0.000 OA
ATOM      2  C   UNL     1       4.434   6.884  17.255  0.00  0.00    +0.000 A 
ATOM      3  O   UNL     1       5.063   6.352  16.141  0.00  0.00    +0.000 OA
ATOM      4  C   UNL     1       4.940   4.978  15.778  0.00  0.00    +0.000 A 
ATOM      5  C   UNL     1       4.216   4.115  16.517  0.00  0.00    +0.000 A 
ATOM      6  C   UNL     1       3.543   4.576  17.684  0.00  0.00    +0.000 A 
ATOM      7  C   UNL     1       3.669   5.908  17.999  0.00  0.00    +0.000 A 
ATOM      8  S   UNL     1       2.815   6.312  19.405  0.00  0.00    +0.000 S 
ATOM      9  C   UNL     1       2.268   4.691  19.625  0.00  0.00    +0.000 A 
ATOM     10  C   UNL     1       1.453   4.223  20.673  0.00  0.00    +0.000 A 
ATOM     11  C   UNL     1       1.102   2.873  20.707  0.00  0.00    +0.000 A 
ATOM     12  C   UNL     1       1.547   2.006  19.720  0.00  0.00    +0.000 A 
ATOM     13  C   UNL     1       2.356   2.474  18.677  0.00  0.00    +0.000 A 
ATOM     14  C   UNL     1       2.735   3.841  18.613  0.00  0.00    +0.000 A 
ENDROOT
BRANCH   4  15
ATOM     15  C   UNL     1       5.693   4.595  14.567  0.00  0.00    +0.000 A 
ATOM     16  C   UNL     1       6.989   5.084  14.334  0.00  0.00    +0.000 A 
ATOM     17  C   UNL     1       7.678   4.754  13.165  0.00  0.00    +0.000 A 
ATOM     18  C   UNL     1       7.081   3.917  12.232  0.00  0.00    +0.000 A 
ATOM     19  F   UNL     1       7.736   3.619  11.102  0.00  0.00    +0.000 F 
ATOM     20  C   UNL     1       5.816   3.391  12.452  0.00  0.00    +0.000 A 
ATOM     21  C   UNL     1       5.125   3.725  13.620  0.00  0.00    +0.000 A 
ENDBRANCH   4  15
TORSDOF 1
ENDMDL
