MODEL 1
REMARK VINA RESULT:      -7.6      0.000      0.000
REMARK  Name = 
REMARK  4 active torsions:
REMARK  status: ('A' for Active; 'I' for Inactive)
REMARK    1  A    between atoms: C_2  and  C_3
REMARK    2  A    between atoms: C_2  and  C_10
REMARK    3  A    between atoms: C_12  and  N_13
REMARK    4  A    between atoms: C_18  and  O_19
REMARK                            x       y       z     vdW  Elec       q    Type
REMARK                         _______ _______ _______ _____ _____    ______ ____
ROOT
ATOM      1  C   UNL     1       4.852   4.385  17.212  0.00  0.00    +0.000 A 
ATOM      2  C   UNL     1       5.131   4.439  15.833  0.00  0.00    +0.000 A 
ATOM      3  C   UNL     1       6.462   4.571  15.409  0.00  0.00    +0.000 A 
ATOM      4  C   UNL     1       7.507   4.668  16.337  0.00  0.00    +0.000 A 
ATOM      5  C   UNL     1       7.227   4.595  17.702  0.00  0.00    +0.000 A 
ATOM      6  C   UNL     1       5.917   4.416  18.130  0.00  0.00    +0.000 A 
ENDROOT
BRANCH   3   7
ATOM      7  N   UNL     1       6.774   4.609  13.974  0.00  0.00    +0.000 N 
ATOM      8  O   UNL     1       7.615   5.425  13.582  0.00  0.00    +0.000 OA
ATOM      9  O   UNL     1       6.173   3.809  13.237  0.00  0.00    +0.000 OA
ENDBRANCH   3   7
BRANCH   1  11
ATOM     10  O   UNL     1       2.744   3.348  17.222  0.00  0.00    +0.000 OA
ATOM     11  C   UNL     1       3.421   4.283  17.629  0.00  0.00    +0.000 C 
BRANCH  11  12
ATOM     12  C   UNL     1       2.796   5.304  18.519  0.00  0.00    +0.000 A 
ATOM     13  C   UNL     1       2.224   4.883  19.725  0.00  0.00    +0.000 A 
ATOM     14  C   UNL     1       1.708   5.825  20.618  0.00  0.00    +0.000 A 
ATOM     15  C   UNL     1       1.763   7.184  20.308  0.00  0.00    +0.000 A 
ATOM     16 CL   UNL     1       1.147   8.346  21.416  0.00  0.00    +0.000 Cl
ATOM     17  C   UNL     1       2.310   7.610  19.099  0.00  0.00    +0.000 A 
ATOM     18  C   UNL     1       2.796   6.669  18.193  0.00  0.00    +0.000 A 
ENDBRANCH  11  12
ENDBRANCH   1  11
BRANCH   6  19
ATOM     19  O   UNL     1       5.696   4.235  19.466  0.00  0.00    +0.000 OA
ATOM     20  H   UNL     1       6.387   4.671  19.989  0.00  0.00    +0.000 HD
ENDBRANCH   6  19
TORSDOF 4
ENDMDL
MODEL 2
REMARK VINA RESULT:      -7.5      0.108      1.116
REMARK  Name = 
REMARK  4 active torsions:
REMARK  status: ('A' for Active; 'I' for Inactive)
REMARK    1  A    between atoms: C_2  and  C_3
REMARK    2  A    between atoms: C_2  and  C_10
REMARK    3  A    between atoms: C_12  and  N_13
REMARK    4  A    between atoms: C_18  and  O_19
REMARK                            x       y       z     vdW  Elec       q    Type
REMARK                         _______ _______ _______ _____ _____    ______ ____
ROOT
ATOM      1  C   UNL     1       4.914   4.421  17.173  0.00  0.00    +0.000 A 
ATOM      2  C   UNL     1       5.171   4.464  15.790  0.00  0.00    +0.000 A 
ATOM      3  C   UNL     1       6.497   4.574  15.343  0.00  0.00    +0.000 A 
ATOM      4  C   UNL     1       7.558   4.660  16.253  0.00  0.00    +0.000 A 
ATOM      5  C   UNL     1       7.300   4.597  17.622  0.00  0.00    +0.000 A 
ATOM      6  C   UNL     1       5.995   4.440  18.074  0.00  0.00    +0.000 A 
ENDROOT
BRANCH   3   7
ATOM      7  N   UNL     1       6.784   4.601  13.902  0.00  0.00    +0.000 N 
ATOM      8  O   UNL     1       7.614   5.419  13.490  0.00  0.00    +0.000 OA
ATOM      9  O   UNL     1       6.177   3.790  13.182  0.00  0.00    +0.000 OA
ENDBRANCH   3   7
BRANCH   1  11
ATOM     10  O   UNL     1       2.769   3.462  17.162  0.00  0.00    +0.000 OA
ATOM     11  C   UNL     1       3.488   4.344  17.615  0.00  0.00    +0.000 C 
BRANCH  11  12
ATOM     12  C   UNL     1       2.920   5.325  18.583  0.00  0.00    +0.000 A 
ATOM     13  C   UNL     1       2.910   6.681  18.235  0.00  0.00    +0.000 A 
ATOM     14  C   UNL     1       2.307   7.614  19.083  0.00  0.00    +0.000 A 
ATOM     15  C   UNL     1       1.717   7.193  20.275  0.00  0.00    +0.000 A 
ATOM     16 CL   UNL     1       0.957   8.338  21.309  0.00  0.00    +0.000 Cl
ATOM     17  C   UNL     1       1.744   5.849  20.640  0.00  0.00    +0.000 A 
ATOM     18  C   UNL     1       2.372   4.922  19.810  0.00  0.00    +0.000 A 
ENDBRANCH  11  12
ENDBRANCH   1  11
BRANCH   6  19
ATOM     19  O   UNL     1       5.793   4.269  19.413  0.00  0.00    +0.000 OA
ATOM     20  H   UNL     1       5.827   3.328  19.647  0.00  0.00    +0.000 HD
ENDBRANCH   6  19
TORSDOF 4
ENDMDL
MODEL 3
REMARK VINA RESULT:      -7.3      2.181      3.540
REMARK  Name = 
REMARK  4 active torsions:
REMARK  status: ('A' for Active; 'I' for Inactive)
REMARK    1  A    between atoms: C_2  and  C_3
REMARK    2  A    between atoms: C_2  and  C_10
REMARK    3  A    between atoms: C_12  and  N_13
REMARK    4  A    between atoms: C_18  and  O_19
REMARK                            x       y       z     vdW  Elec       q    Type
REMARK                         _______ _______ _______ _____ _____    ______ ____
ROOT
ATOM      1  C   UNL     1       3.412   5.137  18.747  0.00  0.00    +0.000 A 
ATOM      2  C   UNL     1       4.811   5.278  18.831  0.00  0.00    +0.000 A 
ATOM      3  C   UNL     1       5.624   4.595  17.914  0.00  0.00    +0.000 A 
ATOM      4  C   UNL     1       5.063   3.766  16.934  0.00  0.00    +0.000 A 
ATOM      5  C   UNL     1       3.677   3.645  16.842  0.00  0.00    +0.000 A 
ATOM      6  C   UNL     1       2.862   4.355  17.716  0.00  0.00    +0.000 A 
ENDROOT
BRANCH   3   7
ATOM      7  N   UNL     1       7.084   4.746  17.975  0.00  0.00    +0.000 N 
ATOM      8  O   UNL     1       7.728   4.599  16.930  0.00  0.00    +0.000 OA
ATOM      9  O   UNL     1       7.586   5.019  19.078  0.00  0.00    +0.000 OA
ENDBRANCH   3   7
BRANCH   1  11
ATOM     10  O   UNL     1       2.253   5.259  20.787  0.00  0.00    +0.000 OA
ATOM     11  C   UNL     1       2.579   5.847  19.764  0.00  0.00    +0.000 C 
BRANCH  11  12
ATOM     12  C   UNL     1       2.123   7.251  19.551  0.00  0.00    +0.000 A 
ATOM     13  C   UNL     1       2.271   7.819  18.281  0.00  0.00    +0.000 A 
ATOM     14  C   UNL     1       1.777   9.102  18.029  0.00  0.00    +0.000 A 
ATOM     15  C   UNL     1       1.135   9.814  19.042  0.00  0.00    +0.000 A 
ATOM     16 CL   UNL     1       0.507  11.383  18.727  0.00  0.00    +0.000 Cl
ATOM     17  C   UNL     1       1.004   9.265  20.316  0.00  0.00    +0.000 A 
ATOM     18  C   UNL     1       1.525   7.998  20.577  0.00  0.00    +0.000 A 
ENDBRANCH  11  12
ENDBRANCH   1  11
BRANCH   6  19
ATOM     19  O   UNL     1       1.511   4.301  17.524  0.00  0.00    +0.000 OA
ATOM     20  H   UNL     1       1.276   3.548  16.958  0.00  0.00    +0.000 HD
ENDBRANCH   6  19
TORSDOF 4
ENDMDL
MODEL 4
REMARK VINA RESULT:      -7.3      0.786      1.575
REMARK  Name = 
REMARK  4 active torsions:
REMARK  status: ('A' for Active; 'I' for Inactive)
REMARK    1  A    between atoms: C_2  and  C_3
REMARK    2  A    between atoms: C_2  and  C_10
REMARK    3  A    between atoms: C_12  and  N_13
REMARK    4  A    between atoms: C_18  and  O_19
REMARK                            x       y       z     vdW  Elec       q    Type
REMARK                         _______ _______ _______ _____ _____    ______ ____
ROOT
ATOM      1  C   UNL     1       4.858   4.851  17.436  0.00  0.00    +0.000 A 
ATOM      2  C   UNL     1       5.181   4.832  16.066  0.00  0.00    +0.000 A 
ATOM      3  C   UNL     1       6.530   4.777  15.682  0.00  0.00    +0.000 A 
ATOM      4  C   UNL     1       7.551   4.760  16.642  0.00  0.00    +0.000 A 
ATOM      5  C   UNL     1       7.225   4.759  17.998  0.00  0.00    +0.000 A 
ATOM      6  C   UNL     1       5.890   4.765  18.388  0.00  0.00    +0.000 A 
ENDROOT
BRANCH   3   7
ATOM      7  N   UNL     1       6.886   4.736  14.258  0.00  0.00    +0.000 N 
ATOM      8  O   UNL     1       6.257   3.966  13.523  0.00  0.00    +0.000 OA
ATOM      9  O   UNL     1       7.799   5.486  13.874  0.00  0.00    +0.000 OA
ENDBRANCH   3   7
BRANCH   1  11
ATOM     10  O   UNL     1       2.668   4.009  17.566  0.00  0.00    +0.000 OA
ATOM     11  C   UNL     1       3.414   4.950  17.809  0.00  0.00    +0.000 C 
BRANCH  11  12
ATOM     12  C   UNL     1       2.860   6.173  18.457  0.00  0.00    +0.000 A 
ATOM     13  C   UNL     1       2.783   7.352  17.706  0.00  0.00    +0.000 A 
ATOM     14  C   UNL     1       2.191   8.492  18.257  0.00  0.00    +0.000 A 
ATOM     15  C   UNL     1       1.677   8.453  19.554  0.00  0.00    +0.000 A 
ATOM     16 CL   UNL     1       0.930   9.849  20.225  0.00  0.00    +0.000 Cl
ATOM     17  C   UNL     1       1.771   7.290  20.316  0.00  0.00    +0.000 A 
ATOM     18  C   UNL     1       2.390   6.163  19.778  0.00  0.00    +0.000 A 
ENDBRANCH  11  12
ENDBRANCH   1  11
BRANCH   6  19
ATOM     19  O   UNL     1       5.608   4.650  19.718  0.00  0.00    +0.000 OA
ATOM     20  H   UNL     1       4.655   4.742  19.875  0.00  0.00    +0.000 HD
ENDBRANCH   6  19
TORSDOF 4
ENDMDL
MODEL 5
REMARK VINA RESULT:      -7.2      3.944      6.354
REMARK  Name = 
REMARK  4 active torsions:
REMARK  status: ('A' for Active; 'I' for Inactive)
REMARK    1  A    between atoms: C_2  and  C_3
REMARK    2  A    between atoms: C_2  and  C_10
REMARK    3  A    between atoms: C_12  and  N_13
REMARK    4  A    between atoms: C_18  and  O_19
REMARK                            x       y       z     vdW  Elec       q    Type
REMARK                         _______ _______ _______ _____ _____    ______ ____
ROOT
ATOM      1  C   UNL     1       4.782   4.626  19.045  0.00  0.00    +0.000 A 
ATOM      2  C   UNL     1       4.073   5.839  19.135  0.00  0.00    +0.000 A 
ATOM      3  C   UNL     1       2.829   5.859  19.783  0.00  0.00    +0.000 A 
ATOM      4  C   UNL     1       2.280   4.687  20.321  0.00  0.00    +0.000 A 
ATOM      5  C   UNL     1       2.995   3.492  20.247  0.00  0.00    +0.000 A 
ATOM      6  C   UNL     1       4.250   3.473  19.649  0.00  0.00    +0.000 A 
ENDROOT
BRANCH   3   7
ATOM      7  N   UNL     1       2.084   7.119  19.903  0.00  0.00    +0.000 N 
ATOM      8  O   UNL     1       1.435   7.316  20.937  0.00  0.00    +0.000 OA
ATOM      9  O   UNL     1       2.157   7.919  18.955  0.00  0.00    +0.000 OA
ENDBRANCH   3   7
BRANCH   1  11
ATOM     10  O   UNL     1       7.127   4.743  18.948  0.00  0.00    +0.000 OA
ATOM     11  C   UNL     1       6.085   4.634  18.314  0.00  0.00    +0.000 C 
BRANCH  11  12
ATOM     12  C   UNL     1       6.143   4.527  16.827  0.00  0.00    +0.000 A 
ATOM     13  C   UNL     1       7.280   5.003  16.165  0.00  0.00    +0.000 A 
ATOM     14  C   UNL     1       7.401   4.839  14.782  0.00  0.00    +0.000 A 
ATOM     15  C   UNL     1       6.389   4.201  14.064  0.00  0.00    +0.000 A 
ATOM     16 CL   UNL     1       6.547   3.980  12.366  0.00  0.00    +0.000 Cl
ATOM     17  C   UNL     1       5.243   3.745  14.713  0.00  0.00    +0.000 A 
ATOM     18  C   UNL     1       5.108   3.936  16.087  0.00  0.00    +0.000 A 
ENDBRANCH  11  12
ENDBRANCH   1  11
BRANCH   6  19
ATOM     19  O   UNL     1       4.967   2.312  19.695  0.00  0.00    +0.000 OA
ATOM     20  H   UNL     1       5.812   2.413  19.228  0.00  0.00    +0.000 HD
ENDBRANCH   6  19
TORSDOF 4
ENDMDL
MODEL 6
REMARK VINA RESULT:      -7.2      1.888      2.411
REMARK  Name = 
REMARK  4 active torsions:
REMARK  status: ('A' for Active; 'I' for Inactive)
REMARK    1  A    between atoms: C_2  and  C_3
REMARK    2  A    between atoms: C_2  and  C_10
REMARK    3  A    between atoms: C_12  and  N_13
REMARK    4  A    between atoms: C_18  and  O_19
REMARK                            x       y       z     vdW  Elec       q    Type
REMARK                         _______ _______ _______ _____ _____    ______ ____
ROOT
ATOM      1  C   UNL     1       5.197   5.410  17.438  0.00  0.00    +0.000 A 
ATOM      2  C   UNL     1       5.317   5.248  16.045  0.00  0.00    +0.000 A 
ATOM      3  C   UNL     1       6.550   4.851  15.505  0.00  0.00    +0.000 A 
ATOM      4  C   UNL     1       7.660   4.634  16.331  0.00  0.00    +0.000 A 
ATOM      5  C   UNL     1       7.532   4.777  17.712  0.00  0.00    +0.000 A 
ATOM      6  C   UNL     1       6.302   5.122  18.260  0.00  0.00    +0.000 A 
ENDROOT
BRANCH   3   7
ATOM      7  N   UNL     1       6.687   4.659  14.055  0.00  0.00    +0.000 N 
ATOM      8  O   UNL     1       5.946   3.837  13.504  0.00  0.00    +0.000 OA
ATOM      9  O   UNL     1       7.542   5.341  13.465  0.00  0.00    +0.000 OA
ENDBRANCH   3   7
BRANCH   1  11
ATOM     10  O   UNL     1       3.432   6.950  17.612  0.00  0.00    +0.000 OA
ATOM     11  C   UNL     1       3.881   5.871  17.975  0.00  0.00    +0.000 C 
BRANCH  11  12
ATOM     12  C   UNL     1       3.111   5.051  18.955  0.00  0.00    +0.000 A 
ATOM     13  C   UNL     1       2.897   3.697  18.673  0.00  0.00    +0.000 A 
ATOM     14  C   UNL     1       2.254   2.884  19.609  0.00  0.00    +0.000 A 
ATOM     15  C   UNL     1       1.827   3.421  20.824  0.00  0.00    +0.000 A 
ATOM     16 CL   UNL     1       1.055   2.416  21.986  0.00  0.00    +0.000 Cl
ATOM     17  C   UNL     1       2.016   4.773  21.103  0.00  0.00    +0.000 A 
ATOM     18  C   UNL     1       2.629   5.592  20.155  0.00  0.00    +0.000 A 
ENDBRANCH  11  12
ENDBRANCH   1  11
BRANCH   6  19
ATOM     19  O   UNL     1       6.186   5.142  19.621  0.00  0.00    +0.000 OA
ATOM     20  H   UNL     1       5.723   5.943  19.913  0.00  0.00    +0.000 HD
ENDBRANCH   6  19
TORSDOF 4
ENDMDL
MODEL 7
REMARK VINA RESULT:      -7.2      4.032      6.538
REMARK  Name = 
REMARK  4 active torsions:
REMARK  status: ('A' for Active; 'I' for Inactive)
REMARK    1  A    between atoms: C_2  and  C_3
REMARK    2  A    between atoms: C_2  and  C_10
REMARK    3  A    between atoms: C_12  and  N_13
REMARK    4  A    between atoms: C_18  and  O_19
REMARK                            x       y       z     vdW  Elec       q    Type
REMARK                         _______ _______ _______ _____ _____    ______ ____
ROOT
ATOM      1  C   UNL     1       4.387   5.056  19.099  0.00  0.00    +0.000 A 
ATOM      2  C   UNL     1       3.887   4.023  19.914  0.00  0.00    +0.000 A 
ATOM      3  C   UNL     1       2.602   4.148  20.466  0.00  0.00    +0.000 A 
ATOM      4  C   UNL     1       1.826   5.290  20.229  0.00  0.00    +0.000 A 
ATOM      5  C   UNL     1       2.318   6.301  19.404  0.00  0.00    +0.000 A 
ATOM      6  C   UNL     1       3.569   6.165  18.815  0.00  0.00    +0.000 A 
ENDROOT
BRANCH   3   7
ATOM      7  N   UNL     1       2.056   3.072  21.303  0.00  0.00    +0.000 N 
ATOM      8  O   UNL     1       2.829   2.476  22.062  0.00  0.00    +0.000 OA
ATOM      9  O   UNL     1       0.842   2.827  21.201  0.00  0.00    +0.000 OA
ENDBRANCH   3   7
BRANCH   1  11
ATOM     10  O   UNL     1       6.726   5.045  19.317  0.00  0.00    +0.000 OA
ATOM     11  C   UNL     1       5.773   4.908  18.560  0.00  0.00    +0.000 C 
BRANCH  11  12
ATOM     12  C   UNL     1       6.020   4.611  17.120  0.00  0.00    +0.000 A 
ATOM     13  C   UNL     1       5.081   3.841  16.424  0.00  0.00    +0.000 A 
ATOM     14  C   UNL     1       5.241   3.617  15.054  0.00  0.00    +0.000 A 
ATOM     15  C   UNL     1       6.335   4.162  14.381  0.00  0.00    +0.000 A 
ATOM     16 CL   UNL     1       6.521   3.905  12.691  0.00  0.00    +0.000 Cl
ATOM     17  C   UNL     1       7.287   4.911  15.071  0.00  0.00    +0.000 A 
ATOM     18  C   UNL     1       7.144   5.107  16.444  0.00  0.00    +0.000 A 
ENDBRANCH  11  12
ENDBRANCH   1  11
BRANCH   6  19
ATOM     19  O   UNL     1       3.970   7.120  17.926  0.00  0.00    +0.000 OA
ATOM     20  H   UNL     1       3.599   6.946  17.046  0.00  0.00    +0.000 HD
ENDBRANCH   6  19
TORSDOF 4
ENDMDL
MODEL 8
REMARK VINA RESULT:      -7.2      2.103      3.265
REMARK  Name = 
REMARK  4 active torsions:
REMARK  status: ('A' for Active; 'I' for Inactive)
REMARK    1  A    between atoms: C_2  and  C_3
REMARK    2  A    between atoms: C_2  and  C_10
REMARK    3  A    between atoms: C_12  and  N_13
REMARK    4  A    between atoms: C_18  and  O_19
REMARK                            x       y       z     vdW  Elec       q    Type
REMARK                         _______ _______ _______ _____ _____    ______ ____
ROOT
ATOM      1  C   UNL     1       3.521   5.183  18.551  0.00  0.00    +0.000 A 
ATOM      2  C   UNL     1       4.906   5.428  18.499  0.00  0.00    +0.000 A 
ATOM      3  C   UNL     1       5.686   4.747  17.552  0.00  0.00    +0.000 A 
ATOM      4  C   UNL     1       5.107   3.819  16.676  0.00  0.00    +0.000 A 
ATOM      5  C   UNL     1       3.731   3.595  16.718  0.00  0.00    +0.000 A 
ATOM      6  C   UNL     1       2.944   4.300  17.621  0.00  0.00    +0.000 A 
ENDROOT
BRANCH   3   7
ATOM      7  N   UNL     1       7.130   5.005  17.470  0.00  0.00    +0.000 N 
ATOM      8  O   UNL     1       7.871   4.429  18.275  0.00  0.00    +0.000 OA
ATOM      9  O   UNL     1       7.523   5.786  16.587  0.00  0.00    +0.000 OA
ENDBRANCH   3   7
BRANCH   1  11
ATOM     10  O   UNL     1       2.530   5.349  20.675  0.00  0.00    +0.000 OA
ATOM     11  C   UNL     1       2.727   5.896  19.598  0.00  0.00    +0.000 C 
BRANCH  11  12
ATOM     12  C   UNL     1       2.158   7.253  19.352  0.00  0.00    +0.000 A 
ATOM     13  C   UNL     1       1.538   7.922  20.413  0.00  0.00    +0.000 A 
ATOM     14  C   UNL     1       1.071   9.227  20.237  0.00  0.00    +0.000 A 
ATOM     15  C   UNL     1       1.225   9.862  19.004  0.00  0.00    +0.000 A 
ATOM     16 CL   UNL     1       0.670  11.476  18.792  0.00  0.00    +0.000 Cl
ATOM     17  C   UNL     1       1.820   9.194  17.935  0.00  0.00    +0.000 A 
ATOM     18  C   UNL     1       2.257   7.881  18.102  0.00  0.00    +0.000 A 
ENDBRANCH  11  12
ENDBRANCH   1  11
BRANCH   6  19
ATOM     19  O   UNL     1       1.589   4.138  17.557  0.00  0.00    +0.000 OA
ATOM     20  H   UNL     1       1.297   4.061  16.635  0.00  0.00    +0.000 HD
ENDBRANCH   6  19
TORSDOF 4
ENDMDL
MODEL 9
REMARK VINA RESULT:      -7.1      4.030      6.623
REMARK  Name = 
REMARK  4 active torsions:
REMARK  status: ('A' for Active; 'I' for Inactive)
REMARK    1  A    between atoms: C_2  and  C_3
REMARK    2  A    between atoms: C_2  and  C_10
REMARK    3  A    between atoms: C_12  and  N_13
REMARK    4  A    between atoms: C_18  and  O_19
REMARK                            x       y       z     vdW  Elec       q    Type
REMARK                         _______ _______ _______ _____ _____    ______ ____
ROOT
ATOM      1  C   UNL     1       4.338   5.101  18.996  0.00  0.00    +0.000 A 
ATOM      2  C   UNL     1       3.773   4.099  19.808  0.00  0.00    +0.000 A 
ATOM      3  C   UNL     1       2.524   4.327  20.405  0.00  0.00    +0.000 A 
ATOM      4  C   UNL     1       1.847   5.539  20.217  0.00  0.00    +0.000 A 
ATOM      5  C   UNL     1       2.401   6.519  19.395  0.00  0.00    +0.000 A 
ATOM      6  C   UNL     1       3.616   6.285  18.761  0.00  0.00    +0.000 A 
ENDROOT
BRANCH   3   7
ATOM      7  N   UNL     1       1.910   3.285  21.240  0.00  0.00    +0.000 N 
ATOM      8  O   UNL     1       0.896   2.721  20.814  0.00  0.00    +0.000 OA
ATOM      9  O   UNL     1       2.453   3.030  22.328  0.00  0.00    +0.000 OA
ENDBRANCH   3   7
BRANCH   1  11
ATOM     10  O   UNL     1       6.661   4.780  19.148  0.00  0.00    +0.000 OA
ATOM     11  C   UNL     1       5.688   4.841  18.408  0.00  0.00    +0.000 C 
BRANCH  11  12
ATOM     12  C   UNL     1       5.875   4.668  16.938  0.00  0.00    +0.000 A 
ATOM     13  C   UNL     1       7.081   5.082  16.363  0.00  0.00    +0.000 A 
ATOM     14  C   UNL     1       7.320   4.855  15.005  0.00  0.00    +0.000 A 
ATOM     15  C   UNL     1       6.356   4.217  14.224  0.00  0.00    +0.000 A 
ATOM     16 CL   UNL     1       6.657   3.919  12.558  0.00  0.00    +0.000 Cl
ATOM     17  C   UNL     1       5.142   3.823  14.784  0.00  0.00    +0.000 A 
ATOM     18  C   UNL     1       4.891   4.077  16.132  0.00  0.00    +0.000 A 
ENDBRANCH  11  12
ENDBRANCH   1  11
BRANCH   6  19
ATOM     19  O   UNL     1       4.072   7.220  17.878  0.00  0.00    +0.000 OA
ATOM     20  H   UNL     1       3.583   7.168  17.041  0.00  0.00    +0.000 HD
ENDBRANCH   6  19
TORSDOF 4
ENDMDL
