MODEL 1
REMARK VINA RESULT:      -8.0      0.000      0.000
REMARK  Name = 
REMARK  8 active torsions:
REMARK  status: ('A' for Active; 'I' for Inactive)
REMARK    1  A    between atoms: C_1  and  O_2
REMARK    2  A    between atoms: O_2  and  C_3
REMARK    3  A    between atoms: C_8  and  O_9
REMARK    4  A    between atoms: O_9  and  C_10
REMARK    5  A    between atoms: N_16  and  O_17
REMARK    6  A    between atoms: O_17  and  C_18
REMARK    7  A    between atoms: C_18  and  C_19
REMARK    8  A    between atoms: C_24  and  O_25
REMARK                            x       y       z     vdW  Elec       q    Type
REMARK                         _______ _______ _______ _____ _____    ______ ____
ROOT
ATOM      1  C   UNL     1       4.914   4.437  16.504  0.00  0.00    +0.000 A 
ATOM      2  C   UNL     1       3.874   3.668  17.070  0.00  0.00    +0.000 A 
ATOM      3  C   UNL     1       3.055   4.242  18.028  0.00  0.00    +0.000 A 
ATOM      4  C   UNL     1       3.270   5.558  18.394  0.00  0.00    +0.000 A 
ATOM      5  C   UNL     1       4.265   6.352  17.853  0.00  0.00    +0.000 A 
ATOM      6  C   UNL     1       5.102   5.789  16.890  0.00  0.00    +0.000 A 
ATOM      7  C   UNL     1       2.282   5.933  19.386  0.00  0.00    +0.000 C 
ATOM      8  N   UNL     1       2.209   7.136  19.854  0.00  0.00    +0.000 NA
ATOM      9  C   UNL     1       1.442   4.732  19.738  0.00  0.00    +0.000 C 
ATOM     10  C   UNL     1       1.871   3.648  18.726  0.00  0.00    +0.000 C 
ENDROOT
BRANCH   1  12
ATOM     11  C   UNL     1       5.462   4.171  14.203  0.00  0.00    +0.000 C 
ATOM     12  O   UNL     1       5.630   3.751  15.552  0.00  0.00    +0.000 OA
ENDBRANCH   1  12
BRANCH   6  13
ATOM     13  O   UNL     1       6.045   6.528  16.229  0.00  0.00    +0.000 OA
BRANCH  13  14
ATOM     14  C   UNL     1       7.320   6.719  16.840  0.00  0.00    +0.000 C 
ATOM     15  C   UNL     1       7.470   8.115  17.437  0.00  0.00    +0.000 C 
ATOM     16  C   UNL     1       8.434   7.945  18.598  0.00  0.00    +0.000 C 
ATOM     17  C   UNL     1       8.254   6.514  19.090  0.00  0.00    +0.000 C 
ATOM     18  C   UNL     1       7.400   5.795  18.054  0.00  0.00    +0.000 C 
ENDBRANCH  13  14
ENDBRANCH   6  13
BRANCH   8  19
ATOM     19  O   UNL     1       1.196   7.261  20.810  0.00  0.00    +0.000 OA
BRANCH  19  20
ATOM     20  C   UNL     1       1.481   8.422  21.584  0.00  0.00    +0.000 C 
BRANCH  20  21
ATOM     21  C   UNL     1       0.283   9.361  21.620  0.00  0.00    +0.000 C 
ATOM     22  O   UNL     1      -0.521   9.297  22.554  0.00  0.00    +0.000 OA
ATOM     23  N   UNL     1       0.150  10.300  20.602  0.00  0.00    +0.000 N 
ATOM     24  C   UNL     1       1.044  10.437  19.453  0.00  0.00    +0.000 C 
ATOM     25  C   UNL     1       0.315  10.052  18.170  0.00  0.00    +0.000 C 
ATOM     26  C   UNL     1      -1.006  10.813  18.019  0.00  0.00    +0.000 C 
ATOM     27  C   UNL     1      -1.864  10.747  19.286  0.00  0.00    +0.000 C 
ATOM     28  C   UNL     1      -1.064  11.108  20.537  0.00  0.00    +0.000 C 
BRANCH  26  29
ATOM     29  O   UNL     1      -0.755  12.168  17.650  0.00  0.00    +0.000 OA
ATOM     30  H   UNL     1      -0.206  12.188  16.849  0.00  0.00    +0.000 HD
ENDBRANCH  26  29
ENDBRANCH  20  21
ENDBRANCH  19  20
ENDBRANCH   8  19
TORSDOF 7
ENDMDL
MODEL 2
REMARK VINA RESULT:      -7.8      3.465      4.724
REMARK  Name = 
REMARK  8 active torsions:
REMARK  status: ('A' for Active; 'I' for Inactive)
REMARK    1  A    between atoms: C_1  and  O_2
REMARK    2  A    between atoms: O_2  and  C_3
REMARK    3  A    between atoms: C_8  and  O_9
REMARK    4  A    between atoms: O_9  and  C_10
REMARK    5  A    between atoms: N_16  and  O_17
REMARK    6  A    between atoms: O_17  and  C_18
REMARK    7  A    between atoms: C_18  and  C_19
REMARK    8  A    between atoms: C_24  and  O_25
REMARK                            x       y       z     vdW  Elec       q    Type
REMARK                         _______ _______ _______ _____ _____    ______ ____
ROOT
ATOM      1  C   UNL     1       2.887   4.972  19.474  0.00  0.00    +0.000 A 
ATOM      2  C   UNL     1       2.176   5.634  20.498  0.00  0.00    +0.000 A 
ATOM      3  C   UNL     1       1.806   6.956  20.318  0.00  0.00    +0.000 A 
ATOM      4  C   UNL     1       2.132   7.589  19.132  0.00  0.00    +0.000 A 
ATOM      5  C   UNL     1       2.812   6.974  18.097  0.00  0.00    +0.000 A 
ATOM      6  C   UNL     1       3.196   5.644  18.262  0.00  0.00    +0.000 A 
ATOM      7  C   UNL     1       1.624   8.945  19.174  0.00  0.00    +0.000 C 
ATOM      8  N   UNL     1       1.729   9.743  18.162  0.00  0.00    +0.000 NA
ATOM      9  C   UNL     1       1.015   9.213  20.526  0.00  0.00    +0.000 C 
ATOM     10  C   UNL     1       1.013   7.840  21.231  0.00  0.00    +0.000 C 
ENDROOT
BRANCH   1  12
ATOM     11  C   UNL     1       2.116   2.904  20.363  0.00  0.00    +0.000 C 
ATOM     12  O   UNL     1       3.167   3.661  19.775  0.00  0.00    +0.000 OA
ENDBRANCH   1  12
BRANCH   6  13
ATOM     13  O   UNL     1       3.781   4.928  17.253  0.00  0.00    +0.000 OA
BRANCH  13  14
ATOM     14  C   UNL     1       5.088   5.298  16.817  0.00  0.00    +0.000 C 
ATOM     15  C   UNL     1       6.177   4.766  17.743  0.00  0.00    +0.000 C 
ATOM     16  C   UNL     1       7.392   4.576  16.853  0.00  0.00    +0.000 C 
ATOM     17  C   UNL     1       6.853   4.293  15.456  0.00  0.00    +0.000 C 
ATOM     18  C   UNL     1       5.358   4.587  15.492  0.00  0.00    +0.000 C 
ENDBRANCH  13  14
ENDBRANCH   6  13
BRANCH   8  19
ATOM     19  O   UNL     1       1.188  11.004  18.435  0.00  0.00    +0.000 OA
BRANCH  19  20
ATOM     20  C   UNL     1       2.235  11.958  18.293  0.00  0.00    +0.000 C 
BRANCH  20  21
ATOM     21  C   UNL     1       2.196  12.982  19.420  0.00  0.00    +0.000 C 
ATOM     22  O   UNL     1       1.447  12.806  20.384  0.00  0.00    +0.000 OA
ATOM     23  N   UNL     1       3.046  14.081  19.342  0.00  0.00    +0.000 N 
ATOM     24  C   UNL     1       3.953  14.374  18.234  0.00  0.00    +0.000 C 
ATOM     25  C   UNL     1       3.493  15.626  17.495  0.00  0.00    +0.000 C 
ATOM     26  C   UNL     1       3.285  16.805  18.451  0.00  0.00    +0.000 C 
ATOM     27  C   UNL     1       2.428  16.426  19.663  0.00  0.00    +0.000 C 
ATOM     28  C   UNL     1       2.921  15.145  20.333  0.00  0.00    +0.000 C 
BRANCH  26  29
ATOM     29  O   UNL     1       4.544  17.329  18.868  0.00  0.00    +0.000 OA
ATOM     30  H   UNL     1       4.411  18.198  19.281  0.00  0.00    +0.000 HD
ENDBRANCH  26  29
ENDBRANCH  20  21
ENDBRANCH  19  20
ENDBRANCH   8  19
TORSDOF 7
ENDMDL
MODEL 3
REMARK VINA RESULT:      -7.7      4.013      7.234
REMARK  Name = 
REMARK  8 active torsions:
REMARK  status: ('A' for Active; 'I' for Inactive)
REMARK    1  A    between atoms: C_1  and  O_2
REMARK    2  A    between atoms: O_2  and  C_3
REMARK    3  A    between atoms: C_8  and  O_9
REMARK    4  A    between atoms: O_9  and  C_10
REMARK    5  A    between atoms: N_16  and  O_17
REMARK    6  A    between atoms: O_17  and  C_18
REMARK    7  A    between atoms: C_18  and  C_19
REMARK    8  A    between atoms: C_24  and  O_25
REMARK                            x       y       z     vdW  Elec       q    Type
REMARK                         _______ _______ _______ _____ _____    ______ ____
ROOT
ATOM      1  C   UNL     1       3.152   4.117  17.251  0.00  0.00    +0.000 A 
ATOM      2  C   UNL     1       4.328   3.784  16.545  0.00  0.00    +0.000 A 
ATOM      3  C   UNL     1       5.397   4.663  16.562  0.00  0.00    +0.000 A 
ATOM      4  C   UNL     1       5.288   5.839  17.282  0.00  0.00    +0.000 A 
ATOM      5  C   UNL     1       4.162   6.196  18.001  0.00  0.00    +0.000 A 
ATOM      6  C   UNL     1       3.074   5.324  17.992  0.00  0.00    +0.000 A 
ATOM      7  C   UNL     1       6.531   6.574  17.164  0.00  0.00    +0.000 C 
ATOM      8  N   UNL     1       6.730   7.683  17.798  0.00  0.00    +0.000 NA
ATOM      9  C   UNL     1       7.457   5.849  16.221  0.00  0.00    +0.000 C 
ATOM     10  C   UNL     1       6.749   4.507  15.936  0.00  0.00    +0.000 C 
ENDROOT
BRANCH   1  12
ATOM     11  C   UNL     1       2.490   1.888  17.760  0.00  0.00    +0.000 C 
ATOM     12  O   UNL     1       2.184   3.144  17.169  0.00  0.00    +0.000 OA
ENDBRANCH   1  12
BRANCH   6  13
ATOM     13  O   UNL     1       1.961   5.547  18.756  0.00  0.00    +0.000 OA
BRANCH  13  14
ATOM     14  C   UNL     1       1.921   5.022  20.082  0.00  0.00    +0.000 C 
ATOM     15  C   UNL     1       0.826   3.974  20.255  0.00  0.00    +0.000 C 
ATOM     16  C   UNL     1       1.339   3.042  21.338  0.00  0.00    +0.000 C 
ATOM     17  C   UNL     1       2.860   3.090  21.251  0.00  0.00    +0.000 C 
ATOM     18  C   UNL     1       3.212   4.238  20.314  0.00  0.00    +0.000 C 
ENDBRANCH  13  14
ENDBRANCH   6  13
BRANCH   8  19
ATOM     19  O   UNL     1       7.989   8.224  17.519  0.00  0.00    +0.000 OA
BRANCH  19  20
ATOM     20  C   UNL     1       7.881   9.640  17.634  0.00  0.00    +0.000 C 
BRANCH  20  21
ATOM     21  C   UNL     1       8.898  10.184  18.628  0.00  0.00    +0.000 C 
ATOM     22  O   UNL     1       9.339   9.453  19.519  0.00  0.00    +0.000 OA
ATOM     23  N   UNL     1       9.330  11.498  18.477  0.00  0.00    +0.000 N 
ATOM     24  C   UNL     1       8.851  12.436  17.463  0.00  0.00    +0.000 C 
ATOM     25  C   UNL     1       8.063  13.564  18.121  0.00  0.00    +0.000 C 
ATOM     26  C   UNL     1       8.857  14.228  19.250  0.00  0.00    +0.000 C 
ATOM     27  C   UNL     1       9.445  13.204  20.227  0.00  0.00    +0.000 C 
ATOM     28  C   UNL     1      10.188  12.084  19.502  0.00  0.00    +0.000 C 
BRANCH  26  29
ATOM     29  O   UNL     1       9.886  15.056  18.709  0.00  0.00    +0.000 OA
ATOM     30  H   UNL     1      10.291  15.575  19.423  0.00  0.00    +0.000 HD
ENDBRANCH  26  29
ENDBRANCH  20  21
ENDBRANCH  19  20
ENDBRANCH   8  19
TORSDOF 7
ENDMDL
MODEL 4
REMARK VINA RESULT:      -7.6      3.409      4.412
REMARK  Name = 
REMARK  8 active torsions:
REMARK  status: ('A' for Active; 'I' for Inactive)
REMARK    1  A    between atoms: C_1  and  O_2
REMARK    2  A    between atoms: O_2  and  C_3
REMARK    3  A    between atoms: C_8  and  O_9
REMARK    4  A    between atoms: O_9  and  C_10
REMARK    5  A    between atoms: N_16  and  O_17
REMARK    6  A    between atoms: O_17  and  C_18
REMARK    7  A    between atoms: C_18  and  C_19
REMARK    8  A    between atoms: C_24  and  O_25
REMARK                            x       y       z     vdW  Elec       q    Type
REMARK                         _______ _______ _______ _____ _____    ______ ____
ROOT
ATOM      1  C   UNL     1       3.154   4.919  19.469  0.00  0.00    +0.000 A 
ATOM      2  C   UNL     1       2.333   5.538  20.434  0.00  0.00    +0.000 A 
ATOM      3  C   UNL     1       1.923   6.846  20.234  0.00  0.00    +0.000 A 
ATOM      4  C   UNL     1       2.320   7.505  19.084  0.00  0.00    +0.000 A 
ATOM      5  C   UNL     1       3.110   6.931  18.105  0.00  0.00    +0.000 A 
ATOM      6  C   UNL     1       3.534   5.615  18.292  0.00  0.00    +0.000 A 
ATOM      7  C   UNL     1       1.753   8.839  19.093  0.00  0.00    +0.000 C 
ATOM      8  N   UNL     1       1.909   9.651  18.100  0.00  0.00    +0.000 NA
ATOM      9  C   UNL     1       1.022   9.066  20.391  0.00  0.00    +0.000 C 
ATOM     10  C   UNL     1       1.020   7.686  21.084  0.00  0.00    +0.000 C 
ENDROOT
BRANCH   1  12
ATOM     11  C   UNL     1       2.463   2.641  19.513  0.00  0.00    +0.000 C 
ATOM     12  O   UNL     1       3.463   3.617  19.783  0.00  0.00    +0.000 OA
ENDBRANCH   1  12
BRANCH   6  13
ATOM     13  O   UNL     1       4.231   4.936  17.331  0.00  0.00    +0.000 OA
BRANCH  13  14
ATOM     14  C   UNL     1       5.625   5.198  17.179  0.00  0.00    +0.000 C 
ATOM     15  C   UNL     1       5.905   6.663  16.857  0.00  0.00    +0.000 C 
ATOM     16  C   UNL     1       7.283   6.937  17.432  0.00  0.00    +0.000 C 
ATOM     17  C   UNL     1       7.447   5.982  18.609  0.00  0.00    +0.000 C 
ATOM     18  C   UNL     1       6.291   4.992  18.538  0.00  0.00    +0.000 C 
ENDBRANCH  13  14
ENDBRANCH   6  13
BRANCH   8  19
ATOM     19  O   UNL     1       1.294  10.885  18.336  0.00  0.00    +0.000 OA
BRANCH  19  20
ATOM     20  C   UNL     1       2.296  11.891  18.222  0.00  0.00    +0.000 C 
BRANCH  20  21
ATOM     21  C   UNL     1       2.150  12.933  19.323  0.00  0.00    +0.000 C 
ATOM     22  O   UNL     1       1.332  12.757  20.231  0.00  0.00    +0.000 OA
ATOM     23  N   UNL     1       2.980  14.049  19.289  0.00  0.00    +0.000 N 
ATOM     24  C   UNL     1       3.963  14.342  18.248  0.00  0.00    +0.000 C 
ATOM     25  C   UNL     1       3.535  15.571  17.452  0.00  0.00    +0.000 C 
ATOM     26  C   UNL     1       3.230  16.761  18.367  0.00  0.00    +0.000 C 
ATOM     27  C   UNL     1       2.291  16.385  19.517  0.00  0.00    +0.000 C 
ATOM     28  C   UNL     1       2.757  15.127  20.247  0.00  0.00    +0.000 C 
BRANCH  26  29
ATOM     29  O   UNL     1       4.443  17.320  18.869  0.00  0.00    +0.000 OA
ATOM     30  H   UNL     1       4.343  17.509  19.817  0.00  0.00    +0.000 HD
ENDBRANCH  26  29
ENDBRANCH  20  21
ENDBRANCH  19  20
ENDBRANCH   8  19
TORSDOF 7
ENDMDL
MODEL 5
REMARK VINA RESULT:      -7.6      3.061      5.533
REMARK  Name = 
REMARK  8 active torsions:
REMARK  status: ('A' for Active; 'I' for Inactive)
REMARK    1  A    between atoms: C_1  and  O_2
REMARK    2  A    between atoms: O_2  and  C_3
REMARK    3  A    between atoms: C_8  and  O_9
REMARK    4  A    between atoms: O_9  and  C_10
REMARK    5  A    between atoms: N_16  and  O_17
REMARK    6  A    between atoms: O_17  and  C_18
REMARK    7  A    between atoms: C_18  and  C_19
REMARK    8  A    between atoms: C_24  and  O_25
REMARK                            x       y       z     vdW  Elec       q    Type
REMARK                         _______ _______ _______ _____ _____    ______ ____
ROOT
ATOM      1  C   UNL     1       3.261   6.157  18.771  0.00  0.00    +0.000 A 
ATOM      2  C   UNL     1       3.096   7.323  17.994  0.00  0.00    +0.000 A 
ATOM      3  C   UNL     1       2.243   8.318  18.442  0.00  0.00    +0.000 A 
ATOM      4  C   UNL     1       1.585   8.145  19.647  0.00  0.00    +0.000 A 
ATOM      5  C   UNL     1       1.730   7.026  20.446  0.00  0.00    +0.000 A 
ATOM      6  C   UNL     1       2.584   6.014  20.009  0.00  0.00    +0.000 A 
ATOM      7  C   UNL     1       0.775   9.318  19.907  0.00  0.00    +0.000 C 
ATOM      8  N   UNL     1       0.104   9.453  21.004  0.00  0.00    +0.000 NA
ATOM      9  C   UNL     1       0.858  10.257  18.731  0.00  0.00    +0.000 C 
ATOM     10  C   UNL     1       1.948   9.649  17.823  0.00  0.00    +0.000 C 
ENDROOT
BRANCH   1  12
ATOM     11  C   UNL     1       4.608   5.553  16.903  0.00  0.00    +0.000 C 
ATOM     12  O   UNL     1       4.154   5.268  18.220  0.00  0.00    +0.000 OA
ENDBRANCH   1  12
BRANCH   6  13
ATOM     13  O   UNL     1       2.866   4.920  20.782  0.00  0.00    +0.000 OA
BRANCH  13  14
ATOM     14  C   UNL     1       2.094   3.734  20.601  0.00  0.00    +0.000 C 
ATOM     15  C   UNL     1       1.005   3.909  19.547  0.00  0.00    +0.000 C 
ATOM     16  C   UNL     1       0.802   2.525  18.957  0.00  0.00    +0.000 C 
ATOM     17  C   UNL     1       2.137   1.804  19.100  0.00  0.00    +0.000 C 
ATOM     18  C   UNL     1       3.009   2.666  20.004  0.00  0.00    +0.000 C 
ENDBRANCH  13  14
ENDBRANCH   6  13
BRANCH   8  19
ATOM     19  O   UNL     1      -0.618  10.651  21.028  0.00  0.00    +0.000 OA
BRANCH  19  20
ATOM     20  C   UNL     1      -0.631  11.115  22.374  0.00  0.00    +0.000 C 
BRANCH  20  21
ATOM     21  C   UNL     1      -0.785  12.629  22.428  0.00  0.00    +0.000 C 
ATOM     22  O   UNL     1       0.193  13.353  22.227  0.00  0.00    +0.000 OA
ATOM     23  N   UNL     1      -2.050  13.155  22.670  0.00  0.00    +0.000 N 
ATOM     24  C   UNL     1      -3.257  12.372  22.931  0.00  0.00    +0.000 C 
ATOM     25  C   UNL     1      -3.719  12.583  24.370  0.00  0.00    +0.000 C 
ATOM     26  C   UNL     1      -3.861  14.070  24.708  0.00  0.00    +0.000 C 
ATOM     27  C   UNL     1      -2.623  14.879  24.309  0.00  0.00    +0.000 C 
ATOM     28  C   UNL     1      -2.193  14.593  22.871  0.00  0.00    +0.000 C 
BRANCH  26  29
ATOM     29  O   UNL     1      -5.032  14.606  24.093  0.00  0.00    +0.000 OA
ATOM     30  H   UNL     1      -5.282  15.431  24.540  0.00  0.00    +0.000 HD
ENDBRANCH  26  29
ENDBRANCH  20  21
ENDBRANCH  19  20
ENDBRANCH   8  19
TORSDOF 7
ENDMDL
MODEL 6
REMARK VINA RESULT:      -7.5      1.499      1.744
REMARK  Name = 
REMARK  8 active torsions:
REMARK  status: ('A' for Active; 'I' for Inactive)
REMARK    1  A    between atoms: C_1  and  O_2
REMARK    2  A    between atoms: O_2  and  C_3
REMARK    3  A    between atoms: C_8  and  O_9
REMARK    4  A    between atoms: O_9  and  C_10
REMARK    5  A    between atoms: N_16  and  O_17
REMARK    6  A    between atoms: O_17  and  C_18
REMARK    7  A    between atoms: C_18  and  C_19
REMARK    8  A    between atoms: C_24  and  O_25
REMARK                            x       y       z     vdW  Elec       q    Type
REMARK                         _______ _______ _______ _____ _____    ______ ____
ROOT
ATOM      1  C   UNL     1       5.024   4.564  16.390  0.00  0.00    +0.000 A 
ATOM      2  C   UNL     1       3.954   3.824  16.938  0.00  0.00    +0.000 A 
ATOM      3  C   UNL     1       3.134   4.421  17.881  0.00  0.00    +0.000 A 
ATOM      4  C   UNL     1       3.379   5.732  18.250  0.00  0.00    +0.000 A 
ATOM      5  C   UNL     1       4.404   6.497  17.727  0.00  0.00    +0.000 A 
ATOM      6  C   UNL     1       5.242   5.911  16.778  0.00  0.00    +0.000 A 
ATOM      7  C   UNL     1       2.384   6.134  19.224  0.00  0.00    +0.000 C 
ATOM      8  N   UNL     1       2.335   7.339  19.690  0.00  0.00    +0.000 NA
ATOM      9  C   UNL     1       1.505   4.957  19.561  0.00  0.00    +0.000 C 
ATOM     10  C   UNL     1       1.922   3.860  18.558  0.00  0.00    +0.000 C 
ENDROOT
BRANCH   1  12
ATOM     11  C   UNL     1       5.375   4.060  14.090  0.00  0.00    +0.000 C 
ATOM     12  O   UNL     1       5.738   3.858  15.451  0.00  0.00    +0.000 OA
ENDBRANCH   1  12
BRANCH   6  13
ATOM     13  O   UNL     1       6.217   6.624  16.134  0.00  0.00    +0.000 OA
BRANCH  13  14
ATOM     14  C   UNL     1       7.456   6.853  16.803  0.00  0.00    +0.000 C 
ATOM     15  C   UNL     1       7.511   8.228  17.461  0.00  0.00    +0.000 C 
ATOM     16  C   UNL     1       8.437   8.058  18.652  0.00  0.00    +0.000 C 
ATOM     17  C   UNL     1       8.313   6.601  19.080  0.00  0.00    +0.000 C 
ATOM     18  C   UNL     1       7.537   5.884  17.982  0.00  0.00    +0.000 C 
ENDBRANCH  13  14
ENDBRANCH   6  13
BRANCH   8  19
ATOM     19  O   UNL     1       1.310   7.492  20.629  0.00  0.00    +0.000 OA
BRANCH  19  20
ATOM     20  C   UNL     1       0.718   8.769  20.411  0.00  0.00    +0.000 C 
BRANCH  20  21
ATOM     21  C   UNL     1      -0.123   9.192  21.607  0.00  0.00    +0.000 C 
ATOM     22  O   UNL     1      -0.774   8.349  22.229  0.00  0.00    +0.000 OA
ATOM     23  N   UNL     1      -0.102  10.530  21.989  0.00  0.00    +0.000 N 
ATOM     24  C   UNL     1       0.628  11.595  21.303  0.00  0.00    +0.000 C 
ATOM     25  C   UNL     1      -0.350  12.573  20.660  0.00  0.00    +0.000 C 
ATOM     26  C   UNL     1      -1.385  13.083  21.667  0.00  0.00    +0.000 C 
ATOM     27  C   UNL     1      -2.043  11.944  22.452  0.00  0.00    +0.000 C 
ATOM     28  C   UNL     1      -1.010  10.983  23.037  0.00  0.00    +0.000 C 
BRANCH  26  29
ATOM     29  O   UNL     1      -0.788  14.027  22.554  0.00  0.00    +0.000 OA
ATOM     30  H   UNL     1      -1.182  13.935  23.437  0.00  0.00    +0.000 HD
ENDBRANCH  26  29
ENDBRANCH  20  21
ENDBRANCH  19  20
ENDBRANCH   8  19
TORSDOF 7
ENDMDL
MODEL 7
REMARK VINA RESULT:      -7.4      2.273      3.463
REMARK  Name = 
REMARK  8 active torsions:
REMARK  status: ('A' for Active; 'I' for Inactive)
REMARK    1  A    between atoms: C_1  and  O_2
REMARK    2  A    between atoms: O_2  and  C_3
REMARK    3  A    between atoms: C_8  and  O_9
REMARK    4  A    between atoms: O_9  and  C_10
REMARK    5  A    between atoms: N_16  and  O_17
REMARK    6  A    between atoms: O_17  and  C_18
REMARK    7  A    between atoms: C_18  and  C_19
REMARK    8  A    between atoms: C_24  and  O_25
REMARK                            x       y       z     vdW  Elec       q    Type
REMARK                         _______ _______ _______ _____ _____    ______ ____
ROOT
ATOM      1  C   UNL     1       3.797   3.487  18.691  0.00  0.00    +0.000 A 
ATOM      2  C   UNL     1       3.008   3.967  19.758  0.00  0.00    +0.000 A 
ATOM      3  C   UNL     1       2.616   5.295  19.763  0.00  0.00    +0.000 A 
ATOM      4  C   UNL     1       2.998   6.112  18.715  0.00  0.00    +0.000 A 
ATOM      5  C   UNL     1       3.756   5.679  17.643  0.00  0.00    +0.000 A 
ATOM      6  C   UNL     1       4.163   4.345  17.623  0.00  0.00    +0.000 A 
ATOM      7  C   UNL     1       2.454   7.437  18.935  0.00  0.00    +0.000 C 
ATOM      8  N   UNL     1       2.601   8.386  18.070  0.00  0.00    +0.000 NA
ATOM      9  C   UNL     1       1.756   7.479  20.270  0.00  0.00    +0.000 C 
ATOM     10  C   UNL     1       1.746   6.012  20.750  0.00  0.00    +0.000 C 
ENDROOT
BRANCH   1  12
ATOM     11  C   UNL     1       2.990   1.267  18.981  0.00  0.00    +0.000 C 
ATOM     12  O   UNL     1       4.091   2.149  18.802  0.00  0.00    +0.000 OA
ENDBRANCH   1  12
BRANCH   6  13
ATOM     13  O   UNL     1       4.827   3.807  16.554  0.00  0.00    +0.000 OA
BRANCH  13  14
ATOM     14  C   UNL     1       5.480   4.685  15.638  0.00  0.00    +0.000 C 
ATOM     15  C   UNL     1       6.976   4.798  15.916  0.00  0.00    +0.000 C 
ATOM     16  C   UNL     1       7.606   5.093  14.566  0.00  0.00    +0.000 C 
ATOM     17  C   UNL     1       6.690   4.460  13.525  0.00  0.00    +0.000 C 
ATOM     18  C   UNL     1       5.416   4.047  14.251  0.00  0.00    +0.000 C 
ENDBRANCH  13  14
ENDBRANCH   6  13
BRANCH   8  19
ATOM     19  O   UNL     1       2.012   9.579  18.501  0.00  0.00    +0.000 OA
BRANCH  19  20
ATOM     20  C   UNL     1       0.684   9.610  17.988  0.00  0.00    +0.000 C 
BRANCH  20  21
ATOM     21  C   UNL     1      -0.064  10.839  18.486  0.00  0.00    +0.000 C 
ATOM     22  O   UNL     1       0.439  11.553  19.358  0.00  0.00    +0.000 OA
ATOM     23  N   UNL     1      -1.293  11.142  17.909  0.00  0.00    +0.000 N 
ATOM     24  C   UNL     1      -1.968  10.346  16.885  0.00  0.00    +0.000 C 
ATOM     25  C   UNL     1      -3.237   9.722  17.455  0.00  0.00    +0.000 C 
ATOM     26  C   UNL     1      -4.138  10.771  18.115  0.00  0.00    +0.000 C 
ATOM     27  C   UNL     1      -3.370  11.665  19.094  0.00  0.00    +0.000 C 
ATOM     28  C   UNL     1      -2.092  12.226  18.472  0.00  0.00    +0.000 C 
BRANCH  26  29
ATOM     29  O   UNL     1      -4.790  11.558  17.119  0.00  0.00    +0.000 OA
ATOM     30  H   UNL     1      -5.654  11.165  16.913  0.00  0.00    +0.000 HD
ENDBRANCH  26  29
ENDBRANCH  20  21
ENDBRANCH  19  20
ENDBRANCH   8  19
TORSDOF 7
ENDMDL
MODEL 8
REMARK VINA RESULT:      -7.4      2.329      4.576
REMARK  Name = 
REMARK  8 active torsions:
REMARK  status: ('A' for Active; 'I' for Inactive)
REMARK    1  A    between atoms: C_1  and  O_2
REMARK    2  A    between atoms: O_2  and  C_3
REMARK    3  A    between atoms: C_8  and  O_9
REMARK    4  A    between atoms: O_9  and  C_10
REMARK    5  A    between atoms: N_16  and  O_17
REMARK    6  A    between atoms: O_17  and  C_18
REMARK    7  A    between atoms: C_18  and  C_19
REMARK    8  A    between atoms: C_24  and  O_25
REMARK                            x       y       z     vdW  Elec       q    Type
REMARK                         _______ _______ _______ _____ _____    ______ ____
ROOT
ATOM      1  C   UNL     1       3.880   6.407  18.064  0.00  0.00    +0.000 A 
ATOM      2  C   UNL     1       3.473   7.634  17.497  0.00  0.00    +0.000 A 
ATOM      3  C   UNL     1       2.505   8.388  18.140  0.00  0.00    +0.000 A 
ATOM      4  C   UNL     1       1.973   7.923  19.329  0.00  0.00    +0.000 A 
ATOM      5  C   UNL     1       2.354   6.736  19.927  0.00  0.00    +0.000 A 
ATOM      6  C   UNL     1       3.325   5.963  19.292  0.00  0.00    +0.000 A 
ATOM      7  C   UNL     1       1.005   8.887  19.813  0.00  0.00    +0.000 C 
ATOM      8  N   UNL     1       0.403   8.736  20.947  0.00  0.00    +0.000 NA
ATOM      9  C   UNL     1       0.851   9.996  18.804  0.00  0.00    +0.000 C 
ATOM     10  C   UNL     1       1.957   9.729  17.760  0.00  0.00    +0.000 C 
ENDROOT
BRANCH   1  12
ATOM     11  C   UNL     1       5.280   6.424  16.139  0.00  0.00    +0.000 C 
ATOM     12  O   UNL     1       4.862   5.779  17.336  0.00  0.00    +0.000 OA
ENDBRANCH   1  12
BRANCH   6  13
ATOM     13  O   UNL     1       3.834   4.828  19.863  0.00  0.00    +0.000 OA
BRANCH  13  14
ATOM     14  C   UNL     1       3.029   3.651  19.887  0.00  0.00    +0.000 C 
ATOM     15  C   UNL     1       1.761   3.836  20.716  0.00  0.00    +0.000 C 
ATOM     16  C   UNL     1       0.741   2.903  20.089  0.00  0.00    +0.000 C 
ATOM     17  C   UNL     1       1.128   2.778  18.620  0.00  0.00    +0.000 C 
ATOM     18  C   UNL     1       2.505   3.413  18.471  0.00  0.00    +0.000 C 
ENDBRANCH  13  14
ENDBRANCH   6  13
BRANCH   8  19
ATOM     19  O   UNL     1      -0.499   9.775  21.199  0.00  0.00    +0.000 OA
BRANCH  19  20
ATOM     20  C   UNL     1      -0.088  10.414  22.404  0.00  0.00    +0.000 C 
BRANCH  20  21
ATOM     21  C   UNL     1      -1.008  11.579  22.744  0.00  0.00    +0.000 C 
ATOM     22  O   UNL     1      -1.994  11.394  23.462  0.00  0.00    +0.000 OA
ATOM     23  N   UNL     1      -0.683  12.841  22.256  0.00  0.00    +0.000 N 
ATOM     24  C   UNL     1       0.455  13.147  21.390  0.00  0.00    +0.000 C 
ATOM     25  C   UNL     1      -0.035  13.565  20.007  0.00  0.00    +0.000 C 
ATOM     26  C   UNL     1      -1.070  14.691  20.089  0.00  0.00    +0.000 C 
ATOM     27  C   UNL     1      -2.183  14.386  21.096  0.00  0.00    +0.000 C 
ATOM     28  C   UNL     1      -1.625  13.939  22.446  0.00  0.00    +0.000 C 
BRANCH  26  29
ATOM     29  O   UNL     1      -0.431  15.927  20.403  0.00  0.00    +0.000 OA
ATOM     30  H   UNL     1       0.430  15.749  20.816  0.00  0.00    +0.000 HD
ENDBRANCH  26  29
ENDBRANCH  20  21
ENDBRANCH  19  20
ENDBRANCH   8  19
TORSDOF 7
ENDMDL
MODEL 9
REMARK VINA RESULT:      -7.4      3.143      4.505
REMARK  Name = 
REMARK  8 active torsions:
REMARK  status: ('A' for Active; 'I' for Inactive)
REMARK    1  A    between atoms: C_1  and  O_2
REMARK    2  A    between atoms: O_2  and  C_3
REMARK    3  A    between atoms: C_8  and  O_9
REMARK    4  A    between atoms: O_9  and  C_10
REMARK    5  A    between atoms: N_16  and  O_17
REMARK    6  A    between atoms: O_17  and  C_18
REMARK    7  A    between atoms: C_18  and  C_19
REMARK    8  A    between atoms: C_24  and  O_25
REMARK                            x       y       z     vdW  Elec       q    Type
REMARK                         _______ _______ _______ _____ _____    ______ ____
ROOT
ATOM      1  C   UNL     1       2.759   5.495  19.522  0.00  0.00    +0.000 A 
ATOM      2  C   UNL     1       1.991   6.094  20.543  0.00  0.00    +0.000 A 
ATOM      3  C   UNL     1       1.594   7.413  20.404  0.00  0.00    +0.000 A 
ATOM      4  C   UNL     1       1.950   8.105  19.260  0.00  0.00    +0.000 A 
ATOM      5  C   UNL     1       2.687   7.552  18.228  0.00  0.00    +0.000 A 
ATOM      6  C   UNL     1       3.098   6.225  18.353  0.00  0.00    +0.000 A 
ATOM      7  C   UNL     1       1.405   9.445  19.337  0.00  0.00    +0.000 C 
ATOM      8  N   UNL     1       1.530  10.288  18.365  0.00  0.00    +0.000 NA
ATOM      9  C   UNL     1       0.736   9.640  20.673  0.00  0.00    +0.000 C 
ATOM     10  C   UNL     1       0.743   8.237  21.320  0.00  0.00    +0.000 C 
ENDROOT
BRANCH   1  12
ATOM     11  C   UNL     1       2.016   3.235  19.581  0.00  0.00    +0.000 C 
ATOM     12  O   UNL     1       3.061   4.179  19.779  0.00  0.00    +0.000 OA
ENDBRANCH   1  12
BRANCH   6  13
ATOM     13  O   UNL     1       3.741   5.568  17.340  0.00  0.00    +0.000 OA
BRANCH  13  14
ATOM     14  C   UNL     1       5.138   5.792  17.153  0.00  0.00    +0.000 C 
ATOM     15  C   UNL     1       5.990   4.783  17.917  0.00  0.00    +0.000 C 
ATOM     16  C   UNL     1       7.268   4.653  17.107  0.00  0.00    +0.000 C 
ATOM     17  C   UNL     1       6.884   4.951  15.662  0.00  0.00    +0.000 C 
ATOM     18  C   UNL     1       5.466   5.509  15.688  0.00  0.00    +0.000 C 
ENDBRANCH  13  14
ENDBRANCH   6  13
BRANCH   8  19
ATOM     19  O   UNL     1       0.945  11.522  18.669  0.00  0.00    +0.000 OA
BRANCH  19  20
ATOM     20  C   UNL     1       1.993  12.484  18.745  0.00  0.00    +0.000 C 
BRANCH  20  21
ATOM     21  C   UNL     1       1.910  13.278  20.041  0.00  0.00    +0.000 C 
ATOM     22  O   UNL     1       2.149  12.724  21.118  0.00  0.00    +0.000 OA
ATOM     23  N   UNL     1       1.598  14.632  19.967  0.00  0.00    +0.000 N 
ATOM     24  C   UNL     1       1.288  15.363  18.739  0.00  0.00    +0.000 C 
ATOM     25  C   UNL     1      -0.175  15.796  18.740  0.00  0.00    +0.000 C 
ATOM     26  C   UNL     1      -0.541  16.554  20.020  0.00  0.00    +0.000 C 
ATOM     27  C   UNL     1      -0.093  15.813  21.283  0.00  0.00    +0.000 C 
ATOM     28  C   UNL     1       1.369  15.376  21.201  0.00  0.00    +0.000 C 
BRANCH  26  29
ATOM     29  O   UNL     1       0.007  17.871  19.987  0.00  0.00    +0.000 OA
ATOM     30  H   UNL     1      -0.703  18.519  20.128  0.00  0.00    +0.000 HD
ENDBRANCH  26  29
ENDBRANCH  20  21
ENDBRANCH  19  20
ENDBRANCH   8  19
TORSDOF 7
ENDMDL
