MODEL 1
REMARK VINA RESULT:      -7.2      0.000      0.000
REMARK  Name = 
REMARK  9 active torsions:
REMARK  status: ('A' for Active; 'I' for Inactive)
REMARK    1  A    between atoms: C_1  and  N_2
REMARK    2  A    between atoms: N_2  and  C_3
REMARK    3  A    between atoms: C_4  and  C_6
REMARK    4  A    between atoms: C_16  and  N_17
REMARK    5  A    between atoms: N_17  and  C_18
REMARK    6  A    between atoms: N_17  and  C_19
REMARK    7  A    between atoms: C_19  and  C_20
REMARK    8  A    between atoms: C_20  and  O_21
REMARK    9  A    between atoms: N_26  and  C_27
REMARK                            x       y       z     vdW  Elec       q    Type
REMARK                         _______ _______ _______ _____ _____    ______ ____
ROOT
ATOM      1  C   UNL     1      -1.064  12.902  22.735  0.00  0.00    +0.000 A 
ATOM      2  C   UNL     1      -1.358  11.587  23.064  0.00  0.00    +0.000 A 
ATOM      3  C   UNL     1      -0.762  10.743  22.116  0.00  0.00    +0.000 A 
ATOM      4  C   UNL     1      -0.629   9.376  21.965  0.00  0.00    +0.000 A 
ATOM      5  N   UNL     1       0.061   8.898  20.917  0.00  0.00    +0.000 NA
ATOM      6  C   UNL     1       0.591   9.744  20.010  0.00  0.00    +0.000 A 
ATOM      7  N   UNL     1       1.400   9.217  19.009  0.00  0.00    +0.000 N 
ATOM      8  C   UNL     1       2.100   8.012  18.974  0.00  0.00    +0.000 A 
ATOM      9  C   UNL     1       2.267   7.225  20.104  0.00  0.00    +0.000 A 
ATOM     10  C   UNL     1       2.939   6.006  20.035  0.00  0.00    +0.000 A 
ATOM     11  C   UNL     1       3.462   5.545  18.835  0.00  0.00    +0.000 A 
ATOM     12  C   UNL     1       3.292   6.429  17.764  0.00  0.00    +0.000 A 
ATOM     13  N   UNL     1       2.643   7.633  17.801  0.00  0.00    +0.000 NA
ATOM     14  N   UNL     1       0.433  11.079  20.033  0.00  0.00    +0.000 NA
ATOM     15  C   UNL     1      -0.204  11.535  21.132  0.00  0.00    +0.000 A 
ATOM     16  N   UNL     1      -0.388  12.858  21.506  0.00  0.00    +0.000 N 
ATOM     17  H   UNL     1       1.470   9.777  18.181  0.00  0.00    +0.000 HD
ENDROOT
BRANCH   1  21
ATOM     18  C   UNL     1      -2.882  16.054  23.761  0.00  0.00    +0.000 C 
ATOM     19  N   UNL     1      -2.608  14.798  23.088  0.00  0.00    +0.000 N 
ATOM     20  C   UNL     1      -3.629  14.328  22.162  0.00  0.00    +0.000 C 
ATOM     21  C   UNL     1      -1.440  14.114  23.459  0.00  0.00    +0.000 C 
ATOM     22  O   UNL     1      -0.744  14.543  24.378  0.00  0.00    +0.000 OA
ENDBRANCH   1  21
BRANCH  16  23
ATOM     23  C   UNL     1       0.063  14.025  20.768  0.00  0.00    +0.000 C 
ATOM     24  C   UNL     1       1.532  14.103  20.332  0.00  0.00    +0.000 C 
ATOM     25  C   UNL     1       1.549  15.268  19.347  0.00  0.00    +0.000 C 
ATOM     26  C   UNL     1       0.155  15.299  18.716  0.00  0.00    +0.000 C 
ATOM     27  C   UNL     1      -0.673  14.242  19.444  0.00  0.00    +0.000 C 
ENDBRANCH  16  23
BRANCH  11  28
ATOM     28  N   UNL     1       4.043   4.290  18.720  0.00  0.00    +0.000 N 
ATOM     29  C   UNL     1       5.483   4.162  18.517  0.00  0.00    +0.000 C 
BRANCH  28  30
ATOM     30  C   UNL     1       3.349   3.077  19.206  0.00  0.00    +0.000 C 
BRANCH  30  31
ATOM     31  C   UNL     1       3.352   1.977  18.132  0.00  0.00    +0.000 C 
BRANCH  31  32
ATOM     32  O   UNL     1       4.172   0.885  18.547  0.00  0.00    +0.000 OA
ATOM     33  H   UNL     1       3.714   0.094  18.201  0.00  0.00    +0.000 HD
ENDBRANCH  31  32
ENDBRANCH  30  31
ENDBRANCH  28  30
ENDBRANCH  11  28
TORSDOF 6
ENDMDL
MODEL 2
REMARK VINA RESULT:      -7.2      1.891     10.361
REMARK  Name = 
REMARK  9 active torsions:
REMARK  status: ('A' for Active; 'I' for Inactive)
REMARK    1  A    between atoms: C_1  and  N_2
REMARK    2  A    between atoms: N_2  and  C_3
REMARK    3  A    between atoms: C_4  and  C_6
REMARK    4  A    between atoms: C_16  and  N_17
REMARK    5  A    between atoms: N_17  and  C_18
REMARK    6  A    between atoms: N_17  and  C_19
REMARK    7  A    between atoms: C_19  and  C_20
REMARK    8  A    between atoms: C_20  and  O_21
REMARK    9  A    between atoms: N_26  and  C_27
REMARK                            x       y       z     vdW  Elec       q    Type
REMARK                         _______ _______ _______ _____ _____    ______ ____
ROOT
ATOM      1  C   UNL     1       3.877   6.287  17.657  0.00  0.00    +0.000 A 
ATOM      2  C   UNL     1       3.605   7.528  17.102  0.00  0.00    +0.000 A 
ATOM      3  C   UNL     1       2.681   8.194  17.921  0.00  0.00    +0.000 A 
ATOM      4  C   UNL     1       2.115   9.454  17.940  0.00  0.00    +0.000 A 
ATOM      5  N   UNL     1       1.264   9.773  18.929  0.00  0.00    +0.000 NA
ATOM      6  C   UNL     1       0.947   8.864  19.873  0.00  0.00    +0.000 A 
ATOM      7  N   UNL     1       0.160   9.271  20.944  0.00  0.00    +0.000 N 
ATOM      8  C   UNL     1      -0.057  10.552  21.451  0.00  0.00    +0.000 A 
ATOM      9  C   UNL     1       0.711  11.639  21.060  0.00  0.00    +0.000 A 
ATOM     10  C   UNL     1       0.450  12.915  21.554  0.00  0.00    +0.000 A 
ATOM     11  C   UNL     1      -0.584  13.136  22.453  0.00  0.00    +0.000 A 
ATOM     12  C   UNL     1      -1.267  11.975  22.830  0.00  0.00    +0.000 A 
ATOM     13  N   UNL     1      -1.032  10.709  22.368  0.00  0.00    +0.000 NA
ATOM     14  N   UNL     1       1.381   7.592  19.878  0.00  0.00    +0.000 NA
ATOM     15  C   UNL     1       2.287   7.319  18.915  0.00  0.00    +0.000 A 
ATOM     16  N   UNL     1       3.016   6.150  18.756  0.00  0.00    +0.000 N 
ATOM     17  H   UNL     1      -0.344   8.537  21.404  0.00  0.00    +0.000 HD
ENDROOT
BRANCH   1  21
ATOM     18  C   UNL     1       7.074   4.455  16.808  0.00  0.00    +0.000 C 
ATOM     19  N   UNL     1       6.182   5.433  17.404  0.00  0.00    +0.000 N 
ATOM     20  C   UNL     1       6.802   6.428  18.267  0.00  0.00    +0.000 C 
ATOM     21  C   UNL     1       4.808   5.270  17.170  0.00  0.00    +0.000 C 
ATOM     22  O   UNL     1       4.402   4.286  16.555  0.00  0.00    +0.000 OA
ENDBRANCH   1  21
BRANCH  16  23
ATOM     23  C   UNL     1       2.931   4.969  19.599  0.00  0.00    +0.000 C 
ATOM     24  C   UNL     1       2.408   5.120  21.034  0.00  0.00    +0.000 C 
ATOM     25  C   UNL     1       2.171   3.680  21.478  0.00  0.00    +0.000 C 
ATOM     26  C   UNL     1       1.837   2.901  20.204  0.00  0.00    +0.000 C 
ATOM     27  C   UNL     1       2.019   3.875  19.041  0.00  0.00    +0.000 C 
ENDBRANCH  16  23
BRANCH  11  28
ATOM     28  N   UNL     1      -0.929  14.411  22.878  0.00  0.00    +0.000 N 
ATOM     29  C   UNL     1      -1.143  15.478  21.904  0.00  0.00    +0.000 C 
BRANCH  28  30
ATOM     30  C   UNL     1      -1.497  14.643  24.224  0.00  0.00    +0.000 C 
BRANCH  30  31
ATOM     31  C   UNL     1      -2.851  15.366  24.131  0.00  0.00    +0.000 C 
BRANCH  31  32
ATOM     32  O   UNL     1      -3.630  15.104  25.298  0.00  0.00    +0.000 OA
ATOM     33  H   UNL     1      -2.986  15.146  26.032  0.00  0.00    +0.000 HD
ENDBRANCH  31  32
ENDBRANCH  30  31
ENDBRANCH  28  30
ENDBRANCH  11  28
TORSDOF 6
ENDMDL
MODEL 3
REMARK VINA RESULT:      -7.1      1.044      1.343
REMARK  Name = 
REMARK  9 active torsions:
REMARK  status: ('A' for Active; 'I' for Inactive)
REMARK    1  A    between atoms: C_1  and  N_2
REMARK    2  A    between atoms: N_2  and  C_3
REMARK    3  A    between atoms: C_4  and  C_6
REMARK    4  A    between atoms: C_16  and  N_17
REMARK    5  A    between atoms: N_17  and  C_18
REMARK    6  A    between atoms: N_17  and  C_19
REMARK    7  A    between atoms: C_19  and  C_20
REMARK    8  A    between atoms: C_20  and  O_21
REMARK    9  A    between atoms: N_26  and  C_27
REMARK                            x       y       z     vdW  Elec       q    Type
REMARK                         _______ _______ _______ _____ _____    ______ ____
ROOT
ATOM      1  C   UNL     1      -1.043  12.482  22.745  0.00  0.00    +0.000 A 
ATOM      2  C   UNL     1      -1.244  11.143  23.045  0.00  0.00    +0.000 A 
ATOM      3  C   UNL     1      -0.622  10.364  22.059  0.00  0.00    +0.000 A 
ATOM      4  C   UNL     1      -0.406   9.012  21.867  0.00  0.00    +0.000 A 
ATOM      5  N   UNL     1       0.284   8.607  20.789  0.00  0.00    +0.000 NA
ATOM      6  C   UNL     1       0.734   9.508  19.892  0.00  0.00    +0.000 A 
ATOM      7  N   UNL     1       1.546   9.061  18.856  0.00  0.00    +0.000 N 
ATOM      8  C   UNL     1       2.320   7.904  18.770  0.00  0.00    +0.000 A 
ATOM      9  C   UNL     1       2.569   7.101  19.873  0.00  0.00    +0.000 A 
ATOM     10  C   UNL     1       3.315   5.930  19.753  0.00  0.00    +0.000 A 
ATOM     11  C   UNL     1       3.833   5.535  18.528  0.00  0.00    +0.000 A 
ATOM     12  C   UNL     1       3.577   6.433  17.487  0.00  0.00    +0.000 A 
ATOM     13  N   UNL     1       2.854   7.592  17.574  0.00  0.00    +0.000 NA
ATOM     14  N   UNL     1       0.491  10.829  19.956  0.00  0.00    +0.000 NA
ATOM     15  C   UNL     1      -0.143  11.216  21.083  0.00  0.00    +0.000 A 
ATOM     16  N   UNL     1      -0.400  12.514  21.498  0.00  0.00    +0.000 N 
ATOM     17  H   UNL     1       1.557   9.645  18.042  0.00  0.00    +0.000 HD
ENDROOT
BRANCH   1  21
ATOM     18  C   UNL     1      -3.164  15.301  24.105  0.00  0.00    +0.000 C 
ATOM     19  N   UNL     1      -2.809  14.076  23.413  0.00  0.00    +0.000 N 
ATOM     20  C   UNL     1      -3.901  13.362  22.766  0.00  0.00    +0.000 C 
ATOM     21  C   UNL     1      -1.476  13.649  23.511  0.00  0.00    +0.000 C 
ATOM     22  O   UNL     1      -0.686  14.261  24.229  0.00  0.00    +0.000 OA
ENDBRANCH   1  21
BRANCH  16  23
ATOM     23  C   UNL     1      -0.045  13.726  20.780  0.00  0.00    +0.000 C 
ATOM     24  C   UNL     1       1.414  13.934  20.355  0.00  0.00    +0.000 C 
ATOM     25  C   UNL     1       1.338  15.111  19.387  0.00  0.00    +0.000 C 
ATOM     26  C   UNL     1      -0.050  15.035  18.749  0.00  0.00    +0.000 C 
ATOM     27  C   UNL     1      -0.791  13.901  19.456  0.00  0.00    +0.000 C 
ENDBRANCH  16  23
BRANCH  11  28
ATOM     28  N   UNL     1       4.489   4.324  18.363  0.00  0.00    +0.000 N 
ATOM     29  C   UNL     1       4.253   3.227  19.298  0.00  0.00    +0.000 C 
BRANCH  28  30
ATOM     30  C   UNL     1       5.088   3.946  17.064  0.00  0.00    +0.000 C 
BRANCH  30  31
ATOM     31  C   UNL     1       6.533   4.461  16.957  0.00  0.00    +0.000 C 
BRANCH  31  32
ATOM     32  O   UNL     1       7.233   4.225  18.179  0.00  0.00    +0.000 OA
ATOM     33  H   UNL     1       6.538   4.264  18.865  0.00  0.00    +0.000 HD
ENDBRANCH  31  32
ENDBRANCH  30  31
ENDBRANCH  28  30
ENDBRANCH  11  28
TORSDOF 6
ENDMDL
MODEL 4
REMARK VINA RESULT:      -7.1      2.038     10.248
REMARK  Name = 
REMARK  9 active torsions:
REMARK  status: ('A' for Active; 'I' for Inactive)
REMARK    1  A    between atoms: C_1  and  N_2
REMARK    2  A    between atoms: N_2  and  C_3
REMARK    3  A    between atoms: C_4  and  C_6
REMARK    4  A    between atoms: C_16  and  N_17
REMARK    5  A    between atoms: N_17  and  C_18
REMARK    6  A    between atoms: N_17  and  C_19
REMARK    7  A    between atoms: C_19  and  C_20
REMARK    8  A    between atoms: C_20  and  O_21
REMARK    9  A    between atoms: N_26  and  C_27
REMARK                            x       y       z     vdW  Elec       q    Type
REMARK                         _______ _______ _______ _____ _____    ______ ____
ROOT
ATOM      1  C   UNL     1       3.880   6.266  17.657  0.00  0.00    +0.000 A 
ATOM      2  C   UNL     1       3.669   7.518  17.099  0.00  0.00    +0.000 A 
ATOM      3  C   UNL     1       2.739   8.210  17.889  0.00  0.00    +0.000 A 
ATOM      4  C   UNL     1       2.214   9.489  17.894  0.00  0.00    +0.000 A 
ATOM      5  N   UNL     1       1.340   9.832  18.854  0.00  0.00    +0.000 NA
ATOM      6  C   UNL     1       0.959   8.930  19.781  0.00  0.00    +0.000 A 
ATOM      7  N   UNL     1       0.149   9.359  20.826  0.00  0.00    +0.000 N 
ATOM      8  C   UNL     1      -0.044  10.644  21.332  0.00  0.00    +0.000 A 
ATOM      9  C   UNL     1       0.773  11.706  20.974  0.00  0.00    +0.000 A 
ATOM     10  C   UNL     1       0.537  12.989  21.465  0.00  0.00    +0.000 A 
ATOM     11  C   UNL     1      -0.520  13.240  22.328  0.00  0.00    +0.000 A 
ATOM     12  C   UNL     1      -1.255  12.102  22.674  0.00  0.00    +0.000 A 
ATOM     13  N   UNL     1      -1.045  10.830  22.214  0.00  0.00    +0.000 NA
ATOM     14  N   UNL     1       1.351   7.644  19.794  0.00  0.00    +0.000 NA
ATOM     15  C   UNL     1       2.281   7.345  18.863  0.00  0.00    +0.000 A 
ATOM     16  N   UNL     1       2.976   6.153  18.724  0.00  0.00    +0.000 N 
ATOM     17  H   UNL     1      -0.395   8.640  21.264  0.00  0.00    +0.000 HD
ENDROOT
BRANCH   1  21
ATOM     18  C   UNL     1       7.045   4.398  16.766  0.00  0.00    +0.000 C 
ATOM     19  N   UNL     1       6.177   5.413  17.335  0.00  0.00    +0.000 N 
ATOM     20  C   UNL     1       6.834   6.481  18.075  0.00  0.00    +0.000 C 
ATOM     21  C   UNL     1       4.793   5.221  17.199  0.00  0.00    +0.000 C 
ATOM     22  O   UNL     1       4.364   4.186  16.690  0.00  0.00    +0.000 OA
ENDBRANCH   1  21
BRANCH  16  23
ATOM     23  C   UNL     1       2.822   4.973  19.557  0.00  0.00    +0.000 C 
ATOM     24  C   UNL     1       2.449   5.153  21.035  0.00  0.00    +0.000 C 
ATOM     25  C   UNL     1       2.078   3.742  21.482  0.00  0.00    +0.000 C 
ATOM     26  C   UNL     1       1.542   3.038  20.233  0.00  0.00    +0.000 C 
ATOM     27  C   UNL     1       1.739   4.009  19.070  0.00  0.00    +0.000 C 
ENDBRANCH  16  23
BRANCH  11  28
ATOM     28  N   UNL     1      -0.838  14.524  22.746  0.00  0.00    +0.000 N 
ATOM     29  C   UNL     1      -1.227  14.771  24.132  0.00  0.00    +0.000 C 
BRANCH  28  30
ATOM     30  C   UNL     1      -0.402  15.711  21.978  0.00  0.00    +0.000 C 
BRANCH  30  31
ATOM     31  C   UNL     1      -1.572  16.307  21.178  0.00  0.00    +0.000 C 
BRANCH  31  32
ATOM     32  O   UNL     1      -1.835  15.511  20.023  0.00  0.00    +0.000 OA
ATOM     33  H   UNL     1      -1.790  16.144  19.280  0.00  0.00    +0.000 HD
ENDBRANCH  31  32
ENDBRANCH  30  31
ENDBRANCH  28  30
ENDBRANCH  11  28
TORSDOF 6
ENDMDL
MODEL 5
REMARK VINA RESULT:      -7.1      1.962     10.272
REMARK  Name = 
REMARK  9 active torsions:
REMARK  status: ('A' for Active; 'I' for Inactive)
REMARK    1  A    between atoms: C_1  and  N_2
REMARK    2  A    between atoms: N_2  and  C_3
REMARK    3  A    between atoms: C_4  and  C_6
REMARK    4  A    between atoms: C_16  and  N_17
REMARK    5  A    between atoms: N_17  and  C_18
REMARK    6  A    between atoms: N_17  and  C_19
REMARK    7  A    between atoms: C_19  and  C_20
REMARK    8  A    between atoms: C_20  and  O_21
REMARK    9  A    between atoms: N_26  and  C_27
REMARK                            x       y       z     vdW  Elec       q    Type
REMARK                         _______ _______ _______ _____ _____    ______ ____
ROOT
ATOM      1  C   UNL     1       3.904   6.220  17.626  0.00  0.00    +0.000 A 
ATOM      2  C   UNL     1       3.699   7.470  17.061  0.00  0.00    +0.000 A 
ATOM      3  C   UNL     1       2.783   8.177  17.854  0.00  0.00    +0.000 A 
ATOM      4  C   UNL     1       2.270   9.460  17.855  0.00  0.00    +0.000 A 
ATOM      5  N   UNL     1       1.408   9.818  18.821  0.00  0.00    +0.000 NA
ATOM      6  C   UNL     1       1.029   8.927  19.758  0.00  0.00    +0.000 A 
ATOM      7  N   UNL     1       0.233   9.371  20.808  0.00  0.00    +0.000 N 
ATOM      8  C   UNL     1       0.057  10.661  21.306  0.00  0.00    +0.000 A 
ATOM      9  C   UNL     1       0.879  11.713  20.932  0.00  0.00    +0.000 A 
ATOM     10  C   UNL     1       0.660  13.001  21.415  0.00  0.00    +0.000 A 
ATOM     11  C   UNL     1      -0.387  13.269  22.287  0.00  0.00    +0.000 A 
ATOM     12  C   UNL     1      -1.128  12.140  22.649  0.00  0.00    +0.000 A 
ATOM     13  N   UNL     1      -0.934  10.863  22.196  0.00  0.00    +0.000 NA
ATOM     14  N   UNL     1       1.409   7.637  19.778  0.00  0.00    +0.000 NA
ATOM     15  C   UNL     1       2.327   7.323  18.840  0.00  0.00    +0.000 A 
ATOM     16  N   UNL     1       3.010   6.123  18.703  0.00  0.00    +0.000 N 
ATOM     17  H   UNL     1      -0.313   8.661  21.257  0.00  0.00    +0.000 HD
ENDROOT
BRANCH   1  21
ATOM     18  C   UNL     1       7.042   4.321  16.709  0.00  0.00    +0.000 C 
ATOM     19  N   UNL     1       6.190   5.349  17.279  0.00  0.00    +0.000 N 
ATOM     20  C   UNL     1       6.865   6.421  17.995  0.00  0.00    +0.000 C 
ATOM     21  C   UNL     1       4.803   5.164  17.167  0.00  0.00    +0.000 C 
ATOM     22  O   UNL     1       4.360   4.125  16.678  0.00  0.00    +0.000 OA
ENDBRANCH   1  21
BRANCH  16  23
ATOM     23  C   UNL     1       2.854   4.951  19.547  0.00  0.00    +0.000 C 
ATOM     24  C   UNL     1       2.403   5.140  21.001  0.00  0.00    +0.000 C 
ATOM     25  C   UNL     1       2.057   3.724  21.453  0.00  0.00    +0.000 C 
ATOM     26  C   UNL     1       1.606   2.985  20.192  0.00  0.00    +0.000 C 
ATOM     27  C   UNL     1       1.828   3.945  19.024  0.00  0.00    +0.000 C 
ENDBRANCH  16  23
BRANCH  11  28
ATOM     28  N   UNL     1      -0.688  14.559  22.698  0.00  0.00    +0.000 N 
ATOM     29  C   UNL     1      -1.307  14.790  24.001  0.00  0.00    +0.000 C 
BRANCH  28  30
ATOM     30  C   UNL     1      -0.041  15.734  22.075  0.00  0.00    +0.000 C 
BRANCH  30  31
ATOM     31  C   UNL     1       0.827  16.488  23.096  0.00  0.00    +0.000 C 
BRANCH  31  32
ATOM     32  O   UNL     1       2.150  15.952  23.109  0.00  0.00    +0.000 OA
ATOM     33  H   UNL     1       2.721  16.714  22.890  0.00  0.00    +0.000 HD
ENDBRANCH  31  32
ENDBRANCH  30  31
ENDBRANCH  28  30
ENDBRANCH  11  28
TORSDOF 6
ENDMDL
MODEL 6
REMARK VINA RESULT:      -6.9      1.529      1.850
REMARK  Name = 
REMARK  9 active torsions:
REMARK  status: ('A' for Active; 'I' for Inactive)
REMARK    1  A    between atoms: C_1  and  N_2
REMARK    2  A    between atoms: N_2  and  C_3
REMARK    3  A    between atoms: C_4  and  C_6
REMARK    4  A    between atoms: C_16  and  N_17
REMARK    5  A    between atoms: N_17  and  C_18
REMARK    6  A    between atoms: N_17  and  C_19
REMARK    7  A    between atoms: C_19  and  C_20
REMARK    8  A    between atoms: C_20  and  O_21
REMARK    9  A    between atoms: N_26  and  C_27
REMARK                            x       y       z     vdW  Elec       q    Type
REMARK                         _______ _______ _______ _____ _____    ______ ____
ROOT
ATOM      1  C   UNL     1      -0.011  14.000  22.141  0.00  0.00    +0.000 A 
ATOM      2  C   UNL     1      -0.783  12.912  22.519  0.00  0.00    +0.000 A 
ATOM      3  C   UNL     1      -0.373  11.792  21.780  0.00  0.00    +0.000 A 
ATOM      4  C   UNL     1      -0.692  10.448  21.775  0.00  0.00    +0.000 A 
ATOM      5  N   UNL     1      -0.054   9.628  20.925  0.00  0.00    +0.000 NA
ATOM      6  C   UNL     1       0.865  10.118  20.068  0.00  0.00    +0.000 A 
ATOM      7  N   UNL     1       1.589   9.220  19.292  0.00  0.00    +0.000 N 
ATOM      8  C   UNL     1       1.832   7.863  19.496  0.00  0.00    +0.000 A 
ATOM      9  C   UNL     1       1.546   7.237  20.700  0.00  0.00    +0.000 A 
ATOM     10  C   UNL     1       1.765   5.871  20.867  0.00  0.00    +0.000 A 
ATOM     11  C   UNL     1       2.277   5.097  19.835  0.00  0.00    +0.000 A 
ATOM     12  C   UNL     1       2.584   5.823  18.680  0.00  0.00    +0.000 A 
ATOM     13  N   UNL     1       2.387   7.164  18.487  0.00  0.00    +0.000 NA
ATOM     14  N   UNL     1       1.169  11.422  19.945  0.00  0.00    +0.000 NA
ATOM     15  C   UNL     1       0.565  12.213  20.858  0.00  0.00    +0.000 A 
ATOM     16  N   UNL     1       0.789  13.564  21.074  0.00  0.00    +0.000 N 
ATOM     17  H   UNL     1       1.971   9.601  18.447  0.00  0.00    +0.000 HD
ENDROOT
BRANCH   1  21
ATOM     18  C   UNL     1      -0.817  17.673  22.545  0.00  0.00    +0.000 C 
ATOM     19  N   UNL     1      -0.887  16.309  22.051  0.00  0.00    +0.000 N 
ATOM     20  C   UNL     1      -1.885  16.047  21.024  0.00  0.00    +0.000 C 
ATOM     21  C   UNL     1      -0.058  15.361  22.671  0.00  0.00    +0.000 C 
ATOM     22  O   UNL     1       0.623  15.684  23.644  0.00  0.00    +0.000 OA
ENDBRANCH   1  21
BRANCH  16  23
ATOM     23  C   UNL     1       1.718  14.405  20.339  0.00  0.00    +0.000 C 
ATOM     24  C   UNL     1       3.210  14.048  20.353  0.00  0.00    +0.000 C 
ATOM     25  C   UNL     1       3.797  14.931  19.256  0.00  0.00    +0.000 C 
ATOM     26  C   UNL     1       2.670  15.139  18.242  0.00  0.00    +0.000 C 
ATOM     27  C   UNL     1       1.424  14.486  18.840  0.00  0.00    +0.000 C 
ENDBRANCH  16  23
BRANCH  11  28
ATOM     28  N   UNL     1       2.405   3.720  19.942  0.00  0.00    +0.000 N 
ATOM     29  C   UNL     1       1.764   3.005  21.042  0.00  0.00    +0.000 C 
BRANCH  28  30
ATOM     30  C   UNL     1       2.802   2.894  18.781  0.00  0.00    +0.000 C 
BRANCH  30  31
ATOM     31  C   UNL     1       3.972   1.964  19.143  0.00  0.00    +0.000 C 
BRANCH  31  32
ATOM     32  O   UNL     1       5.130   2.733  19.467  0.00  0.00    +0.000 OA
ATOM     33  H   UNL     1       5.861   2.267  19.016  0.00  0.00    +0.000 HD
ENDBRANCH  31  32
ENDBRANCH  30  31
ENDBRANCH  28  30
ENDBRANCH  11  28
TORSDOF 6
ENDMDL
MODEL 7
REMARK VINA RESULT:      -6.7      1.306      1.412
REMARK  Name = 
REMARK  9 active torsions:
REMARK  status: ('A' for Active; 'I' for Inactive)
REMARK    1  A    between atoms: C_1  and  N_2
REMARK    2  A    between atoms: N_2  and  C_3
REMARK    3  A    between atoms: C_4  and  C_6
REMARK    4  A    between atoms: C_16  and  N_17
REMARK    5  A    between atoms: N_17  and  C_18
REMARK    6  A    between atoms: N_17  and  C_19
REMARK    7  A    between atoms: C_19  and  C_20
REMARK    8  A    between atoms: C_20  and  O_21
REMARK    9  A    between atoms: N_26  and  C_27
REMARK                            x       y       z     vdW  Elec       q    Type
REMARK                         _______ _______ _______ _____ _____    ______ ____
ROOT
ATOM      1  C   UNL     1      -0.503  13.734  22.315  0.00  0.00    +0.000 A 
ATOM      2  C   UNL     1      -1.066  12.511  22.645  0.00  0.00    +0.000 A 
ATOM      3  C   UNL     1      -0.550  11.532  21.783  0.00  0.00    +0.000 A 
ATOM      4  C   UNL     1      -0.659  10.158  21.680  0.00  0.00    +0.000 A 
ATOM      5  N   UNL     1       0.028   9.518  20.720  0.00  0.00    +0.000 NA
ATOM      6  C   UNL     1       0.789  10.213  19.851  0.00  0.00    +0.000 A 
ATOM      7  N   UNL     1       1.578   9.506  18.951  0.00  0.00    +0.000 N 
ATOM      8  C   UNL     1       2.042   8.193  19.017  0.00  0.00    +0.000 A 
ATOM      9  C   UNL     1       1.953   7.437  20.177  0.00  0.00    +0.000 A 
ATOM     10  C   UNL     1       2.391   6.115  20.207  0.00  0.00    +0.000 A 
ATOM     11  C   UNL     1       2.931   5.515  19.078  0.00  0.00    +0.000 A 
ATOM     12  C   UNL     1       3.030   6.368  17.974  0.00  0.00    +0.000 A 
ATOM     13  N   UNL     1       2.615   7.671  17.915  0.00  0.00    +0.000 NA
ATOM     14  N   UNL     1       0.879  11.555  19.825  0.00  0.00    +0.000 NA
ATOM     15  C   UNL     1       0.237  12.166  20.842  0.00  0.00    +0.000 A 
ATOM     16  N   UNL     1       0.267  13.515  21.162  0.00  0.00    +0.000 N 
ATOM     17  H   UNL     1       1.829  10.007  18.120  0.00  0.00    +0.000 HD
ENDROOT
BRANCH   1  21
ATOM     18  C   UNL     1      -1.707  17.250  23.015  0.00  0.00    +0.000 C 
ATOM     19  N   UNL     1      -1.612  15.941  22.394  0.00  0.00    +0.000 N 
ATOM     20  C   UNL     1      -2.532  15.682  21.296  0.00  0.00    +0.000 C 
ATOM     21  C   UNL     1      -0.715  15.025  22.966  0.00  0.00    +0.000 C 
ATOM     22  O   UNL     1      -0.114  15.318  23.999  0.00  0.00    +0.000 OA
ENDBRANCH   1  21
BRANCH  16  23
ATOM     23  C   UNL     1       0.994  14.548  20.444  0.00  0.00    +0.000 C 
ATOM     24  C   UNL     1       2.515  14.410  20.288  0.00  0.00    +0.000 C 
ATOM     25  C   UNL     1       2.862  15.469  19.247  0.00  0.00    +0.000 C 
ATOM     26  C   UNL     1       1.620  15.609  18.365  0.00  0.00    +0.000 C 
ATOM     27  C   UNL     1       0.541  14.730  18.995  0.00  0.00    +0.000 C 
ENDBRANCH  16  23
BRANCH  11  28
ATOM     28  N   UNL     1       3.276   4.172  19.053  0.00  0.00    +0.000 N 
ATOM     29  C   UNL     1       4.654   3.762  19.314  0.00  0.00    +0.000 C 
BRANCH  28  30
ATOM     30  C   UNL     1       2.252   3.114  19.191  0.00  0.00    +0.000 C 
BRANCH  30  31
ATOM     31  C   UNL     1       2.174   2.611  20.642  0.00  0.00    +0.000 C 
BRANCH  31  32
ATOM     32  O   UNL     1       0.864   2.824  21.168  0.00  0.00    +0.000 OA
ATOM     33  H   UNL     1       0.965   2.678  22.129  0.00  0.00    +0.000 HD
ENDBRANCH  31  32
ENDBRANCH  30  31
ENDBRANCH  28  30
ENDBRANCH  11  28
TORSDOF 6
ENDMDL
MODEL 8
REMARK VINA RESULT:      -6.6      1.850      2.243
REMARK  Name = 
REMARK  9 active torsions:
REMARK  status: ('A' for Active; 'I' for Inactive)
REMARK    1  A    between atoms: C_1  and  N_2
REMARK    2  A    between atoms: N_2  and  C_3
REMARK    3  A    between atoms: C_4  and  C_6
REMARK    4  A    between atoms: C_16  and  N_17
REMARK    5  A    between atoms: N_17  and  C_18
REMARK    6  A    between atoms: N_17  and  C_19
REMARK    7  A    between atoms: C_19  and  C_20
REMARK    8  A    between atoms: C_20  and  O_21
REMARK    9  A    between atoms: N_26  and  C_27
REMARK                            x       y       z     vdW  Elec       q    Type
REMARK                         _______ _______ _______ _____ _____    ______ ____
ROOT
ATOM      1  C   UNL     1      -1.033  13.318  20.177  0.00  0.00    +0.000 A 
ATOM      2  C   UNL     1      -1.706  12.201  19.703  0.00  0.00    +0.000 A 
ATOM      3  C   UNL     1      -0.772  11.322  19.135  0.00  0.00    +0.000 A 
ATOM      4  C   UNL     1      -0.822  10.050  18.597  0.00  0.00    +0.000 A 
ATOM      5  N   UNL     1       0.314   9.479  18.165  0.00  0.00    +0.000 NA
ATOM      6  C   UNL     1       1.481  10.152  18.228  0.00  0.00    +0.000 A 
ATOM      7  N   UNL     1       2.649   9.482  17.884  0.00  0.00    +0.000 N 
ATOM      8  C   UNL     1       2.912   8.113  17.851  0.00  0.00    +0.000 A 
ATOM      9  C   UNL     1       2.046   7.183  18.406  0.00  0.00    +0.000 A 
ATOM     10  C   UNL     1       2.314   5.818  18.327  0.00  0.00    +0.000 A 
ATOM     11  C   UNL     1       3.455   5.349  17.692  0.00  0.00    +0.000 A 
ATOM     12  C   UNL     1       4.294   6.360  17.211  0.00  0.00    +0.000 A 
ATOM     13  N   UNL     1       4.062   7.707  17.278  0.00  0.00    +0.000 NA
ATOM     14  N   UNL     1       1.602  11.422  18.652  0.00  0.00    +0.000 NA
ATOM     15  C   UNL     1       0.460  11.946  19.145  0.00  0.00    +0.000 A 
ATOM     16  N   UNL     1       0.305  13.169  19.780  0.00  0.00    +0.000 N 
ATOM     17  H   UNL     1       3.407  10.071  17.594  0.00  0.00    +0.000 HD
ENDROOT
BRANCH   1  21
ATOM     18  C   UNL     1      -2.418  15.538  22.906  0.00  0.00    +0.000 C 
ATOM     19  N   UNL     1      -1.758  14.412  22.270  0.00  0.00    +0.000 N 
ATOM     20  C   UNL     1      -1.250  13.377  23.159  0.00  0.00    +0.000 C 
ATOM     21  C   UNL     1      -1.592  14.472  20.878  0.00  0.00    +0.000 C 
ATOM     22  O   UNL     1      -1.923  15.485  20.263  0.00  0.00    +0.000 OA
ENDBRANCH   1  21
BRANCH  16  23
ATOM     23  C   UNL     1       1.354  14.143  20.028  0.00  0.00    +0.000 C 
ATOM     24  C   UNL     1       2.630  13.690  20.750  0.00  0.00    +0.000 C 
ATOM     25  C   UNL     1       3.588  14.859  20.547  0.00  0.00    +0.000 C 
ATOM     26  C   UNL     1       3.180  15.505  19.221  0.00  0.00    +0.000 C 
ATOM     27  C   UNL     1       1.918  14.780  18.756  0.00  0.00    +0.000 C 
ENDBRANCH  16  23
BRANCH  11  28
ATOM     28  N   UNL     1       3.690   3.994  17.510  0.00  0.00    +0.000 N 
ATOM     29  C   UNL     1       4.745   3.546  16.605  0.00  0.00    +0.000 C 
BRANCH  28  30
ATOM     30  C   UNL     1       3.215   2.994  18.491  0.00  0.00    +0.000 C 
BRANCH  30  31
ATOM     31  C   UNL     1       4.115   2.979  19.738  0.00  0.00    +0.000 C 
BRANCH  31  32
ATOM     32  O   UNL     1       5.000   1.861  19.694  0.00  0.00    +0.000 OA
ATOM     33  H   UNL     1       5.823   2.189  20.107  0.00  0.00    +0.000 HD
ENDBRANCH  31  32
ENDBRANCH  30  31
ENDBRANCH  28  30
ENDBRANCH  11  28
TORSDOF 6
ENDMDL
MODEL 9
REMARK VINA RESULT:      -6.6      2.340      2.858
REMARK  Name = 
REMARK  9 active torsions:
REMARK  status: ('A' for Active; 'I' for Inactive)
REMARK    1  A    between atoms: C_1  and  N_2
REMARK    2  A    between atoms: N_2  and  C_3
REMARK    3  A    between atoms: C_4  and  C_6
REMARK    4  A    between atoms: C_16  and  N_17
REMARK    5  A    between atoms: N_17  and  C_18
REMARK    6  A    between atoms: N_17  and  C_19
REMARK    7  A    between atoms: C_19  and  C_20
REMARK    8  A    between atoms: C_20  and  O_21
REMARK    9  A    between atoms: N_26  and  C_27
REMARK                            x       y       z     vdW  Elec       q    Type
REMARK                         _______ _______ _______ _____ _____    ______ ____
ROOT
ATOM      1  C   UNL     1      -0.256  13.877  19.508  0.00  0.00    +0.000 A 
ATOM      2  C   UNL     1      -1.075  12.780  19.282  0.00  0.00    +0.000 A 
ATOM      3  C   UNL     1      -0.283  11.710  18.842  0.00  0.00    +0.000 A 
ATOM      4  C   UNL     1      -0.506  10.378  18.553  0.00  0.00    +0.000 A 
ATOM      5  N   UNL     1       0.529   9.609  18.178  0.00  0.00    +0.000 NA
ATOM      6  C   UNL     1       1.763  10.140  18.057  0.00  0.00    +0.000 A 
ATOM      7  N   UNL     1       2.826   9.287  17.786  0.00  0.00    +0.000 N 
ATOM      8  C   UNL     1       2.939   7.913  17.993  0.00  0.00    +0.000 A 
ATOM      9  C   UNL     1       2.020   7.205  18.754  0.00  0.00    +0.000 A 
ATOM     10  C   UNL     1       2.134   5.826  18.916  0.00  0.00    +0.000 A 
ATOM     11  C   UNL     1       3.171   5.120  18.323  0.00  0.00    +0.000 A 
ATOM     12  C   UNL     1       4.077   5.923  17.622  0.00  0.00    +0.000 A 
ATOM     13  N   UNL     1       3.995   7.278  17.450  0.00  0.00    +0.000 NA
ATOM     14  N   UNL     1       2.048  11.443  18.232  0.00  0.00    +0.000 NA
ATOM     15  C   UNL     1       1.006  12.177  18.675  0.00  0.00    +0.000 A 
ATOM     16  N   UNL     1       1.027  13.503  19.080  0.00  0.00    +0.000 N 
ATOM     17  H   UNL     1       3.620   9.721  17.354  0.00  0.00    +0.000 HD
ENDROOT
BRANCH   1  21
ATOM     18  C   UNL     1      -1.152  16.708  21.847  0.00  0.00    +0.000 C 
ATOM     19  N   UNL     1      -0.661  15.420  21.394  0.00  0.00    +0.000 N 
ATOM     20  C   UNL     1      -0.152  14.526  22.425  0.00  0.00    +0.000 C 
ATOM     21  C   UNL     1      -0.638  15.195  20.009  0.00  0.00    +0.000 C 
ATOM     22  O   UNL     1      -0.945  16.100  19.235  0.00  0.00    +0.000 OA
ENDBRANCH   1  21
BRANCH  16  23
ATOM     23  C   UNL     1       2.189  14.375  19.090  0.00  0.00    +0.000 C 
ATOM     24  C   UNL     1       3.272  14.153  20.154  0.00  0.00    +0.000 C 
ATOM     25  C   UNL     1       4.433  15.014  19.664  0.00  0.00    +0.000 C 
ATOM     26  C   UNL     1       4.304  15.057  18.140  0.00  0.00    +0.000 C 
ATOM     27  C   UNL     1       3.003  14.335  17.795  0.00  0.00    +0.000 C 
ENDBRANCH  16  23
BRANCH  11  28
ATOM     28  N   UNL     1       3.248   3.737  18.383  0.00  0.00    +0.000 N 
ATOM     29  C   UNL     1       4.259   3.091  19.215  0.00  0.00    +0.000 C 
BRANCH  28  30
ATOM     30  C   UNL     1       2.104   2.887  17.984  0.00  0.00    +0.000 C 
BRANCH  30  31
ATOM     31  C   UNL     1       1.540   2.123  19.193  0.00  0.00    +0.000 C 
BRANCH  31  32
ATOM     32  O   UNL     1       0.517   2.891  19.828  0.00  0.00    +0.000 OA
ATOM     33  H   UNL     1      -0.314   2.543  19.451  0.00  0.00    +0.000 HD
ENDBRANCH  31  32
ENDBRANCH  30  31
ENDBRANCH  28  30
ENDBRANCH  11  28
TORSDOF 6
ENDMDL
