MODEL 1
REMARK VINA RESULT:      -8.1      0.000      0.000
REMARK  Name = 
REMARK  6 active torsions:
REMARK  status: ('A' for Active; 'I' for Inactive)
REMARK    1  A    between atoms: C_1  and  C_2
REMARK    2  A    between atoms: C_8  and  C_9
REMARK    3  A    between atoms: C_9  and  C_10
REMARK    4  A    between atoms: C_9  and  N_11
REMARK    5  A    between atoms: N_11  and  C_12
REMARK    6  A    between atoms: N_18  and  C_19
REMARK                            x       y       z     vdW  Elec       q    Type
REMARK                         _______ _______ _______ _____ _____    ______ ____
ROOT
ATOM      1  C   UNL     1       0.298   9.673  21.797  0.00  0.00    +0.000 C 
ATOM      2  C   UNL     1       0.832   9.651  20.390  0.00  0.00    +0.000 A 
ATOM      3  C   UNL     1       0.651  10.803  19.601  0.00  0.00    +0.000 A 
ATOM      4  C   UNL     1       1.178  10.878  18.316  0.00  0.00    +0.000 A 
ATOM      5  C   UNL     1       1.941   9.825  17.823  0.00  0.00    +0.000 A 
ATOM      6  C   UNL     1       2.120   8.663  18.587  0.00  0.00    +0.000 A 
ATOM      7  C   UNL     1       2.874   7.555  18.021  0.00  0.00    +0.000 A 
ATOM      8  C   UNL     1       2.739   6.306  18.500  0.00  0.00    +0.000 A 
ATOM      9  N   UNL     1       2.069   6.099  19.726  0.00  0.00    +0.000 N 
ATOM     10  C   UNL     1       1.516   7.179  20.470  0.00  0.00    +0.000 A 
ATOM     11  O   UNL     1       1.016   7.046  21.588  0.00  0.00    +0.000 OA
ATOM     12  C   UNL     1       1.506   8.538  19.835  0.00  0.00    +0.000 A 
ENDROOT
BRANCH   9  13
ATOM     13  C   UNL     1       1.941   4.800  20.324  0.00  0.00    +0.000 A 
ATOM     14  C   UNL     1       0.761   4.058  20.180  0.00  0.00    +0.000 A 
ATOM     15  C   UNL     1       0.677   2.763  20.700  0.00  0.00    +0.000 A 
ATOM     16  C   UNL     1       1.763   2.207  21.376  0.00  0.00    +0.000 A 
ATOM     17  C   UNL     1       2.917   2.961  21.573  0.00  0.00    +0.000 A 
ATOM     18  C   UNL     1       2.991   4.261  21.071  0.00  0.00    +0.000 A 
ENDBRANCH   9  13
BRANCH   8  19
ATOM     19  C   UNL     1       3.123   5.109  17.583  0.00  0.00    +0.000 C 
ATOM     20  C   UNL     1       1.969   4.114  17.367  0.00  0.00    +0.000 C 
BRANCH  19  21
ATOM     21  N   UNL     1       4.248   4.276  18.095  0.00  0.00    +0.000 NA
ATOM     22  H   UNL     1       4.041   3.298  17.886  0.00  0.00    +0.000 HD
BRANCH  21  23
ATOM     23  C   UNL     1       5.588   4.592  17.590  0.00  0.00    +0.000 C 
ATOM     24  C   UNL     1       6.226   5.854  18.171  0.00  0.00    +0.000 C 
ATOM     25  C   UNL     1       7.589   6.057  17.517  0.00  0.00    +0.000 C 
ATOM     26  O   UNL     1       7.461   6.161  16.098  0.00  0.00    +0.000 OA
ATOM     27  C   UNL     1       6.911   4.982  15.511  0.00  0.00    +0.000 C 
ATOM     28  C   UNL     1       5.518   4.706  16.061  0.00  0.00    +0.000 C 
ENDBRANCH  21  23
ENDBRANCH  19  21
ENDBRANCH   8  19
TORSDOF 4
ENDMDL
MODEL 2
REMARK VINA RESULT:      -7.9      0.568      1.068
REMARK  Name = 
REMARK  6 active torsions:
REMARK  status: ('A' for Active; 'I' for Inactive)
REMARK    1  A    between atoms: C_1  and  C_2
REMARK    2  A    between atoms: C_8  and  C_9
REMARK    3  A    between atoms: C_9  and  C_10
REMARK    4  A    between atoms: C_9  and  N_11
REMARK    5  A    between atoms: N_11  and  C_12
REMARK    6  A    between atoms: N_18  and  C_19
REMARK                            x       y       z     vdW  Elec       q    Type
REMARK                         _______ _______ _______ _____ _____    ______ ____
ROOT
ATOM      1  C   UNL     1       0.517   9.831  22.006  0.00  0.00    +0.000 C 
ATOM      2  C   UNL     1       0.901   9.807  20.552  0.00  0.00    +0.000 A 
ATOM      3  C   UNL     1       0.666  10.968  19.791  0.00  0.00    +0.000 A 
ATOM      4  C   UNL     1       1.058  11.040  18.459  0.00  0.00    +0.000 A 
ATOM      5  C   UNL     1       1.740   9.974  17.884  0.00  0.00    +0.000 A 
ATOM      6  C   UNL     1       1.970   8.802  18.619  0.00  0.00    +0.000 A 
ATOM      7  C   UNL     1       2.634   7.682  17.972  0.00  0.00    +0.000 A 
ATOM      8  C   UNL     1       2.521   6.433  18.457  0.00  0.00    +0.000 A 
ATOM      9  N   UNL     1       1.977   6.232  19.746  0.00  0.00    +0.000 N 
ATOM     10  C   UNL     1       1.530   7.319  20.548  0.00  0.00    +0.000 A 
ATOM     11  O   UNL     1       1.147   7.189  21.712  0.00  0.00    +0.000 OA
ATOM     12  C   UNL     1       1.487   8.682  19.924  0.00  0.00    +0.000 A 
ENDROOT
BRANCH   9  13
ATOM     13  C   UNL     1       1.881   4.932  20.348  0.00  0.00    +0.000 A 
ATOM     14  C   UNL     1       0.693   4.194  20.272  0.00  0.00    +0.000 A 
ATOM     15  C   UNL     1       0.636   2.897  20.794  0.00  0.00    +0.000 A 
ATOM     16  C   UNL     1       1.759   2.337  21.403  0.00  0.00    +0.000 A 
ATOM     17  C   UNL     1       2.925   3.088  21.532  0.00  0.00    +0.000 A 
ATOM     18  C   UNL     1       2.973   4.389  21.030  0.00  0.00    +0.000 A 
ENDBRANCH   9  13
BRANCH   8  19
ATOM     19  C   UNL     1       2.778   5.234  17.499  0.00  0.00    +0.000 C 
ATOM     20  C   UNL     1       1.602   4.243  17.435  0.00  0.00    +0.000 C 
BRANCH  19  21
ATOM     21  N   UNL     1       3.957   4.396  17.864  0.00  0.00    +0.000 NA
ATOM     22  H   UNL     1       3.778   3.440  17.549  0.00  0.00    +0.000 HD
BRANCH  21  23
ATOM     23  C   UNL     1       5.259   4.826  17.344  0.00  0.00    +0.000 C 
ATOM     24  C   UNL     1       5.649   4.239  15.988  0.00  0.00    +0.000 C 
ATOM     25  C   UNL     1       7.035   4.754  15.613  0.00  0.00    +0.000 C 
ATOM     26  O   UNL     1       7.994   4.403  16.612  0.00  0.00    +0.000 OA
ATOM     27  C   UNL     1       7.690   4.973  17.886  0.00  0.00    +0.000 C 
ATOM     28  C   UNL     1       6.336   4.485  18.383  0.00  0.00    +0.000 C 
ENDBRANCH  21  23
ENDBRANCH  19  21
ENDBRANCH   8  19
TORSDOF 4
ENDMDL
MODEL 3
REMARK VINA RESULT:      -7.6      6.265      9.269
REMARK  Name = 
REMARK  6 active torsions:
REMARK  status: ('A' for Active; 'I' for Inactive)
REMARK    1  A    between atoms: C_1  and  C_2
REMARK    2  A    between atoms: C_8  and  C_9
REMARK    3  A    between atoms: C_9  and  C_10
REMARK    4  A    between atoms: C_9  and  N_11
REMARK    5  A    between atoms: N_11  and  C_12
REMARK    6  A    between atoms: N_18  and  C_19
REMARK                            x       y       z     vdW  Elec       q    Type
REMARK                         _______ _______ _______ _____ _____    ______ ____
ROOT
ATOM      1  C   UNL     1       2.591  16.081  21.505  0.00  0.00    +0.000 C 
ATOM      2  C   UNL     1       1.573  16.057  20.398  0.00  0.00    +0.000 A 
ATOM      3  C   UNL     1       1.290  17.270  19.741  0.00  0.00    +0.000 A 
ATOM      4  C   UNL     1       0.410  17.310  18.664  0.00  0.00    +0.000 A 
ATOM      5  C   UNL     1      -0.156  16.130  18.194  0.00  0.00    +0.000 A 
ATOM      6  C   UNL     1       0.101  14.914  18.843  0.00  0.00    +0.000 A 
ATOM      7  C   UNL     1      -0.552  13.706  18.365  0.00  0.00    +0.000 A 
ATOM      8  C   UNL     1      -0.680  12.626  19.155  0.00  0.00    +0.000 A 
ATOM      9  N   UNL     1       0.047  12.556  20.364  0.00  0.00    +0.000 N 
ATOM     10  C   UNL     1       0.910  13.608  20.781  0.00  0.00    +0.000 A 
ATOM     11  O   UNL     1       1.634  13.536  21.775  0.00  0.00    +0.000 OA
ATOM     12  C   UNL     1       0.899  14.882  19.990  0.00  0.00    +0.000 A 
ENDROOT
BRANCH   9  13
ATOM     13  C   UNL     1       0.002  11.408  21.225  0.00  0.00    +0.000 A 
ATOM     14  C   UNL     1       0.842  10.311  21.000  0.00  0.00    +0.000 A 
ATOM     15  C   UNL     1       0.845   9.232  21.891  0.00  0.00    +0.000 A 
ATOM     16  C   UNL     1       0.000   9.238  23.001  0.00  0.00    +0.000 A 
ATOM     17  C   UNL     1      -0.879  10.300  23.198  0.00  0.00    +0.000 A 
ATOM     18  C   UNL     1      -0.894  11.365  22.297  0.00  0.00    +0.000 A 
ENDBRANCH   9  13
BRANCH   8  19
ATOM     19  C   UNL     1      -1.796  11.591  18.829  0.00  0.00    +0.000 C 
ATOM     20  C   UNL     1      -1.308  10.428  17.947  0.00  0.00    +0.000 C 
BRANCH  19  21
ATOM     21  N   UNL     1      -2.965  12.156  18.096  0.00  0.00    +0.000 NA
ATOM     22  H   UNL     1      -2.858  11.932  17.105  0.00  0.00    +0.000 HD
BRANCH  21  23
ATOM     23  C   UNL     1      -4.295  11.721  18.536  0.00  0.00    +0.000 C 
ATOM     24  C   UNL     1      -5.400  11.831  17.486  0.00  0.00    +0.000 C 
ATOM     25  C   UNL     1      -6.714  11.377  18.113  0.00  0.00    +0.000 C 
ATOM     26  O   UNL     1      -7.027  12.165  19.263  0.00  0.00    +0.000 OA
ATOM     27  C   UNL     1      -6.040  12.053  20.288  0.00  0.00    +0.000 C 
ATOM     28  C   UNL     1      -4.684  12.527  19.783  0.00  0.00    +0.000 C 
ENDBRANCH  21  23
ENDBRANCH  19  21
ENDBRANCH   8  19
TORSDOF 4
ENDMDL
MODEL 4
REMARK VINA RESULT:      -7.6      6.485      9.329
REMARK  Name = 
REMARK  6 active torsions:
REMARK  status: ('A' for Active; 'I' for Inactive)
REMARK    1  A    between atoms: C_1  and  C_2
REMARK    2  A    between atoms: C_8  and  C_9
REMARK    3  A    between atoms: C_9  and  C_10
REMARK    4  A    between atoms: C_9  and  N_11
REMARK    5  A    between atoms: N_11  and  C_12
REMARK    6  A    between atoms: N_18  and  C_19
REMARK                            x       y       z     vdW  Elec       q    Type
REMARK                         _______ _______ _______ _____ _____    ______ ____
ROOT
ATOM      1  C   UNL     1       2.041  16.580  21.826  0.00  0.00    +0.000 C 
ATOM      2  C   UNL     1       1.129  16.450  20.636  0.00  0.00    +0.000 A 
ATOM      3  C   UNL     1       0.786  17.626  19.941  0.00  0.00    +0.000 A 
ATOM      4  C   UNL     1       0.002  17.573  18.793  0.00  0.00    +0.000 A 
ATOM      5  C   UNL     1      -0.402  16.340  18.292  0.00  0.00    +0.000 A 
ATOM      6  C   UNL     1      -0.084  15.159  18.977  0.00  0.00    +0.000 A 
ATOM      7  C   UNL     1      -0.571  13.889  18.461  0.00  0.00    +0.000 A 
ATOM      8  C   UNL     1      -0.660  12.806  19.252  0.00  0.00    +0.000 A 
ATOM      9  N   UNL     1      -0.036  12.815  20.520  0.00  0.00    +0.000 N 
ATOM     10  C   UNL     1       0.680  13.949  20.995  0.00  0.00    +0.000 A 
ATOM     11  O   UNL     1       1.320  13.954  22.047  0.00  0.00    +0.000 OA
ATOM     12  C   UNL     1       0.612  15.212  20.188  0.00  0.00    +0.000 A 
ENDROOT
BRANCH   9  13
ATOM     13  C   UNL     1      -0.042  11.673  21.389  0.00  0.00    +0.000 A 
ATOM     14  C   UNL     1      -0.954  11.585  22.449  0.00  0.00    +0.000 A 
ATOM     15  C   UNL     1      -1.003  10.433  23.242  0.00  0.00    +0.000 A 
ATOM     16  C   UNL     1      -0.135   9.371  22.988  0.00  0.00    +0.000 A 
ATOM     17  C   UNL     1       0.811   9.476  21.972  0.00  0.00    +0.000 A 
ATOM     18  C   UNL     1       0.873  10.635  21.197  0.00  0.00    +0.000 A 
ENDBRANCH   9  13
BRANCH   8  19
ATOM     19  C   UNL     1      -1.636  11.664  18.846  0.00  0.00    +0.000 C 
ATOM     20  C   UNL     1      -0.964  10.554  18.020  0.00  0.00    +0.000 C 
BRANCH  19  21
ATOM     21  N   UNL     1      -2.791  12.108  18.014  0.00  0.00    +0.000 NA
ATOM     22  H   UNL     1      -2.649  11.761  17.063  0.00  0.00    +0.000 HD
BRANCH  21  23
ATOM     23  C   UNL     1      -4.126  11.705  18.467  0.00  0.00    +0.000 C 
ATOM     24  C   UNL     1      -5.238  11.837  17.427  0.00  0.00    +0.000 C 
ATOM     25  C   UNL     1      -6.557  11.417  18.067  0.00  0.00    +0.000 C 
ATOM     26  O   UNL     1      -6.841  12.217  19.216  0.00  0.00    +0.000 OA
ATOM     27  C   UNL     1      -5.847  12.085  20.233  0.00  0.00    +0.000 C 
ATOM     28  C   UNL     1      -4.486  12.525  19.714  0.00  0.00    +0.000 C 
ENDBRANCH  21  23
ENDBRANCH  19  21
ENDBRANCH   8  19
TORSDOF 4
ENDMDL
MODEL 5
REMARK VINA RESULT:      -7.5      6.380      9.119
REMARK  Name = 
REMARK  6 active torsions:
REMARK  status: ('A' for Active; 'I' for Inactive)
REMARK    1  A    between atoms: C_1  and  C_2
REMARK    2  A    between atoms: C_8  and  C_9
REMARK    3  A    between atoms: C_9  and  C_10
REMARK    4  A    between atoms: C_9  and  N_11
REMARK    5  A    between atoms: N_11  and  C_12
REMARK    6  A    between atoms: N_18  and  C_19
REMARK                            x       y       z     vdW  Elec       q    Type
REMARK                         _______ _______ _______ _____ _____    ______ ____
ROOT
ATOM      1  C   UNL     1       2.495  16.276  21.580  0.00  0.00    +0.000 C 
ATOM      2  C   UNL     1       1.496  16.211  20.457  0.00  0.00    +0.000 A 
ATOM      3  C   UNL     1       1.200  17.405  19.772  0.00  0.00    +0.000 A 
ATOM      4  C   UNL     1       0.338  17.407  18.680  0.00  0.00    +0.000 A 
ATOM      5  C   UNL     1      -0.196  16.208  18.223  0.00  0.00    +0.000 A 
ATOM      6  C   UNL     1       0.073  15.010  18.900  0.00  0.00    +0.000 A 
ATOM      7  C   UNL     1      -0.548  13.780  18.434  0.00  0.00    +0.000 A 
ATOM      8  C   UNL     1      -0.669  12.713  19.243  0.00  0.00    +0.000 A 
ATOM      9  N   UNL     1       0.040  12.681  20.465  0.00  0.00    +0.000 N 
ATOM     10  C   UNL     1       0.875  13.757  20.876  0.00  0.00    +0.000 A 
ATOM     11  O   UNL     1       1.584  13.718  21.883  0.00  0.00    +0.000 OA
ATOM     12  C   UNL     1       0.852  15.015  20.060  0.00  0.00    +0.000 A 
ENDROOT
BRANCH   9  13
ATOM     13  C   UNL     1       0.002  11.548  21.347  0.00  0.00    +0.000 A 
ATOM     14  C   UNL     1      -0.912  11.496  22.407  0.00  0.00    +0.000 A 
ATOM     15  C   UNL     1      -0.993  10.355  23.212  0.00  0.00    +0.000 A 
ATOM     16  C   UNL     1      -0.153   9.268  22.971  0.00  0.00    +0.000 A 
ATOM     17  C   UNL     1       0.797   9.337  21.955  0.00  0.00    +0.000 A 
ATOM     18  C   UNL     1       0.890  10.485  21.168  0.00  0.00    +0.000 A 
ENDBRANCH   9  13
BRANCH   8  19
ATOM     19  C   UNL     1      -1.758  11.650  18.919  0.00  0.00    +0.000 C 
ATOM     20  C   UNL     1      -1.189  10.370  18.280  0.00  0.00    +0.000 C 
BRANCH  19  21
ATOM     21  N   UNL     1      -2.806  12.114  17.965  0.00  0.00    +0.000 NA
ATOM     22  H   UNL     1      -2.775  11.512  17.140  0.00  0.00    +0.000 HD
BRANCH  21  23
ATOM     23  C   UNL     1      -4.184  12.154  18.466  0.00  0.00    +0.000 C 
ATOM     24  C   UNL     1      -4.327  12.355  19.974  0.00  0.00    +0.000 C 
ATOM     25  C   UNL     1      -5.809  12.336  20.331  0.00  0.00    +0.000 C 
ATOM     26  O   UNL     1      -6.414  11.107  19.924  0.00  0.00    +0.000 OA
ATOM     27  C   UNL     1      -6.343  10.905  18.512  0.00  0.00    +0.000 C 
ATOM     28  C   UNL     1      -4.894  10.859  18.048  0.00  0.00    +0.000 C 
ENDBRANCH  21  23
ENDBRANCH  19  21
ENDBRANCH   8  19
TORSDOF 4
ENDMDL
MODEL 6
REMARK VINA RESULT:      -7.2      2.721      6.615
REMARK  Name = 
REMARK  6 active torsions:
REMARK  status: ('A' for Active; 'I' for Inactive)
REMARK    1  A    between atoms: C_1  and  C_2
REMARK    2  A    between atoms: C_8  and  C_9
REMARK    3  A    between atoms: C_9  and  C_10
REMARK    4  A    between atoms: C_9  and  N_11
REMARK    5  A    between atoms: N_11  and  C_12
REMARK    6  A    between atoms: N_18  and  C_19
REMARK                            x       y       z     vdW  Elec       q    Type
REMARK                         _______ _______ _______ _____ _____    ______ ____
ROOT
ATOM      1  C   UNL     1       3.817   4.187  19.670  0.00  0.00    +0.000 C 
ATOM      2  C   UNL     1       3.935   5.295  18.659  0.00  0.00    +0.000 A 
ATOM      3  C   UNL     1       4.881   5.145  17.627  0.00  0.00    +0.000 A 
ATOM      4  C   UNL     1       4.997   6.098  16.621  0.00  0.00    +0.000 A 
ATOM      5  C   UNL     1       4.130   7.185  16.600  0.00  0.00    +0.000 A 
ATOM      6  C   UNL     1       3.191   7.362  17.626  0.00  0.00    +0.000 A 
ATOM      7  C   UNL     1       2.339   8.540  17.609  0.00  0.00    +0.000 A 
ATOM      8  C   UNL     1       1.733   8.975  18.727  0.00  0.00    +0.000 A 
ATOM      9  N   UNL     1       1.702   8.147  19.871  0.00  0.00    +0.000 N 
ATOM     10  C   UNL     1       2.308   6.860  19.881  0.00  0.00    +0.000 A 
ATOM     11  O   UNL     1       2.213   6.073  20.824  0.00  0.00    +0.000 OA
ATOM     12  C   UNL     1       3.140   6.466  18.697  0.00  0.00    +0.000 A 
ENDROOT
BRANCH   9  13
ATOM     13  C   UNL     1       1.022   8.525  21.078  0.00  0.00    +0.000 A 
ATOM     14  C   UNL     1       1.731   9.057  22.163  0.00  0.00    +0.000 A 
ATOM     15  C   UNL     1       1.049   9.494  23.303  0.00  0.00    +0.000 A 
ATOM     16  C   UNL     1      -0.340   9.392  23.371  0.00  0.00    +0.000 A 
ATOM     17  C   UNL     1      -1.044   8.811  22.319  0.00  0.00    +0.000 A 
ATOM     18  C   UNL     1      -0.360   8.356  21.192  0.00  0.00    +0.000 A 
ENDBRANCH   9  13
BRANCH   8  19
ATOM     19  C   UNL     1       1.284  10.464  18.802  0.00  0.00    +0.000 C 
ATOM     20  C   UNL     1      -0.148  10.694  18.288  0.00  0.00    +0.000 C 
BRANCH  19  21
ATOM     21  N   UNL     1       2.126  11.401  18.005  0.00  0.00    +0.000 NA
ATOM     22  H   UNL     1       1.824  11.351  17.030  0.00  0.00    +0.000 HD
BRANCH  21  23
ATOM     23  C   UNL     1       2.129  12.807  18.425  0.00  0.00    +0.000 C 
ATOM     24  C   UNL     1       3.368  13.607  18.024  0.00  0.00    +0.000 C 
ATOM     25  C   UNL     1       3.229  15.025  18.566  0.00  0.00    +0.000 C 
ATOM     26  O   UNL     1       3.071  15.014  19.986  0.00  0.00    +0.000 OA
ATOM     27  C   UNL     1       1.896  14.314  20.399  0.00  0.00    +0.000 C 
ATOM     28  C   UNL     1       1.950  12.861  19.948  0.00  0.00    +0.000 C 
ENDBRANCH  21  23
ENDBRANCH  19  21
ENDBRANCH   8  19
TORSDOF 4
ENDMDL
MODEL 7
REMARK VINA RESULT:      -7.1      5.768      9.244
REMARK  Name = 
REMARK  6 active torsions:
REMARK  status: ('A' for Active; 'I' for Inactive)
REMARK    1  A    between atoms: C_1  and  C_2
REMARK    2  A    between atoms: C_8  and  C_9
REMARK    3  A    between atoms: C_9  and  C_10
REMARK    4  A    between atoms: C_9  and  N_11
REMARK    5  A    between atoms: N_11  and  C_12
REMARK    6  A    between atoms: N_18  and  C_19
REMARK                            x       y       z     vdW  Elec       q    Type
REMARK                         _______ _______ _______ _____ _____    ______ ____
ROOT
ATOM      1  C   UNL     1      -5.893  10.900  18.158  0.00  0.00    +0.000 C 
ATOM      2  C   UNL     1      -4.402  10.892  17.958  0.00  0.00    +0.000 A 
ATOM      3  C   UNL     1      -3.874  10.019  16.989  0.00  0.00    +0.000 A 
ATOM      4  C   UNL     1      -2.512  10.007  16.704  0.00  0.00    +0.000 A 
ATOM      5  C   UNL     1      -1.668  10.909  17.343  0.00  0.00    +0.000 A 
ATOM      6  C   UNL     1      -2.171  11.777  18.323  0.00  0.00    +0.000 A 
ATOM      7  C   UNL     1      -1.253  12.667  19.016  0.00  0.00    +0.000 A 
ATOM      8  C   UNL     1      -1.573  13.206  20.206  0.00  0.00    +0.000 A 
ATOM      9  N   UNL     1      -2.905  13.126  20.671  0.00  0.00    +0.000 N 
ATOM     10  C   UNL     1      -3.925  12.478  19.919  0.00  0.00    +0.000 A 
ATOM     11  O   UNL     1      -5.112  12.480  20.246  0.00  0.00    +0.000 OA
ATOM     12  C   UNL     1      -3.518  11.721  18.690  0.00  0.00    +0.000 A 
ENDROOT
BRANCH   9  13
ATOM     13  C   UNL     1      -3.327  13.730  21.903  0.00  0.00    +0.000 A 
ATOM     14  C   UNL     1      -3.372  12.983  23.088  0.00  0.00    +0.000 A 
ATOM     15  C   UNL     1      -3.710  13.601  24.297  0.00  0.00    +0.000 A 
ATOM     16  C   UNL     1      -4.016  14.961  24.327  0.00  0.00    +0.000 A 
ATOM     17  C   UNL     1      -4.029  15.695  23.143  0.00  0.00    +0.000 A 
ATOM     18  C   UNL     1      -3.713  15.072  21.936  0.00  0.00    +0.000 A 
ENDBRANCH   9  13
BRANCH   8  19
ATOM     19  C   UNL     1      -0.426  13.697  21.135  0.00  0.00    +0.000 C 
ATOM     20  C   UNL     1       0.801  14.215  20.365  0.00  0.00    +0.000 C 
BRANCH  19  21
ATOM     21  N   UNL     1       0.117  12.651  22.049  0.00  0.00    +0.000 NA
ATOM     22  H   UNL     1      -0.258  12.821  22.985  0.00  0.00    +0.000 HD
BRANCH  21  23
ATOM     23  C   UNL     1      -0.143  11.255  21.684  0.00  0.00    +0.000 C 
ATOM     24  C   UNL     1      -0.390  10.306  22.856  0.00  0.00    +0.000 C 
ATOM     25  C   UNL     1      -0.604   8.899  22.309  0.00  0.00    +0.000 C 
ATOM     26  O   UNL     1       0.525   8.475  21.544  0.00  0.00    +0.000 OA
ATOM     27  C   UNL     1       0.762   9.310  20.410  0.00  0.00    +0.000 C 
ATOM     28  C   UNL     1       1.036  10.743  20.845  0.00  0.00    +0.000 C 
ENDBRANCH  21  23
ENDBRANCH  19  21
ENDBRANCH   8  19
TORSDOF 4
ENDMDL
MODEL 8
REMARK VINA RESULT:      -7.1      3.404      8.821
REMARK  Name = 
REMARK  6 active torsions:
REMARK  status: ('A' for Active; 'I' for Inactive)
REMARK    1  A    between atoms: C_1  and  C_2
REMARK    2  A    between atoms: C_8  and  C_9
REMARK    3  A    between atoms: C_9  and  C_10
REMARK    4  A    between atoms: C_9  and  N_11
REMARK    5  A    between atoms: N_11  and  C_12
REMARK    6  A    between atoms: N_18  and  C_19
REMARK                            x       y       z     vdW  Elec       q    Type
REMARK                         _______ _______ _______ _____ _____    ______ ____
ROOT
ATOM      1  C   UNL     1       3.172   7.421  16.937  0.00  0.00    +0.000 C 
ATOM      2  C   UNL     1       2.574   7.036  18.262  0.00  0.00    +0.000 A 
ATOM      3  C   UNL     1       2.512   5.666  18.582  0.00  0.00    +0.000 A 
ATOM      4  C   UNL     1       2.034   5.242  19.817  0.00  0.00    +0.000 A 
ATOM      5  C   UNL     1       1.664   6.184  20.772  0.00  0.00    +0.000 A 
ATOM      6  C   UNL     1       1.704   7.552  20.469  0.00  0.00    +0.000 A 
ATOM      7  C   UNL     1       1.256   8.510  21.467  0.00  0.00    +0.000 A 
ATOM      8  C   UNL     1       0.884   9.754  21.118  0.00  0.00    +0.000 A 
ATOM      9  N   UNL     1       1.175  10.230  19.820  0.00  0.00    +0.000 N 
ATOM     10  C   UNL     1       1.844   9.423  18.858  0.00  0.00    +0.000 A 
ATOM     11  O   UNL     1       2.203   9.840  17.755  0.00  0.00    +0.000 OA
ATOM     12  C   UNL     1       2.082   7.981  19.194  0.00  0.00    +0.000 A 
ENDROOT
BRANCH   9  13
ATOM     13  C   UNL     1       0.860  11.567  19.401  0.00  0.00    +0.000 A 
ATOM     14  C   UNL     1      -0.260  11.821  18.599  0.00  0.00    +0.000 A 
ATOM     15  C   UNL     1      -0.602  13.135  18.262  0.00  0.00    +0.000 A 
ATOM     16  C   UNL     1       0.178  14.199  18.714  0.00  0.00    +0.000 A 
ATOM     17  C   UNL     1       1.325  13.949  19.464  0.00  0.00    +0.000 A 
ATOM     18  C   UNL     1       1.675  12.636  19.780  0.00  0.00    +0.000 A 
ENDBRANCH   9  13
BRANCH   8  19
ATOM     19  C   UNL     1      -0.054  10.549  22.073  0.00  0.00    +0.000 C 
ATOM     20  C   UNL     1      -0.492   9.740  23.307  0.00  0.00    +0.000 C 
BRANCH  19  21
ATOM     21  N   UNL     1      -1.329  11.002  21.447  0.00  0.00    +0.000 NA
ATOM     22  H   UNL     1      -1.996  10.229  21.487  0.00  0.00    +0.000 HD
BRANCH  21  23
ATOM     23  C   UNL     1      -1.958  12.197  22.020  0.00  0.00    +0.000 C 
ATOM     24  C   UNL     1      -2.958  12.910  21.111  0.00  0.00    +0.000 C 
ATOM     25  C   UNL     1      -3.487  14.141  21.838  0.00  0.00    +0.000 C 
ATOM     26  O   UNL     1      -2.417  15.017  22.199  0.00  0.00    +0.000 OA
ATOM     27  C   UNL     1      -1.483  14.401  23.087  0.00  0.00    +0.000 C 
ATOM     28  C   UNL     1      -0.853  13.176  22.440  0.00  0.00    +0.000 C 
ENDBRANCH  21  23
ENDBRANCH  19  21
ENDBRANCH   8  19
TORSDOF 4
ENDMDL
MODEL 9
REMARK VINA RESULT:      -7.1      6.151      9.605
REMARK  Name = 
REMARK  6 active torsions:
REMARK  status: ('A' for Active; 'I' for Inactive)
REMARK    1  A    between atoms: C_1  and  C_2
REMARK    2  A    between atoms: C_8  and  C_9
REMARK    3  A    between atoms: C_9  and  C_10
REMARK    4  A    between atoms: C_9  and  N_11
REMARK    5  A    between atoms: N_11  and  C_12
REMARK    6  A    between atoms: N_18  and  C_19
REMARK                            x       y       z     vdW  Elec       q    Type
REMARK                         _______ _______ _______ _____ _____    ______ ____
ROOT
ATOM      1  C   UNL     1       3.889  14.675  20.280  0.00  0.00    +0.000 C 
ATOM      2  C   UNL     1       2.577  15.224  19.789  0.00  0.00    +0.000 A 
ATOM      3  C   UNL     1       2.545  16.564  19.358  0.00  0.00    +0.000 A 
ATOM      4  C   UNL     1       1.384  17.117  18.829  0.00  0.00    +0.000 A 
ATOM      5  C   UNL     1       0.254  16.322  18.670  0.00  0.00    +0.000 A 
ATOM      6  C   UNL     1       0.259  14.990  19.106  0.00  0.00    +0.000 A 
ATOM      7  C   UNL     1      -0.956  14.200  18.981  0.00  0.00    +0.000 A 
ATOM      8  C   UNL     1      -1.148  13.097  19.725  0.00  0.00    +0.000 A 
ATOM      9  N   UNL     1      -0.064  12.544  20.443  0.00  0.00    +0.000 N 
ATOM     10  C   UNL     1       1.233  13.128  20.412  0.00  0.00    +0.000 A 
ATOM     11  O   UNL     1       2.220  12.616  20.942  0.00  0.00    +0.000 OA
ATOM     12  C   UNL     1       1.388  14.458  19.736  0.00  0.00    +0.000 A 
ENDROOT
BRANCH   9  13
ATOM     13  C   UNL     1      -0.185  11.335  21.209  0.00  0.00    +0.000 A 
ATOM     14  C   UNL     1      -0.637  11.370  22.534  0.00  0.00    +0.000 A 
ATOM     15  C   UNL     1      -0.825  10.180  23.245  0.00  0.00    +0.000 A 
ATOM     16  C   UNL     1      -0.551   8.953  22.642  0.00  0.00    +0.000 A 
ATOM     17  C   UNL     1      -0.048   8.915  21.344  0.00  0.00    +0.000 A 
ATOM     18  C   UNL     1       0.159  10.105  20.644  0.00  0.00    +0.000 A 
ENDBRANCH   9  13
BRANCH   8  19
ATOM     19  C   UNL     1      -2.603  12.597  19.956  0.00  0.00    +0.000 C 
ATOM     20  C   UNL     1      -3.166  11.795  18.769  0.00  0.00    +0.000 C 
BRANCH  19  21
ATOM     21  N   UNL     1      -3.599  13.682  20.185  0.00  0.00    +0.000 NA
ATOM     22  H   UNL     1      -4.442  13.459  19.652  0.00  0.00    +0.000 HD
BRANCH  21  23
ATOM     23  C   UNL     1      -3.978  13.949  21.576  0.00  0.00    +0.000 C 
ATOM     24  C   UNL     1      -3.145  15.013  22.289  0.00  0.00    +0.000 C 
ATOM     25  C   UNL     1      -3.642  15.140  23.726  0.00  0.00    +0.000 C 
ATOM     26  O   UNL     1      -3.553  13.887  24.406  0.00  0.00    +0.000 OA
ATOM     27  C   UNL     1      -4.356  12.876  23.797  0.00  0.00    +0.000 C 
ATOM     28  C   UNL     1      -3.913  12.631  22.361  0.00  0.00    +0.000 C 
ENDBRANCH  21  23
ENDBRANCH  19  21
ENDBRANCH   8  19
TORSDOF 4
ENDMDL
