MODEL 1
REMARK VINA RESULT:      -8.4      0.000      0.000
REMARK  Name = 
REMARK  4 active torsions:
REMARK  status: ('A' for Active; 'I' for Inactive)
REMARK    1  A    between atoms: C_2  and  C_14
REMARK    2  A    between atoms: N_7  and  C_8
REMARK    3  A    between atoms: C_14  and  C_15
REMARK    4  A    between atoms: C_15  and  C_16
REMARK                            x       y       z     vdW  Elec       q    Type
REMARK                         _______ _______ _______ _____ _____    ______ ____
ROOT
ATOM      1  C   UNL     1       6.650   5.672  16.978  0.00  0.00    +0.000 C 
ATOM      2  C   UNL     1       7.468   6.787  16.303  0.00  0.00    +0.000 C 
ATOM      3  C   UNL     1       7.843   7.750  17.412  0.00  0.00    +0.000 C 
ATOM      4  C   UNL     1       7.849   6.911  18.668  0.00  0.00    +0.000 C 
ATOM      5  N   UNL     1       7.311   5.595  18.323  0.00  0.00    +0.000 NA
ATOM      6  H   UNL     1       6.635   5.366  19.047  0.00  0.00    +0.000 HD
ENDROOT
BRANCH   1   8
ATOM      7  O   UNL     1       4.693   7.070  16.589  0.00  0.00    +0.000 OA
ATOM      8  C   UNL     1       5.135   6.061  17.155  0.00  0.00    +0.000 C 
ATOM      9  N   UNL     1       4.285   5.233  17.912  0.00  0.00    +0.000 N 
ATOM     10  C   UNL     1       2.850   5.521  17.869  0.00  0.00    +0.000 C 
ATOM     11  C   UNL     1       1.912   4.357  17.547  0.00  0.00    +0.000 C 
ATOM     12  C   UNL     1       2.189   2.944  18.062  0.00  0.00    +0.000 C 
ATOM     13  N   UNL     1       2.918   2.720  19.308  0.00  0.00    +0.000 NA
ATOM     14  C   UNL     1       4.339   3.026  19.158  0.00  0.00    +0.000 C 
ATOM     15  C   UNL     1       4.734   4.500  19.099  0.00  0.00    +0.000 C 
BRANCH  13  16
ATOM     16  C   UNL     1       2.304   3.331  20.491  0.00  0.00    +0.000 C 
ATOM     17  C   UNL     1       0.844   2.838  20.623  0.00  0.00    +0.000 C 
ATOM     18  C   UNL     1       1.133   2.521  22.102  0.00  0.00    +0.000 C 
ATOM     19  C   UNL     1       2.628   2.483  21.751  0.00  0.00    +0.000 C 
ENDBRANCH  13  16
ENDBRANCH   1   8
BRANCH   1  20
ATOM     20  C   UNL     1       6.831   4.358  16.165  0.00  0.00    +0.000 C 
BRANCH  20  21
ATOM     21  C   UNL     1       6.957   4.372  14.647  0.00  0.00    +0.000 A 
ATOM     22  C   UNL     1       7.822   5.199  13.915  0.00  0.00    +0.000 A 
ATOM     23  C   UNL     1       7.787   5.229  12.514  0.00  0.00    +0.000 A 
ATOM     24  C   UNL     1       6.896   4.421  11.816  0.00  0.00    +0.000 A 
ATOM     25  C   UNL     1       6.049   3.585  12.527  0.00  0.00    +0.000 A 
ATOM     26  F   UNL     1       5.187   2.802  11.866  0.00  0.00    +0.000 F 
ATOM     27  C   UNL     1       6.069   3.558  13.921  0.00  0.00    +0.000 A 
ENDBRANCH  20  21
ENDBRANCH   1  20
TORSDOF 4
ENDMDL
MODEL 2
REMARK VINA RESULT:      -8.3      0.830      1.260
REMARK  Name = 
REMARK  4 active torsions:
REMARK  status: ('A' for Active; 'I' for Inactive)
REMARK    1  A    between atoms: C_2  and  C_14
REMARK    2  A    between atoms: N_7  and  C_8
REMARK    3  A    between atoms: C_14  and  C_15
REMARK    4  A    between atoms: C_15  and  C_16
REMARK                            x       y       z     vdW  Elec       q    Type
REMARK                         _______ _______ _______ _____ _____    ______ ____
ROOT
ATOM      1  C   UNL     1       6.909   5.979  17.205  0.00  0.00    +0.000 C 
ATOM      2  C   UNL     1       7.700   7.113  16.529  0.00  0.00    +0.000 C 
ATOM      3  C   UNL     1       8.007   8.111  17.628  0.00  0.00    +0.000 C 
ATOM      4  C   UNL     1       8.013   7.298  18.900  0.00  0.00    +0.000 C 
ATOM      5  N   UNL     1       7.538   5.955  18.568  0.00  0.00    +0.000 NA
ATOM      6  H   UNL     1       6.853   5.712  19.279  0.00  0.00    +0.000 HD
ENDROOT
BRANCH   1   8
ATOM      7  O   UNL     1       4.919   7.319  16.783  0.00  0.00    +0.000 OA
ATOM      8  C   UNL     1       5.376   6.310  17.336  0.00  0.00    +0.000 C 
ATOM      9  N   UNL     1       4.529   5.431  18.036  0.00  0.00    +0.000 N 
ATOM     10  C   UNL     1       3.087   5.670  17.947  0.00  0.00    +0.000 C 
ATOM     11  C   UNL     1       2.204   4.485  17.557  0.00  0.00    +0.000 C 
ATOM     12  C   UNL     1       2.512   3.067  18.042  0.00  0.00    +0.000 C 
ATOM     13  N   UNL     1       3.202   2.832  19.307  0.00  0.00    +0.000 NA
ATOM     14  C   UNL     1       4.616   3.191  19.220  0.00  0.00    +0.000 C 
ATOM     15  C   UNL     1       4.960   4.679  19.218  0.00  0.00    +0.000 C 
BRANCH  13  16
ATOM     16  C   UNL     1       2.524   3.385  20.483  0.00  0.00    +0.000 C 
ATOM     17  C   UNL     1       1.035   2.967  20.460  0.00  0.00    +0.000 C 
ATOM     18  C   UNL     1       1.184   2.523  21.928  0.00  0.00    +0.000 C 
ATOM     19  C   UNL     1       2.699   2.428  21.693  0.00  0.00    +0.000 C 
ENDBRANCH  13  16
ENDBRANCH   1   8
BRANCH   1  20
ATOM     20  C   UNL     1       7.164   4.659  16.424  0.00  0.00    +0.000 C 
BRANCH  20  21
ATOM     21  C   UNL     1       6.586   4.432  15.033  0.00  0.00    +0.000 A 
ATOM     22  C   UNL     1       5.365   3.798  14.759  0.00  0.00    +0.000 A 
ATOM     23  C   UNL     1       4.967   3.526  13.442  0.00  0.00    +0.000 A 
ATOM     24  C   UNL     1       5.775   3.896  12.374  0.00  0.00    +0.000 A 
ATOM     25  C   UNL     1       6.976   4.541  12.630  0.00  0.00    +0.000 A 
ATOM     26  F   UNL     1       7.761   4.902  11.608  0.00  0.00    +0.000 F 
ATOM     27  C   UNL     1       7.385   4.804  13.936  0.00  0.00    +0.000 A 
ENDBRANCH  20  21
ENDBRANCH   1  20
TORSDOF 4
ENDMDL
MODEL 3
REMARK VINA RESULT:      -7.4      2.826      4.718
REMARK  Name = 
REMARK  4 active torsions:
REMARK  status: ('A' for Active; 'I' for Inactive)
REMARK    1  A    between atoms: C_2  and  C_14
REMARK    2  A    between atoms: N_7  and  C_8
REMARK    3  A    between atoms: C_14  and  C_15
REMARK    4  A    between atoms: C_15  and  C_16
REMARK                            x       y       z     vdW  Elec       q    Type
REMARK                         _______ _______ _______ _____ _____    ______ ____
ROOT
ATOM      1  C   UNL     1       6.971   6.050  17.315  0.00  0.00    +0.000 C 
ATOM      2  C   UNL     1       7.194   4.529  17.383  0.00  0.00    +0.000 C 
ATOM      3  C   UNL     1       6.912   4.010  15.987  0.00  0.00    +0.000 C 
ATOM      4  C   UNL     1       7.196   5.179  15.074  0.00  0.00    +0.000 C 
ATOM      5  N   UNL     1       7.429   6.352  15.917  0.00  0.00    +0.000 NA
ATOM      6  H   UNL     1       6.882   7.106  15.511  0.00  0.00    +0.000 HD
ENDROOT
BRANCH   1   8
ATOM      7  O   UNL     1       5.046   7.503  16.975  0.00  0.00    +0.000 OA
ATOM      8  C   UNL     1       5.456   6.445  17.471  0.00  0.00    +0.000 C 
ATOM      9  N   UNL     1       4.569   5.570  18.125  0.00  0.00    +0.000 N 
ATOM     10  C   UNL     1       3.141   5.881  18.055  0.00  0.00    +0.000 C 
ATOM     11  C   UNL     1       2.202   4.762  17.605  0.00  0.00    +0.000 C 
ATOM     12  C   UNL     1       2.443   3.307  18.010  0.00  0.00    +0.000 C 
ATOM     13  N   UNL     1       3.123   2.970  19.257  0.00  0.00    +0.000 NA
ATOM     14  C   UNL     1       4.553   3.266  19.183  0.00  0.00    +0.000 C 
ATOM     15  C   UNL     1       4.966   4.734  19.261  0.00  0.00    +0.000 C 
BRANCH  13  16
ATOM     16  C   UNL     1       2.474   3.489  20.464  0.00  0.00    +0.000 C 
ATOM     17  C   UNL     1       1.002   3.015  20.500  0.00  0.00    +0.000 C 
ATOM     18  C   UNL     1       1.229   2.567  21.955  0.00  0.00    +0.000 C 
ATOM     19  C   UNL     1       2.735   2.530  21.658  0.00  0.00    +0.000 C 
ENDBRANCH  13  16
ENDBRANCH   1   8
BRANCH   1  20
ATOM     20  C   UNL     1       7.873   6.735  18.381  0.00  0.00    +0.000 C 
BRANCH  20  21
ATOM     21  C   UNL     1       8.144   8.234  18.351  0.00  0.00    +0.000 A 
ATOM     22  C   UNL     1       7.702   9.115  17.353  0.00  0.00    +0.000 A 
ATOM     23  C   UNL     1       8.099  10.460  17.343  0.00  0.00    +0.000 A 
ATOM     24  C   UNL     1       8.933  10.953  18.339  0.00  0.00    +0.000 A 
ATOM     25  C   UNL     1       9.362  10.097  19.343  0.00  0.00    +0.000 A 
ATOM     26  F   UNL     1      10.165  10.562  20.308  0.00  0.00    +0.000 F 
ATOM     27  C   UNL     1       8.982   8.756  19.353  0.00  0.00    +0.000 A 
ENDBRANCH  20  21
ENDBRANCH   1  20
TORSDOF 4
ENDMDL
MODEL 4
REMARK VINA RESULT:      -7.4      5.839      8.264
REMARK  Name = 
REMARK  4 active torsions:
REMARK  status: ('A' for Active; 'I' for Inactive)
REMARK    1  A    between atoms: C_2  and  C_14
REMARK    2  A    between atoms: N_7  and  C_8
REMARK    3  A    between atoms: C_14  and  C_15
REMARK    4  A    between atoms: C_15  and  C_16
REMARK                            x       y       z     vdW  Elec       q    Type
REMARK                         _______ _______ _______ _____ _____    ______ ____
ROOT
ATOM      1  C   UNL     1       0.544  10.185  18.480  0.00  0.00    +0.000 C 
ATOM      2  C   UNL     1       0.064  11.600  18.846  0.00  0.00    +0.000 C 
ATOM      3  C   UNL     1       1.318  12.446  18.944  0.00  0.00    +0.000 C 
ATOM      4  C   UNL     1       2.318  11.763  18.042  0.00  0.00    +0.000 C 
ATOM      5  N   UNL     1       1.733  10.493  17.616  0.00  0.00    +0.000 NA
ATOM      6  H   UNL     1       2.459   9.791  17.736  0.00  0.00    +0.000 HD
ENDROOT
BRANCH   1   8
ATOM      7  O   UNL     1       0.659   9.729  20.870  0.00  0.00    +0.000 OA
ATOM      8  C   UNL     1       1.004   9.361  19.739  0.00  0.00    +0.000 C 
ATOM      9  N   UNL     1       1.759   8.186  19.567  0.00  0.00    +0.000 N 
ATOM     10  C   UNL     1       1.978   7.346  20.746  0.00  0.00    +0.000 C 
ATOM     11  C   UNL     1       1.645   5.860  20.618  0.00  0.00    +0.000 C 
ATOM     12  C   UNL     1       1.910   5.092  19.323  0.00  0.00    +0.000 C 
ATOM     13  N   UNL     1       2.985   5.483  18.416  0.00  0.00    +0.000 NA
ATOM     14  C   UNL     1       2.662   6.720  17.706  0.00  0.00    +0.000 C 
ATOM     15  C   UNL     1       2.750   8.022  18.499  0.00  0.00    +0.000 C 
BRANCH  13  16
ATOM     16  C   UNL     1       4.322   5.479  19.018  0.00  0.00    +0.000 C 
ATOM     17  C   UNL     1       4.854   4.028  19.073  0.00  0.00    +0.000 C 
ATOM     18  C   UNL     1       6.168   4.535  18.450  0.00  0.00    +0.000 C 
ATOM     19  C   UNL     1       5.393   5.754  17.927  0.00  0.00    +0.000 C 
ENDBRANCH  13  16
ENDBRANCH   1   8
BRANCH   1  20
ATOM     20  C   UNL     1      -0.582   9.467  17.683  0.00  0.00    +0.000 C 
BRANCH  20  21
ATOM     21  C   UNL     1      -1.879  10.179  17.320  0.00  0.00    +0.000 A 
ATOM     22  C   UNL     1      -2.705  10.865  18.223  0.00  0.00    +0.000 A 
ATOM     23  C   UNL     1      -3.942  11.390  17.823  0.00  0.00    +0.000 A 
ATOM     24  C   UNL     1      -4.370  11.253  16.508  0.00  0.00    +0.000 A 
ATOM     25  C   UNL     1      -3.555  10.594  15.600  0.00  0.00    +0.000 A 
ATOM     26  F   UNL     1      -3.958  10.458  14.330  0.00  0.00    +0.000 F 
ATOM     27  C   UNL     1      -2.329  10.059  15.993  0.00  0.00    +0.000 A 
ENDBRANCH  20  21
ENDBRANCH   1  20
TORSDOF 4
ENDMDL
MODEL 5
REMARK VINA RESULT:      -7.1      6.221      8.616
REMARK  Name = 
REMARK  4 active torsions:
REMARK  status: ('A' for Active; 'I' for Inactive)
REMARK    1  A    between atoms: C_2  and  C_14
REMARK    2  A    between atoms: N_7  and  C_8
REMARK    3  A    between atoms: C_14  and  C_15
REMARK    4  A    between atoms: C_15  and  C_16
REMARK                            x       y       z     vdW  Elec       q    Type
REMARK                         _______ _______ _______ _____ _____    ______ ____
ROOT
ATOM      1  C   UNL     1       0.229  10.329  18.650  0.00  0.00    +0.000 C 
ATOM      2  C   UNL     1      -0.525  11.593  19.097  0.00  0.00    +0.000 C 
ATOM      3  C   UNL     1       0.543  12.636  19.362  0.00  0.00    +0.000 C 
ATOM      4  C   UNL     1       1.704  12.233  18.484  0.00  0.00    +0.000 C 
ATOM      5  N   UNL     1       1.390  10.926  17.908  0.00  0.00    +0.000 NA
ATOM      6  H   UNL     1       2.224  10.357  18.023  0.00  0.00    +0.000 HD
ENDROOT
BRANCH   1   8
ATOM      7  O   UNL     1       0.424   9.790  21.018  0.00  0.00    +0.000 OA
ATOM      8  C   UNL     1       0.758   9.481  19.866  0.00  0.00    +0.000 C 
ATOM      9  N   UNL     1       1.563   8.351  19.633  0.00  0.00    +0.000 N 
ATOM     10  C   UNL     1       1.849   7.479  20.774  0.00  0.00    +0.000 C 
ATOM     11  C   UNL     1       1.583   5.984  20.597  0.00  0.00    +0.000 C 
ATOM     12  C   UNL     1       1.851   5.278  19.267  0.00  0.00    +0.000 C 
ATOM     13  N   UNL     1       2.884   5.753  18.351  0.00  0.00    +0.000 NA
ATOM     14  C   UNL     1       2.487   6.999  17.697  0.00  0.00    +0.000 C 
ATOM     15  C   UNL     1       2.533   8.274  18.536  0.00  0.00    +0.000 C 
BRANCH  13  16
ATOM     16  C   UNL     1       4.234   5.791  18.922  0.00  0.00    +0.000 C 
ATOM     17  C   UNL     1       4.722   4.346  19.179  0.00  0.00    +0.000 C 
ATOM     18  C   UNL     1       6.036   4.710  18.463  0.00  0.00    +0.000 C 
ATOM     19  C   UNL     1       5.287   5.866  17.783  0.00  0.00    +0.000 C 
ENDBRANCH  13  16
ENDBRANCH   1   8
BRANCH   1  20
ATOM     20  C   UNL     1      -0.696   9.502  17.712  0.00  0.00    +0.000 C 
BRANCH  20  21
ATOM     21  C   UNL     1      -2.036  10.047  17.233  0.00  0.00    +0.000 A 
ATOM     22  C   UNL     1      -2.287  10.564  15.953  0.00  0.00    +0.000 A 
ATOM     23  C   UNL     1      -3.519  11.154  15.637  0.00  0.00    +0.000 A 
ATOM     24  C   UNL     1      -4.529  11.224  16.589  0.00  0.00    +0.000 A 
ATOM     25  C   UNL     1      -4.301  10.699  17.852  0.00  0.00    +0.000 A 
ATOM     26  F   UNL     1      -5.267  10.760  18.777  0.00  0.00    +0.000 F 
ATOM     27  C   UNL     1      -3.074  10.122  18.179  0.00  0.00    +0.000 A 
ENDBRANCH  20  21
ENDBRANCH   1  20
TORSDOF 4
ENDMDL
MODEL 6
REMARK VINA RESULT:      -7.0      9.833     11.667
REMARK  Name = 
REMARK  4 active torsions:
REMARK  status: ('A' for Active; 'I' for Inactive)
REMARK    1  A    between atoms: C_2  and  C_14
REMARK    2  A    between atoms: N_7  and  C_8
REMARK    3  A    between atoms: C_14  and  C_15
REMARK    4  A    between atoms: C_15  and  C_16
REMARK                            x       y       z     vdW  Elec       q    Type
REMARK                         _______ _______ _______ _____ _____    ______ ____
ROOT
ATOM      1  C   UNL     1      -0.323  11.443  19.553  0.00  0.00    +0.000 C 
ATOM      2  C   UNL     1      -0.564  12.731  18.746  0.00  0.00    +0.000 C 
ATOM      3  C   UNL     1       0.785  13.417  18.657  0.00  0.00    +0.000 C 
ATOM      4  C   UNL     1       1.796  12.301  18.778  0.00  0.00    +0.000 C 
ATOM      5  N   UNL     1       1.068  11.080  19.120  0.00  0.00    +0.000 NA
ATOM      6  H   UNL     1       1.583  10.646  19.881  0.00  0.00    +0.000 HD
ENDROOT
BRANCH   1   8
ATOM      7  O   UNL     1       0.528  11.179  21.820  0.00  0.00    +0.000 OA
ATOM      8  C   UNL     1      -0.344  11.693  21.107  0.00  0.00    +0.000 C 
ATOM      9  N   UNL     1      -1.320  12.538  21.666  0.00  0.00    +0.000 N 
ATOM     10  C   UNL     1      -1.166  12.906  23.075  0.00  0.00    +0.000 C 
ATOM     11  C   UNL     1      -1.234  14.394  23.421  0.00  0.00    +0.000 C 
ATOM     12  C   UNL     1      -2.189  15.340  22.692  0.00  0.00    +0.000 C 
ATOM     13  N   UNL     1      -3.448  14.860  22.129  0.00  0.00    +0.000 NA
ATOM     14  C   UNL     1      -3.224  14.045  20.936  0.00  0.00    +0.000 C 
ATOM     15  C   UNL     1      -2.688  12.631  21.148  0.00  0.00    +0.000 C 
BRANCH  13  16
ATOM     16  C   UNL     1      -4.356  14.246  23.102  0.00  0.00    +0.000 C 
ATOM     17  C   UNL     1      -4.978  15.348  23.990  0.00  0.00    +0.000 C 
ATOM     18  C   UNL     1      -6.360  14.722  23.722  0.00  0.00    +0.000 C 
ATOM     19  C   UNL     1      -5.763  14.063  22.469  0.00  0.00    +0.000 C 
ENDBRANCH  13  16
ENDBRANCH   1   8
BRANCH   1  20
ATOM     20  C   UNL     1      -1.366  10.377  19.112  0.00  0.00    +0.000 C 
BRANCH  20  21
ATOM     21  C   UNL     1      -2.299  10.616  17.932  0.00  0.00    +0.000 A 
ATOM     22  C   UNL     1      -3.548  11.249  18.004  0.00  0.00    +0.000 A 
ATOM     23  C   UNL     1      -4.394  11.320  16.888  0.00  0.00    +0.000 A 
ATOM     24  C   UNL     1      -3.998  10.772  15.672  0.00  0.00    +0.000 A 
ATOM     25  C   UNL     1      -2.757  10.161  15.582  0.00  0.00    +0.000 A 
ATOM     26  F   UNL     1      -2.367   9.631  14.416  0.00  0.00    +0.000 F 
ATOM     27  C   UNL     1      -1.917  10.075  16.690  0.00  0.00    +0.000 A 
ENDBRANCH  20  21
ENDBRANCH   1  20
TORSDOF 4
ENDMDL
MODEL 7
REMARK VINA RESULT:      -6.9     10.105     11.904
REMARK  Name = 
REMARK  4 active torsions:
REMARK  status: ('A' for Active; 'I' for Inactive)
REMARK    1  A    between atoms: C_2  and  C_14
REMARK    2  A    between atoms: N_7  and  C_8
REMARK    3  A    between atoms: C_14  and  C_15
REMARK    4  A    between atoms: C_15  and  C_16
REMARK                            x       y       z     vdW  Elec       q    Type
REMARK                         _______ _______ _______ _____ _____    ______ ____
ROOT
ATOM      1  C   UNL     1      -0.375  11.477  19.576  0.00  0.00    +0.000 C 
ATOM      2  C   UNL     1      -0.638  12.714  18.700  0.00  0.00    +0.000 C 
ATOM      3  C   UNL     1       0.710  13.383  18.520  0.00  0.00    +0.000 C 
ATOM      4  C   UNL     1       1.719  12.270  18.673  0.00  0.00    +0.000 C 
ATOM      5  N   UNL     1       0.997  11.078  19.117  0.00  0.00    +0.000 NA
ATOM      6  H   UNL     1       1.537  10.688  19.884  0.00  0.00    +0.000 HD
ENDROOT
BRANCH   1   8
ATOM      7  O   UNL     1       0.563  11.358  21.821  0.00  0.00    +0.000 OA
ATOM      8  C   UNL     1      -0.339  11.823  21.111  0.00  0.00    +0.000 C 
ATOM      9  N   UNL     1      -1.298  12.698  21.654  0.00  0.00    +0.000 N 
ATOM     10  C   UNL     1      -1.093  13.153  23.030  0.00  0.00    +0.000 C 
ATOM     11  C   UNL     1      -1.157  14.659  23.286  0.00  0.00    +0.000 C 
ATOM     12  C   UNL     1      -2.145  15.555  22.536  0.00  0.00    +0.000 C 
ATOM     13  N   UNL     1      -3.421  15.036  22.052  0.00  0.00    +0.000 NA
ATOM     14  C   UNL     1      -3.237  14.149  20.905  0.00  0.00    +0.000 C 
ATOM     15  C   UNL     1      -2.685  12.753  21.183  0.00  0.00    +0.000 C 
BRANCH  13  16
ATOM     16  C   UNL     1      -4.288  14.479  23.095  0.00  0.00    +0.000 C 
ATOM     17  C   UNL     1      -4.813  15.626  23.991  0.00  0.00    +0.000 C 
ATOM     18  C   UNL     1      -6.230  15.046  23.826  0.00  0.00    +0.000 C 
ATOM     19  C   UNL     1      -5.738  14.335  22.556  0.00  0.00    +0.000 C 
ENDBRANCH  13  16
ENDBRANCH   1   8
BRANCH   1  20
ATOM     20  C   UNL     1      -1.438  10.393  19.240  0.00  0.00    +0.000 C 
BRANCH  20  21
ATOM     21  C   UNL     1      -2.266  10.458  17.963  0.00  0.00    +0.000 A 
ATOM     22  C   UNL     1      -1.907   9.880  16.736  0.00  0.00    +0.000 A 
ATOM     23  C   UNL     1      -2.673  10.092  15.581  0.00  0.00    +0.000 A 
ATOM     24  C   UNL     1      -3.822  10.874  15.633  0.00  0.00    +0.000 A 
ATOM     25  C   UNL     1      -4.198  11.435  16.844  0.00  0.00    +0.000 A 
ATOM     26  F   UNL     1      -5.303  12.189  16.905  0.00  0.00    +0.000 F 
ATOM     27  C   UNL     1      -3.435  11.240  17.994  0.00  0.00    +0.000 A 
ENDBRANCH  20  21
ENDBRANCH   1  20
TORSDOF 4
ENDMDL
MODEL 8
REMARK VINA RESULT:      -6.9      8.708     10.903
REMARK  Name = 
REMARK  4 active torsions:
REMARK  status: ('A' for Active; 'I' for Inactive)
REMARK    1  A    between atoms: C_2  and  C_14
REMARK    2  A    between atoms: N_7  and  C_8
REMARK    3  A    between atoms: C_14  and  C_15
REMARK    4  A    between atoms: C_15  and  C_16
REMARK                            x       y       z     vdW  Elec       q    Type
REMARK                         _______ _______ _______ _____ _____    ______ ____
ROOT
ATOM      1  C   UNL     1      -1.767  11.263  17.997  0.00  0.00    +0.000 C 
ATOM      2  C   UNL     1      -2.085   9.815  17.584  0.00  0.00    +0.000 C 
ATOM      3  C   UNL     1      -3.133   9.920  16.495  0.00  0.00    +0.000 C 
ATOM      4  C   UNL     1      -2.908  11.276  15.870  0.00  0.00    +0.000 C 
ATOM      5  N   UNL     1      -1.924  11.983  16.689  0.00  0.00    +0.000 NA
ATOM      6  H   UNL     1      -2.293  12.919  16.832  0.00  0.00    +0.000 HD
ENDROOT
BRANCH   1   8
ATOM      7  O   UNL     1      -4.009  11.628  18.877  0.00  0.00    +0.000 OA
ATOM      8  C   UNL     1      -2.798  11.832  19.041  0.00  0.00    +0.000 C 
ATOM      9  N   UNL     1      -2.335  12.523  20.176  0.00  0.00    +0.000 N 
ATOM     10  C   UNL     1      -3.314  12.842  21.216  0.00  0.00    +0.000 C 
ATOM     11  C   UNL     1      -2.965  12.446  22.651  0.00  0.00    +0.000 C 
ATOM     12  C   UNL     1      -1.531  12.538  23.178  0.00  0.00    +0.000 C 
ATOM     13  N   UNL     1      -0.590  13.519  22.645  0.00  0.00    +0.000 NA
ATOM     14  C   UNL     1      -0.153  13.162  21.296  0.00  0.00    +0.000 C 
ATOM     15  C   UNL     1      -1.148  13.382  20.159  0.00  0.00    +0.000 C 
BRANCH  13  16
ATOM     16  C   UNL     1      -1.023  14.913  22.775  0.00  0.00    +0.000 C 
ATOM     17  C   UNL     1      -1.144  15.274  24.274  0.00  0.00    +0.000 C 
ATOM     18  C   UNL     1      -0.322  16.545  23.989  0.00  0.00    +0.000 C 
ATOM     19  C   UNL     1       0.210  15.856  22.723  0.00  0.00    +0.000 C 
ENDBRANCH  13  16
ENDBRANCH   1   8
BRANCH   1  20
ATOM     20  C   UNL     1      -0.303  11.323  18.520  0.00  0.00    +0.000 C 
BRANCH  20  21
ATOM     21  C   UNL     1       0.429  10.069  18.981  0.00  0.00    +0.000 A 
ATOM     22  C   UNL     1       0.384   9.538  20.278  0.00  0.00    +0.000 A 
ATOM     23  C   UNL     1       1.185   8.447  20.646  0.00  0.00    +0.000 A 
ATOM     24  C   UNL     1       2.035   7.856  19.718  0.00  0.00    +0.000 A 
ATOM     25  C   UNL     1       2.075   8.360  18.426  0.00  0.00    +0.000 A 
ATOM     26  F   UNL     1       2.890   7.798  17.525  0.00  0.00    +0.000 F 
ATOM     27  C   UNL     1       1.292   9.452  18.057  0.00  0.00    +0.000 A 
ENDBRANCH  20  21
ENDBRANCH   1  20
TORSDOF 4
ENDMDL
MODEL 9
REMARK VINA RESULT:      -6.8      9.032     10.617
REMARK  Name = 
REMARK  4 active torsions:
REMARK  status: ('A' for Active; 'I' for Inactive)
REMARK    1  A    between atoms: C_2  and  C_14
REMARK    2  A    between atoms: N_7  and  C_8
REMARK    3  A    between atoms: C_14  and  C_15
REMARK    4  A    between atoms: C_15  and  C_16
REMARK                            x       y       z     vdW  Elec       q    Type
REMARK                         _______ _______ _______ _____ _____    ______ ____
ROOT
ATOM      1  C   UNL     1       0.417  12.238  19.305  0.00  0.00    +0.000 C 
ATOM      2  C   UNL     1      -0.391  13.333  18.589  0.00  0.00    +0.000 C 
ATOM      3  C   UNL     1       0.440  14.596  18.701  0.00  0.00    +0.000 C 
ATOM      4  C   UNL     1       1.864  14.112  18.834  0.00  0.00    +0.000 C 
ATOM      5  N   UNL     1       1.824  12.659  18.993  0.00  0.00    +0.000 NA
ATOM      6  H   UNL     1       2.448  12.440  19.765  0.00  0.00    +0.000 HD
ENDROOT
BRANCH   1   8
ATOM      7  O   UNL     1       1.139  11.966  21.616  0.00  0.00    +0.000 OA
ATOM      8  C   UNL     1       0.196  12.248  20.863  0.00  0.00    +0.000 C 
ATOM      9  N   UNL     1      -1.052  12.627  21.390  0.00  0.00    +0.000 N 
ATOM     10  C   UNL     1      -1.141  12.825  22.838  0.00  0.00    +0.000 C 
ATOM     11  C   UNL     1      -1.751  14.139  23.328  0.00  0.00    +0.000 C 
ATOM     12  C   UNL     1      -2.921  14.797  22.595  0.00  0.00    +0.000 C 
ATOM     13  N   UNL     1      -3.887  14.003  21.841  0.00  0.00    +0.000 NA
ATOM     14  C   UNL     1      -3.304  13.486  20.604  0.00  0.00    +0.000 C 
ATOM     15  C   UNL     1      -2.324  12.321  20.728  0.00  0.00    +0.000 C 
BRANCH  13  16
ATOM     16  C   UNL     1      -4.591  12.988  22.632  0.00  0.00    +0.000 C 
ATOM     17  C   UNL     1      -5.337  13.675  23.799  0.00  0.00    +0.000 C 
ATOM     18  C   UNL     1      -6.595  12.880  23.403  0.00  0.00    +0.000 C 
ATOM     19  C   UNL     1      -5.983  12.703  22.005  0.00  0.00    +0.000 C 
ENDBRANCH  13  16
ENDBRANCH   1   8
BRANCH   1  20
ATOM     20  C   UNL     1       0.068  10.863  18.668  0.00  0.00    +0.000 C 
BRANCH  20  21
ATOM     21  C   UNL     1       1.023   9.679  18.757  0.00  0.00    +0.000 A 
ATOM     22  C   UNL     1       1.882   9.254  17.733  0.00  0.00    +0.000 A 
ATOM     23  C   UNL     1       2.640   8.081  17.859  0.00  0.00    +0.000 A 
ATOM     24  C   UNL     1       2.565   7.318  19.020  0.00  0.00    +0.000 A 
ATOM     25  C   UNL     1       1.734   7.738  20.048  0.00  0.00    +0.000 A 
ATOM     26  F   UNL     1       1.655   7.011  21.170  0.00  0.00    +0.000 F 
ATOM     27  C   UNL     1       0.968   8.895  19.924  0.00  0.00    +0.000 A 
ENDBRANCH  20  21
ENDBRANCH   1  20
TORSDOF 4
ENDMDL
