MODEL 1
REMARK VINA RESULT:      -8.1      0.000      0.000
REMARK  Name = 
REMARK  9 active torsions:
REMARK  status: ('A' for Active; 'I' for Inactive)
REMARK    1  A    between atoms: C_1  and  O_2
REMARK    2  A    between atoms: O_2  and  C_3
REMARK    3  A    between atoms: C_6  and  C_7
REMARK    4  A    between atoms: C_10  and  S_11
REMARK    5  A    between atoms: S_11  and  C_12
REMARK    6  A    between atoms: C_12  and  C_13
REMARK    7  A    between atoms: N_15  and  N_16
REMARK    8  A    between atoms: C_17  and  C_19
REMARK    9  A    between atoms: C_22  and  C_23
REMARK                            x       y       z     vdW  Elec       q    Type
REMARK                         _______ _______ _______ _____ _____    ______ ____
ROOT
ATOM      1  C   UNL     1       7.566   6.088  18.616  0.00  0.00    +0.000 C 
ENDROOT
BRANCH   1   2
ATOM      2  C   UNL     1       7.931   7.424  17.987  0.00  0.00    +0.000 C 
ATOM      3  O   UNL     1       7.646   7.712  16.822  0.00  0.00    +0.000 OA
ATOM      4  N   UNL     1       8.550   8.326  18.832  0.00  0.00    +0.000 N 
ATOM      5  H   UNL     1       8.893   8.087  19.762  0.00  0.00    +0.000 HD
BRANCH   4   6
ATOM      6  N   UNL     1       8.950   9.565  18.315  0.00  0.00    +0.000 N 
ATOM      7  C   UNL     1       9.472  10.512  19.178  0.00  0.00    +0.000 C 
ATOM      8  O   UNL     1       9.618  10.307  20.380  0.00  0.00    +0.000 OA
ATOM      9  H   UNL     1       8.981   9.645  17.301  0.00  0.00    +0.000 HD
BRANCH   7  10
ATOM     10  C   UNL     1       9.870  11.810  18.564  0.00  0.00    +0.000 A 
ATOM     11  C   UNL     1      11.078  11.948  17.870  0.00  0.00    +0.000 A 
ATOM     12  C   UNL     1      11.416  13.172  17.284  0.00  0.00    +0.000 A 
ATOM     13  C   UNL     1      10.553  14.269  17.378  0.00  0.00    +0.000 A 
ATOM     14  C   UNL     1      10.910  15.581  16.739  0.00  0.00    +0.000 C 
ATOM     15  C   UNL     1       9.340  14.126  18.065  0.00  0.00    +0.000 A 
ATOM     16  C   UNL     1       8.995  12.902  18.648  0.00  0.00    +0.000 A 
ENDBRANCH   7  10
ENDBRANCH   4   6
ENDBRANCH   1   2
BRANCH   1  17
ATOM     17  S   UNL     1       6.749   5.016  17.391  0.00  0.00    +0.000 S 
BRANCH  17  21
ATOM     18  C   UNL     1       3.267   6.366  18.246  0.00  0.00    +0.000 A 
ATOM     19  N   UNL     1       2.925   5.141  17.886  0.00  0.00    +0.000 NA
ATOM     20  N   UNL     1       4.090   4.487  17.533  0.00  0.00    +0.000 NA
ATOM     21  C   UNL     1       5.069   5.351  17.705  0.00  0.00    +0.000 A 
ATOM     22  O   UNL     1       4.621   6.571  18.157  0.00  0.00    +0.000 OA
BRANCH  18  26
ATOM     23  C   UNL     1       0.808   9.668  19.455  0.00  0.00    +0.000 A 
ATOM     24  C   UNL     1       1.245   9.538  18.140  0.00  0.00    +0.000 A 
ATOM     25  C   UNL     1       2.030   8.446  17.761  0.00  0.00    +0.000 A 
ATOM     26  C   UNL     1       2.414   7.467  18.693  0.00  0.00    +0.000 A 
ATOM     27  C   UNL     1       1.972   7.610  20.017  0.00  0.00    +0.000 A 
ATOM     28  C   UNL     1       1.176   8.707  20.395  0.00  0.00    +0.000 A 
BRANCH  23  30
ATOM     29  C   UNL     1       0.217  11.343  21.015  0.00  0.00    +0.000 C 
ATOM     30  O   UNL     1       0.073  10.790  19.713  0.00  0.00    +0.000 OA
ENDBRANCH  23  30
ENDBRANCH  18  26
ENDBRANCH  17  21
ENDBRANCH   1  17
TORSDOF 7
ENDMDL
MODEL 2
REMARK VINA RESULT:      -8.1      0.722      1.464
REMARK  Name = 
REMARK  9 active torsions:
REMARK  status: ('A' for Active; 'I' for Inactive)
REMARK    1  A    between atoms: C_1  and  O_2
REMARK    2  A    between atoms: O_2  and  C_3
REMARK    3  A    between atoms: C_6  and  C_7
REMARK    4  A    between atoms: C_10  and  S_11
REMARK    5  A    between atoms: S_11  and  C_12
REMARK    6  A    between atoms: C_12  and  C_13
REMARK    7  A    between atoms: N_15  and  N_16
REMARK    8  A    between atoms: C_17  and  C_19
REMARK    9  A    between atoms: C_22  and  C_23
REMARK                            x       y       z     vdW  Elec       q    Type
REMARK                         _______ _______ _______ _____ _____    ______ ____
ROOT
ATOM      1  C   UNL     1       7.602   5.976  18.712  0.00  0.00    +0.000 C 
ENDROOT
BRANCH   1   2
ATOM      2  C   UNL     1       7.945   7.314  18.077  0.00  0.00    +0.000 C 
ATOM      3  O   UNL     1       7.615   7.609  16.926  0.00  0.00    +0.000 OA
ATOM      4  N   UNL     1       8.600   8.209  18.902  0.00  0.00    +0.000 N 
ATOM      5  H   UNL     1       8.979   7.964  19.816  0.00  0.00    +0.000 HD
BRANCH   4   6
ATOM      6  N   UNL     1       8.982   9.451  18.377  0.00  0.00    +0.000 N 
ATOM      7  C   UNL     1       9.326  10.468  19.248  0.00  0.00    +0.000 C 
ATOM      8  O   UNL     1       9.329  10.325  20.468  0.00  0.00    +0.000 OA
ATOM      9  H   UNL     1       9.139   9.489  17.372  0.00  0.00    +0.000 HD
BRANCH   7  10
ATOM     10  C   UNL     1       9.716  11.763  18.624  0.00  0.00    +0.000 A 
ATOM     11  C   UNL     1       9.077  12.960  18.968  0.00  0.00    +0.000 A 
ATOM     12  C   UNL     1       9.479  14.165  18.383  0.00  0.00    +0.000 A 
ATOM     13  C   UNL     1      10.524  14.192  17.453  0.00  0.00    +0.000 A 
ATOM     14  C   UNL     1      10.963  15.487  16.833  0.00  0.00    +0.000 C 
ATOM     15  C   UNL     1      11.169  12.994  17.117  0.00  0.00    +0.000 A 
ATOM     16  C   UNL     1      10.774  11.787  17.704  0.00  0.00    +0.000 A 
ENDBRANCH   7  10
ENDBRANCH   4   6
ENDBRANCH   1   2
BRANCH   1  17
ATOM     17  S   UNL     1       6.473   5.036  17.635  0.00  0.00    +0.000 S 
BRANCH  17  21
ATOM     18  C   UNL     1       3.181   6.542  18.889  0.00  0.00    +0.000 A 
ATOM     19  N   UNL     1       3.019   5.307  19.332  0.00  0.00    +0.000 NA
ATOM     20  N   UNL     1       4.144   4.597  18.961  0.00  0.00    +0.000 NA
ATOM     21  C   UNL     1       4.924   5.443  18.318  0.00  0.00    +0.000 A 
ATOM     22  O   UNL     1       4.376   6.702  18.232  0.00  0.00    +0.000 OA
BRANCH  18  26
ATOM     23  C   UNL     1       0.482   9.849  19.328  0.00  0.00    +0.000 A 
ATOM     24  C   UNL     1       0.815   9.041  20.412  0.00  0.00    +0.000 A 
ATOM     25  C   UNL     1       1.711   7.980  20.253  0.00  0.00    +0.000 A 
ATOM     26  C   UNL     1       2.279   7.687  19.002  0.00  0.00    +0.000 A 
ATOM     27  C   UNL     1       1.932   8.505  17.915  0.00  0.00    +0.000 A 
ATOM     28  C   UNL     1       1.036   9.577  18.078  0.00  0.00    +0.000 A 
BRANCH  23  30
ATOM     29  C   UNL     1      -0.770  11.678  18.505  0.00  0.00    +0.000 C 
ATOM     30  O   UNL     1      -0.425  10.835  19.597  0.00  0.00    +0.000 OA
ENDBRANCH  23  30
ENDBRANCH  18  26
ENDBRANCH  17  21
ENDBRANCH   1  17
TORSDOF 7
ENDMDL
MODEL 3
REMARK VINA RESULT:      -8.0      5.759      8.030
REMARK  Name = 
REMARK  9 active torsions:
REMARK  status: ('A' for Active; 'I' for Inactive)
REMARK    1  A    between atoms: C_1  and  O_2
REMARK    2  A    between atoms: O_2  and  C_3
REMARK    3  A    between atoms: C_6  and  C_7
REMARK    4  A    between atoms: C_10  and  S_11
REMARK    5  A    between atoms: S_11  and  C_12
REMARK    6  A    between atoms: C_12  and  C_13
REMARK    7  A    between atoms: N_15  and  N_16
REMARK    8  A    between atoms: C_17  and  C_19
REMARK    9  A    between atoms: C_22  and  C_23
REMARK                            x       y       z     vdW  Elec       q    Type
REMARK                         _______ _______ _______ _____ _____    ______ ____
ROOT
ATOM      1  C   UNL     1       2.497   2.858  21.350  0.00  0.00    +0.000 C 
ENDROOT
BRANCH   1   2
ATOM      2  C   UNL     1       1.818   4.179  21.020  0.00  0.00    +0.000 C 
ATOM      3  O   UNL     1       0.655   4.247  20.617  0.00  0.00    +0.000 OA
ATOM      4  N   UNL     1       2.574   5.309  21.265  0.00  0.00    +0.000 N 
ATOM      5  H   UNL     1       3.567   5.287  21.496  0.00  0.00    +0.000 HD
BRANCH   4   6
ATOM      6  N   UNL     1       2.031   6.562  20.952  0.00  0.00    +0.000 N 
ATOM      7  C   UNL     1       2.307   7.120  19.717  0.00  0.00    +0.000 C 
ATOM      8  O   UNL     1       2.996   6.556  18.872  0.00  0.00    +0.000 OA
ATOM      9  H   UNL     1       1.328   6.925  21.593  0.00  0.00    +0.000 HD
BRANCH   7  10
ATOM     10  C   UNL     1       1.704   8.456  19.452  0.00  0.00    +0.000 A 
ATOM     11  C   UNL     1       1.839   9.084  18.208  0.00  0.00    +0.000 A 
ATOM     12  C   UNL     1       1.243  10.328  17.979  0.00  0.00    +0.000 A 
ATOM     13  C   UNL     1       0.501  10.958  18.985  0.00  0.00    +0.000 A 
ATOM     14  C   UNL     1      -0.149  12.289  18.737  0.00  0.00    +0.000 C 
ATOM     15  C   UNL     1       0.358  10.324  20.226  0.00  0.00    +0.000 A 
ATOM     16  C   UNL     1       0.949   9.077  20.458  0.00  0.00    +0.000 A 
ENDBRANCH   7  10
ENDBRANCH   4   6
ENDBRANCH   1   2
BRANCH   1  17
ATOM     17  S   UNL     1       2.104   1.612  20.080  0.00  0.00    +0.000 S 
BRANCH  17  21
ATOM     18  C   UNL     1       3.665   3.461  17.111  0.00  0.00    +0.000 A 
ATOM     19  N   UNL     1       2.412   3.431  16.692  0.00  0.00    +0.000 NA
ATOM     20  N   UNL     1       1.679   2.781  17.666  0.00  0.00    +0.000 NA
ATOM     21  C   UNL     1       2.529   2.459  18.620  0.00  0.00    +0.000 A 
ATOM     22  O   UNL     1       3.815   2.860  18.336  0.00  0.00    +0.000 OA
BRANCH  18  26
ATOM     23  C   UNL     1       7.079   5.055  15.057  0.00  0.00    +0.000 A 
ATOM     24  C   UNL     1       5.894   4.783  14.381  0.00  0.00    +0.000 A 
ATOM     25  C   UNL     1       4.786   4.281  15.071  0.00  0.00    +0.000 A 
ATOM     26  C   UNL     1       4.844   4.020  16.450  0.00  0.00    +0.000 A 
ATOM     27  C   UNL     1       6.046   4.294  17.121  0.00  0.00    +0.000 A 
ATOM     28  C   UNL     1       7.157   4.806  16.427  0.00  0.00    +0.000 A 
BRANCH  23  30
ATOM     29  C   UNL     1       7.926   5.361  12.872  0.00  0.00    +0.000 C 
ATOM     30  O   UNL     1       8.101   5.514  14.275  0.00  0.00    +0.000 OA
ENDBRANCH  23  30
ENDBRANCH  18  26
ENDBRANCH  17  21
ENDBRANCH   1  17
TORSDOF 7
ENDMDL
MODEL 4
REMARK VINA RESULT:      -7.9      3.205      7.680
REMARK  Name = 
REMARK  9 active torsions:
REMARK  status: ('A' for Active; 'I' for Inactive)
REMARK    1  A    between atoms: C_1  and  O_2
REMARK    2  A    between atoms: O_2  and  C_3
REMARK    3  A    between atoms: C_6  and  C_7
REMARK    4  A    between atoms: C_10  and  S_11
REMARK    5  A    between atoms: S_11  and  C_12
REMARK    6  A    between atoms: C_12  and  C_13
REMARK    7  A    between atoms: N_15  and  N_16
REMARK    8  A    between atoms: C_17  and  C_19
REMARK    9  A    between atoms: C_22  and  C_23
REMARK                            x       y       z     vdW  Elec       q    Type
REMARK                         _______ _______ _______ _____ _____    ______ ____
ROOT
ATOM      1  C   UNL     1       3.052   2.580  20.689  0.00  0.00    +0.000 C 
ENDROOT
BRANCH   1   2
ATOM      2  C   UNL     1       2.250   3.872  20.689  0.00  0.00    +0.000 C 
ATOM      3  O   UNL     1       1.021   3.893  20.596  0.00  0.00    +0.000 OA
ATOM      4  N   UNL     1       2.990   5.026  20.865  0.00  0.00    +0.000 N 
ATOM      5  H   UNL     1       4.009   5.055  20.839  0.00  0.00    +0.000 HD
BRANCH   4   6
ATOM      6  N   UNL     1       2.327   6.260  20.840  0.00  0.00    +0.000 N 
ATOM      7  C   UNL     1       2.196   6.924  19.634  0.00  0.00    +0.000 C 
ATOM      8  O   UNL     1       2.622   6.469  18.575  0.00  0.00    +0.000 OA
ATOM      9  H   UNL     1       1.835   6.529  21.690  0.00  0.00    +0.000 HD
BRANCH   7  10
ATOM     10  C   UNL     1       1.486   8.233  19.679  0.00  0.00    +0.000 A 
ATOM     11  C   UNL     1       0.801   8.652  20.826  0.00  0.00    +0.000 A 
ATOM     12  C   UNL     1       0.164   9.897  20.848  0.00  0.00    +0.000 A 
ATOM     13  C   UNL     1       0.205  10.738  19.731  0.00  0.00    +0.000 A 
ATOM     14  C   UNL     1      -0.470  12.080  19.758  0.00  0.00    +0.000 C 
ATOM     15  C   UNL     1       0.899  10.321  18.588  0.00  0.00    +0.000 A 
ATOM     16  C   UNL     1       1.544   9.080  18.563  0.00  0.00    +0.000 A 
ENDBRANCH   7  10
ENDBRANCH   4   6
ENDBRANCH   1   2
BRANCH   1  17
ATOM     17  S   UNL     1       3.099   1.866  19.013  0.00  0.00    +0.000 S 
BRANCH  17  21
ATOM     18  C   UNL     1       5.148   4.787  17.620  0.00  0.00    +0.000 A 
ATOM     19  N   UNL     1       4.496   4.456  16.519  0.00  0.00    +0.000 NA
ATOM     20  N   UNL     1       3.684   3.386  16.841  0.00  0.00    +0.000 NA
ATOM     21  C   UNL     1       3.886   3.135  18.118  0.00  0.00    +0.000 A 
ATOM     22  O   UNL     1       4.808   3.987  18.682  0.00  0.00    +0.000 OA
BRANCH  18  26
ATOM     23  C   UNL     1       8.094   7.827  18.325  0.00  0.00    +0.000 A 
ATOM     24  C   UNL     1       8.156   6.598  18.976  0.00  0.00    +0.000 A 
ATOM     25  C   UNL     1       7.197   5.614  18.719  0.00  0.00    +0.000 A 
ATOM     26  C   UNL     1       6.142   5.841  17.821  0.00  0.00    +0.000 A 
ATOM     27  C   UNL     1       6.086   7.085  17.173  0.00  0.00    +0.000 A 
ATOM     28  C   UNL     1       7.056   8.072  17.428  0.00  0.00    +0.000 A 
BRANCH  23  30
ATOM     29  C   UNL     1       8.810  10.080  18.351  0.00  0.00    +0.000 C 
ATOM     30  O   UNL     1       9.066   8.720  18.678  0.00  0.00    +0.000 OA
ENDBRANCH  23  30
ENDBRANCH  18  26
ENDBRANCH  17  21
ENDBRANCH   1  17
TORSDOF 7
ENDMDL
MODEL 5
REMARK VINA RESULT:      -7.4      5.847      7.164
REMARK  Name = 
REMARK  9 active torsions:
REMARK  status: ('A' for Active; 'I' for Inactive)
REMARK    1  A    between atoms: C_1  and  O_2
REMARK    2  A    between atoms: O_2  and  C_3
REMARK    3  A    between atoms: C_6  and  C_7
REMARK    4  A    between atoms: C_10  and  S_11
REMARK    5  A    between atoms: S_11  and  C_12
REMARK    6  A    between atoms: C_12  and  C_13
REMARK    7  A    between atoms: N_15  and  N_16
REMARK    8  A    between atoms: C_17  and  C_19
REMARK    9  A    between atoms: C_22  and  C_23
REMARK                            x       y       z     vdW  Elec       q    Type
REMARK                         _______ _______ _______ _____ _____    ______ ____
ROOT
ATOM      1  C   UNL     1       1.071   3.837  19.718  0.00  0.00    +0.000 C 
ENDROOT
BRANCH   1   2
ATOM      2  C   UNL     1       1.772   3.839  18.368  0.00  0.00    +0.000 C 
ATOM      3  O   UNL     1       1.169   4.008  17.305  0.00  0.00    +0.000 OA
ATOM      4  N   UNL     1       3.146   3.701  18.415  0.00  0.00    +0.000 N 
ATOM      5  H   UNL     1       3.662   3.455  19.260  0.00  0.00    +0.000 HD
BRANCH   4   6
ATOM      6  N   UNL     1       3.859   3.656  17.210  0.00  0.00    +0.000 N 
ATOM      7  C   UNL     1       4.681   4.717  16.880  0.00  0.00    +0.000 C 
ATOM      8  O   UNL     1       4.830   5.695  17.608  0.00  0.00    +0.000 OA
ATOM      9  H   UNL     1       3.854   2.768  16.713  0.00  0.00    +0.000 HD
BRANCH   7  10
ATOM     10  C   UNL     1       5.404   4.608  15.581  0.00  0.00    +0.000 A 
ATOM     11  C   UNL     1       6.704   5.104  15.426  0.00  0.00    +0.000 A 
ATOM     12  C   UNL     1       7.367   4.967  14.203  0.00  0.00    +0.000 A 
ATOM     13  C   UNL     1       6.745   4.331  13.122  0.00  0.00    +0.000 A 
ATOM     14  C   UNL     1       7.461   4.174  11.812  0.00  0.00    +0.000 C 
ATOM     15  C   UNL     1       5.448   3.827  13.282  0.00  0.00    +0.000 A 
ATOM     16  C   UNL     1       4.782   3.957  14.506  0.00  0.00    +0.000 A 
ENDBRANCH   7  10
ENDBRANCH   4   6
ENDBRANCH   1   2
BRANCH   1  17
ATOM     17  S   UNL     1       2.122   4.634  20.975  0.00  0.00    +0.000 S 
BRANCH  17  21
ATOM     18  C   UNL     1       1.030   8.303  20.822  0.00  0.00    +0.000 A 
ATOM     19  N   UNL     1       1.880   8.303  19.809  0.00  0.00    +0.000 NA
ATOM     20  N   UNL     1       2.388   7.022  19.712  0.00  0.00    +0.000 NA
ATOM     21  C   UNL     1       1.814   6.319  20.666  0.00  0.00    +0.000 A 
ATOM     22  O   UNL     1       0.936   7.069  21.416  0.00  0.00    +0.000 OA
BRANCH  18  26
ATOM     23  C   UNL     1      -1.259  11.619  22.296  0.00  0.00    +0.000 A 
ATOM     24  C   UNL     1      -0.807  11.584  20.981  0.00  0.00    +0.000 A 
ATOM     25  C   UNL     1      -0.078  10.486  20.514  0.00  0.00    +0.000 A 
ATOM     26  C   UNL     1       0.234   9.406  21.356  0.00  0.00    +0.000 A 
ATOM     27  C   UNL     1      -0.224   9.454  22.682  0.00  0.00    +0.000 A 
ATOM     28  C   UNL     1      -0.963  10.556  23.149  0.00  0.00    +0.000 A 
BRANCH  23  30
ATOM     29  C   UNL     1      -3.336  12.610  22.840  0.00  0.00    +0.000 C 
ATOM     30  O   UNL     1      -1.934  12.754  22.647  0.00  0.00    +0.000 OA
ENDBRANCH  23  30
ENDBRANCH  18  26
ENDBRANCH  17  21
ENDBRANCH   1  17
TORSDOF 7
ENDMDL
MODEL 6
REMARK VINA RESULT:      -7.3      5.581      6.799
REMARK  Name = 
REMARK  9 active torsions:
REMARK  status: ('A' for Active; 'I' for Inactive)
REMARK    1  A    between atoms: C_1  and  O_2
REMARK    2  A    between atoms: O_2  and  C_3
REMARK    3  A    between atoms: C_6  and  C_7
REMARK    4  A    between atoms: C_10  and  S_11
REMARK    5  A    between atoms: S_11  and  C_12
REMARK    6  A    between atoms: C_12  and  C_13
REMARK    7  A    between atoms: N_15  and  N_16
REMARK    8  A    between atoms: C_17  and  C_19
REMARK    9  A    between atoms: C_22  and  C_23
REMARK                            x       y       z     vdW  Elec       q    Type
REMARK                         _______ _______ _______ _____ _____    ______ ____
ROOT
ATOM      1  C   UNL     1       1.010   2.803  19.640  0.00  0.00    +0.000 C 
ENDROOT
BRANCH   1   2
ATOM      2  C   UNL     1       1.735   3.259  18.383  0.00  0.00    +0.000 C 
ATOM      3  O   UNL     1       1.173   3.878  17.477  0.00  0.00    +0.000 OA
ATOM      4  N   UNL     1       3.091   2.989  18.353  0.00  0.00    +0.000 N 
ATOM      5  H   UNL     1       3.564   2.392  19.030  0.00  0.00    +0.000 HD
BRANCH   4   6
ATOM      6  N   UNL     1       3.821   3.346  17.212  0.00  0.00    +0.000 N 
ATOM      7  C   UNL     1       5.128   3.772  17.361  0.00  0.00    +0.000 C 
ATOM      8  O   UNL     1       5.686   3.835  18.453  0.00  0.00    +0.000 OA
ATOM      9  H   UNL     1       3.398   3.120  16.314  0.00  0.00    +0.000 HD
BRANCH   7  10
ATOM     10  C   UNL     1       5.844   4.142  16.108  0.00  0.00    +0.000 A 
ATOM     11  C   UNL     1       5.423   3.669  14.860  0.00  0.00    +0.000 A 
ATOM     12  C   UNL     1       6.100   4.051  13.698  0.00  0.00    +0.000 A 
ATOM     13  C   UNL     1       7.201   4.913  13.766  0.00  0.00    +0.000 A 
ATOM     14  C   UNL     1       7.922   5.333  12.517  0.00  0.00    +0.000 C 
ATOM     15  C   UNL     1       7.615   5.394  15.015  0.00  0.00    +0.000 A 
ATOM     16  C   UNL     1       6.937   5.018  16.180  0.00  0.00    +0.000 A 
ENDBRANCH   7  10
ENDBRANCH   4   6
ENDBRANCH   1   2
BRANCH   1  17
ATOM     17  S   UNL     1       1.761   3.565  21.114  0.00  0.00    +0.000 S 
BRANCH  17  21
ATOM     18  C   UNL     1       1.874   7.278  20.183  0.00  0.00    +0.000 A 
ATOM     19  N   UNL     1       3.001   6.893  19.610  0.00  0.00    +0.000 NA
ATOM     20  N   UNL     1       3.130   5.539  19.850  0.00  0.00    +0.000 NA
ATOM     21  C   UNL     1       2.073   5.181  20.549  0.00  0.00    +0.000 A 
ATOM     22  O   UNL     1       1.227   6.237  20.800  0.00  0.00    +0.000 OA
BRANCH  18  26
ATOM     23  C   UNL     1       0.062  11.159  20.457  0.00  0.00    +0.000 A 
ATOM     24  C   UNL     1       0.199  10.346  21.579  0.00  0.00    +0.000 A 
ATOM     25  C   UNL     1       0.808   9.093  21.473  0.00  0.00    +0.000 A 
ATOM     26  C   UNL     1       1.278   8.613  20.239  0.00  0.00    +0.000 A 
ATOM     27  C   UNL     1       1.131   9.438  19.113  0.00  0.00    +0.000 A 
ATOM     28  C   UNL     1       0.524  10.703  19.223  0.00  0.00    +0.000 A 
BRANCH  23  30
ATOM     29  C   UNL     1       0.253  13.503  20.695  0.00  0.00    +0.000 C 
ATOM     30  O   UNL     1      -0.575  12.347  20.676  0.00  0.00    +0.000 OA
ENDBRANCH  23  30
ENDBRANCH  18  26
ENDBRANCH  17  21
ENDBRANCH   1  17
TORSDOF 7
ENDMDL
MODEL 7
REMARK VINA RESULT:      -7.3      3.851      7.848
REMARK  Name = 
REMARK  9 active torsions:
REMARK  status: ('A' for Active; 'I' for Inactive)
REMARK    1  A    between atoms: C_1  and  O_2
REMARK    2  A    between atoms: O_2  and  C_3
REMARK    3  A    between atoms: C_6  and  C_7
REMARK    4  A    between atoms: C_10  and  S_11
REMARK    5  A    between atoms: S_11  and  C_12
REMARK    6  A    between atoms: C_12  and  C_13
REMARK    7  A    between atoms: N_15  and  N_16
REMARK    8  A    between atoms: C_17  and  C_19
REMARK    9  A    between atoms: C_22  and  C_23
REMARK                            x       y       z     vdW  Elec       q    Type
REMARK                         _______ _______ _______ _____ _____    ______ ____
ROOT
ATOM      1  C   UNL     1       2.269   3.603  21.722  0.00  0.00    +0.000 C 
ENDROOT
BRANCH   1   2
ATOM      2  C   UNL     1       1.572   4.727  20.971  0.00  0.00    +0.000 C 
ATOM      3  O   UNL     1       0.526   4.558  20.340  0.00  0.00    +0.000 OA
ATOM      4  N   UNL     1       2.159   5.972  21.095  0.00  0.00    +0.000 N 
ATOM      5  H   UNL     1       3.074   6.128  21.516  0.00  0.00    +0.000 HD
BRANCH   4   6
ATOM      6  N   UNL     1       1.596   7.051  20.401  0.00  0.00    +0.000 N 
ATOM      7  C   UNL     1       1.340   8.225  21.085  0.00  0.00    +0.000 C 
ATOM      8  O   UNL     1       1.603   8.371  22.276  0.00  0.00    +0.000 OA
ATOM      9  H   UNL     1       1.551   6.965  19.387  0.00  0.00    +0.000 HD
BRANCH   7  10
ATOM     10  C   UNL     1       0.735   9.330  20.289  0.00  0.00    +0.000 A 
ATOM     11  C   UNL     1      -0.226  10.185  20.841  0.00  0.00    +0.000 A 
ATOM     12  C   UNL     1      -0.760  11.228  20.078  0.00  0.00    +0.000 A 
ATOM     13  C   UNL     1      -0.340  11.434  18.760  0.00  0.00    +0.000 A 
ATOM     14  C   UNL     1      -0.905  12.561  17.943  0.00  0.00    +0.000 C 
ATOM     15  C   UNL     1       0.629  10.583  18.212  0.00  0.00    +0.000 A 
ATOM     16  C   UNL     1       1.171   9.542  18.973  0.00  0.00    +0.000 A 
ENDBRANCH   7  10
ENDBRANCH   4   6
ENDBRANCH   1   2
BRANCH   1  17
ATOM     17  S   UNL     1       2.377   2.115  20.676  0.00  0.00    +0.000 S 
BRANCH  17  21
ATOM     18  C   UNL     1       4.557   3.921  18.095  0.00  0.00    +0.000 A 
ATOM     19  N   UNL     1       4.137   2.921  17.339  0.00  0.00    +0.000 NA
ATOM     20  N   UNL     1       3.313   2.141  18.128  0.00  0.00    +0.000 NA
ATOM     21  C   UNL     1       3.278   2.715  19.312  0.00  0.00    +0.000 A 
ATOM     22  O   UNL     1       4.047   3.855  19.368  0.00  0.00    +0.000 OA
BRANCH  18  26
ATOM     23  C   UNL     1       7.242   7.150  17.213  0.00  0.00    +0.000 A 
ATOM     24  C   UNL     1       7.428   6.342  18.331  0.00  0.00    +0.000 A 
ATOM     25  C   UNL     1       6.554   5.283  18.591  0.00  0.00    +0.000 A 
ATOM     26  C   UNL     1       5.459   5.019  17.752  0.00  0.00    +0.000 A 
ATOM     27  C   UNL     1       5.277   5.844  16.630  0.00  0.00    +0.000 A 
ATOM     28  C   UNL     1       6.162   6.904  16.366  0.00  0.00    +0.000 A 
BRANCH  23  30
ATOM     29  C   UNL     1       8.261   9.044  18.194  0.00  0.00    +0.000 C 
ATOM     30  O   UNL     1       8.141   8.169  17.079  0.00  0.00    +0.000 OA
ENDBRANCH  23  30
ENDBRANCH  18  26
ENDBRANCH  17  21
ENDBRANCH   1  17
TORSDOF 7
ENDMDL
MODEL 8
REMARK VINA RESULT:      -7.2      6.181      8.340
REMARK  Name = 
REMARK  9 active torsions:
REMARK  status: ('A' for Active; 'I' for Inactive)
REMARK    1  A    between atoms: C_1  and  O_2
REMARK    2  A    between atoms: O_2  and  C_3
REMARK    3  A    between atoms: C_6  and  C_7
REMARK    4  A    between atoms: C_10  and  S_11
REMARK    5  A    between atoms: S_11  and  C_12
REMARK    6  A    between atoms: C_12  and  C_13
REMARK    7  A    between atoms: N_15  and  N_16
REMARK    8  A    between atoms: C_17  and  C_19
REMARK    9  A    between atoms: C_22  and  C_23
REMARK                            x       y       z     vdW  Elec       q    Type
REMARK                         _______ _______ _______ _____ _____    ______ ____
ROOT
ATOM      1  C   UNL     1      -0.394   9.650  23.070  0.00  0.00    +0.000 C 
ENDROOT
BRANCH   1   2
ATOM      2  C   UNL     1       0.797   9.245  22.214  0.00  0.00    +0.000 C 
ATOM      3  O   UNL     1       1.963   9.441  22.562  0.00  0.00    +0.000 OA
ATOM      4  N   UNL     1       0.484   8.581  21.043  0.00  0.00    +0.000 N 
ATOM      5  H   UNL     1      -0.463   8.496  20.676  0.00  0.00    +0.000 HD
BRANCH   4   6
ATOM      6  N   UNL     1       1.526   8.208  20.184  0.00  0.00    +0.000 N 
ATOM      7  C   UNL     1       1.943   6.890  20.171  0.00  0.00    +0.000 C 
ATOM      8  O   UNL     1       1.426   6.023  20.871  0.00  0.00    +0.000 OA
ATOM      9  H   UNL     1       1.816   8.900  19.495  0.00  0.00    +0.000 HD
BRANCH   7  10
ATOM     10  C   UNL     1       3.059   6.564  19.240  0.00  0.00    +0.000 A 
ATOM     11  C   UNL     1       3.979   5.549  19.530  0.00  0.00    +0.000 A 
ATOM     12  C   UNL     1       5.003   5.249  18.627  0.00  0.00    +0.000 A 
ATOM     13  C   UNL     1       5.120   5.952  17.423  0.00  0.00    +0.000 A 
ATOM     14  C   UNL     1       6.212   5.622  16.447  0.00  0.00    +0.000 C 
ATOM     15  C   UNL     1       4.192   6.960  17.129  0.00  0.00    +0.000 A 
ATOM     16  C   UNL     1       3.162   7.260  18.027  0.00  0.00    +0.000 A 
ENDBRANCH   7  10
ENDBRANCH   4   6
ENDBRANCH   1   2
BRANCH   1  17
ATOM     17  S   UNL     1      -0.799  11.405  22.798  0.00  0.00    +0.000 S 
BRANCH  17  21
ATOM     18  C   UNL     1      -1.290  11.327  19.000  0.00  0.00    +0.000 A 
ATOM     19  N   UNL     1      -0.118  11.936  19.038  0.00  0.00    +0.000 NA
ATOM     20  N   UNL     1       0.228  12.054  20.370  0.00  0.00    +0.000 NA
ATOM     21  C   UNL     1      -0.750  11.507  21.061  0.00  0.00    +0.000 A 
ATOM     22  O   UNL     1      -1.755  11.021  20.255  0.00  0.00    +0.000 OA
BRANCH  18  26
ATOM     23  C   UNL     1      -3.580  10.226  15.541  0.00  0.00    +0.000 A 
ATOM     24  C   UNL     1      -2.425   9.534  15.891  0.00  0.00    +0.000 A 
ATOM     25  C   UNL     1      -1.702   9.895  17.032  0.00  0.00    +0.000 A 
ATOM     26  C   UNL     1      -2.106  10.972  17.839  0.00  0.00    +0.000 A 
ATOM     27  C   UNL     1      -3.271  11.666  17.475  0.00  0.00    +0.000 A 
ATOM     28  C   UNL     1      -4.000  11.296  16.330  0.00  0.00    +0.000 A 
BRANCH  23  30
ATOM     29  C   UNL     1      -3.427   9.954  13.198  0.00  0.00    +0.000 C 
ATOM     30  O   UNL     1      -4.184   9.802  14.392  0.00  0.00    +0.000 OA
ENDBRANCH  23  30
ENDBRANCH  18  26
ENDBRANCH  17  21
ENDBRANCH   1  17
TORSDOF 7
ENDMDL
MODEL 9
REMARK VINA RESULT:      -7.2      1.393      1.804
REMARK  Name = 
REMARK  9 active torsions:
REMARK  status: ('A' for Active; 'I' for Inactive)
REMARK    1  A    between atoms: C_1  and  O_2
REMARK    2  A    between atoms: O_2  and  C_3
REMARK    3  A    between atoms: C_6  and  C_7
REMARK    4  A    between atoms: C_10  and  S_11
REMARK    5  A    between atoms: S_11  and  C_12
REMARK    6  A    between atoms: C_12  and  C_13
REMARK    7  A    between atoms: N_15  and  N_16
REMARK    8  A    between atoms: C_17  and  C_19
REMARK    9  A    between atoms: C_22  and  C_23
REMARK                            x       y       z     vdW  Elec       q    Type
REMARK                         _______ _______ _______ _____ _____    ______ ____
ROOT
ATOM      1  C   UNL     1       6.883   4.700  17.047  0.00  0.00    +0.000 C 
ENDROOT
BRANCH   1   2
ATOM      2  C   UNL     1       7.348   6.115  16.736  0.00  0.00    +0.000 C 
ATOM      3  O   UNL     1       7.858   6.426  15.658  0.00  0.00    +0.000 OA
ATOM      4  N   UNL     1       7.101   7.049  17.725  0.00  0.00    +0.000 N 
ATOM      5  H   UNL     1       6.780   6.809  18.663  0.00  0.00    +0.000 HD
BRANCH   4   6
ATOM      6  N   UNL     1       7.533   8.366  17.527  0.00  0.00    +0.000 N 
ATOM      7  C   UNL     1       8.466   8.902  18.396  0.00  0.00    +0.000 C 
ATOM      8  O   UNL     1       8.948   8.263  19.328  0.00  0.00    +0.000 OA
ATOM      9  H   UNL     1       7.253   8.810  16.654  0.00  0.00    +0.000 HD
BRANCH   7  10
ATOM     10  C   UNL     1       8.876  10.309  18.133  0.00  0.00    +0.000 A 
ATOM     11  C   UNL     1      10.203  10.725  18.297  0.00  0.00    +0.000 A 
ATOM     12  C   UNL     1      10.565  12.047  18.021  0.00  0.00    +0.000 A 
ATOM     13  C   UNL     1       9.611  12.968  17.573  0.00  0.00    +0.000 A 
ATOM     14  C   UNL     1      10.001  14.385  17.265  0.00  0.00    +0.000 C 
ATOM     15  C   UNL     1       8.286  12.548  17.400  0.00  0.00    +0.000 A 
ATOM     16  C   UNL     1       7.920  11.224  17.670  0.00  0.00    +0.000 A 
ENDBRANCH   7  10
ENDBRANCH   4   6
ENDBRANCH   1   2
BRANCH   1  17
ATOM     17  S   UNL     1       5.485   4.245  15.972  0.00  0.00    +0.000 S 
BRANCH  17  21
ATOM     18  C   UNL     1       2.770   5.934  18.080  0.00  0.00    +0.000 A 
ATOM     19  N   UNL     1       2.285   4.704  18.076  0.00  0.00    +0.000 NA
ATOM     20  N   UNL     1       3.160   3.931  17.338  0.00  0.00    +0.000 NA
ATOM     21  C   UNL     1       4.127   4.734  16.944  0.00  0.00    +0.000 A 
ATOM     22  O   UNL     1       3.946   6.028  17.378  0.00  0.00    +0.000 OA
BRANCH  18  26
ATOM     23  C   UNL     1       1.108   9.392  20.003  0.00  0.00    +0.000 A 
ATOM     24  C   UNL     1       1.313   8.207  20.703  0.00  0.00    +0.000 A 
ATOM     25  C   UNL     1       1.873   7.097  20.064  0.00  0.00    +0.000 A 
ATOM     26  C   UNL     1       2.222   7.138  18.704  0.00  0.00    +0.000 A 
ATOM     27  C   UNL     1       2.007   8.337  18.006  0.00  0.00    +0.000 A 
ATOM     28  C   UNL     1       1.450   9.455  18.653  0.00  0.00    +0.000 A 
BRANCH  23  30
ATOM     29  C   UNL     1       0.369  10.154  22.115  0.00  0.00    +0.000 C 
ATOM     30  O   UNL     1       0.529  10.398  20.723  0.00  0.00    +0.000 OA
ENDBRANCH  23  30
ENDBRANCH  18  26
ENDBRANCH  17  21
ENDBRANCH   1  17
TORSDOF 7
ENDMDL
