MODEL 1
REMARK VINA RESULT:      -8.3      0.000      0.000
REMARK  Name = 
REMARK  5 active torsions:
REMARK  status: ('A' for Active; 'I' for Inactive)
REMARK    1  A    between atoms: C_1  and  C_2
REMARK    2  A    between atoms: C_2  and  C_3
REMARK    3  A    between atoms: C_8  and  C_9
REMARK    4  A    between atoms: C_12  and  S_13
REMARK    5  A    between atoms: S_13  and  N_16
REMARK                            x       y       z     vdW  Elec       q    Type
REMARK                         _______ _______ _______ _____ _____    ______ ____
ROOT
ATOM      1  C   UNL     1       1.182   9.439  18.967  0.00  0.00    +0.000 A 
ATOM      2  C   UNL     1       1.910   8.811  17.946  0.00  0.00    +0.000 A 
ATOM      3  C   UNL     1       2.569   7.594  18.182  0.00  0.00    +0.000 A 
ATOM      4  C   UNL     1       2.495   6.990  19.443  0.00  0.00    +0.000 A 
ATOM      5  C   UNL     1       1.756   7.594  20.458  0.00  0.00    +0.000 A 
ATOM      6  C   UNL     1       1.127   8.821  20.227  0.00  0.00    +0.000 A 
ENDROOT
BRANCH   1  12
ATOM      7  C   UNL     1      -3.649  11.149  17.543  0.00  0.00    +0.000 C 
ATOM      8  O   UNL     1      -3.573   9.962  17.836  0.00  0.00    +0.000 OA
ATOM      9  N   UNL     1      -2.653  12.096  17.678  0.00  0.00    +0.000 N 
ATOM     10  C   UNL     1      -1.405  11.756  18.122  0.00  0.00    +0.000 A 
ATOM     11  N   UNL     1      -0.904  10.566  18.309  0.00  0.00    +0.000 NA
ATOM     12  C   UNL     1       0.404  10.657  18.754  0.00  0.00    +0.000 A 
ATOM     13  C   UNL     1       0.848  11.951  18.950  0.00  0.00    +0.000 A 
ATOM     14  S   UNL     1      -0.373  13.067  18.466  0.00  0.00    +0.000 S 
ATOM     15  H   UNL     1      -2.836  13.074  17.517  0.00  0.00    +0.000 HD
BRANCH   7  17
ATOM     16  C   UNL     1      -6.122  11.487  17.880  0.00  0.00    +0.000 C 
ATOM     17  C   UNL     1      -4.926  11.749  16.978  0.00  0.00    +0.000 C 
ENDBRANCH   7  17
ENDBRANCH   1  12
BRANCH   4  18
ATOM     18  S   UNL     1       3.191   5.363  19.701  0.00  0.00    +0.000 S 
ATOM     19  O   UNL     1       4.620   5.495  19.529  0.00  0.00    +0.000 OA
ATOM     20  O   UNL     1       2.635   4.849  20.938  0.00  0.00    +0.000 OA
BRANCH  18  21
ATOM     21  N   UNL     1       2.601   4.405  18.448  0.00  0.00    +0.000 NA
ATOM     22  C   UNL     1       1.276   3.775  18.537  0.00  0.00    +0.000 C 
ATOM     23  C   UNL     1       1.582   2.292  18.593  0.00  0.00    +0.000 C 
ATOM     24  C   UNL     1       2.808   2.137  17.709  0.00  0.00    +0.000 C 
ATOM     25  C   UNL     1       3.515   3.490  17.741  0.00  0.00    +0.000 C 
ENDBRANCH  18  21
ENDBRANCH   4  18
TORSDOF 4
ENDMDL
MODEL 2
REMARK VINA RESULT:      -8.2      2.997      3.469
REMARK  Name = 
REMARK  5 active torsions:
REMARK  status: ('A' for Active; 'I' for Inactive)
REMARK    1  A    between atoms: C_1  and  C_2
REMARK    2  A    between atoms: C_2  and  C_3
REMARK    3  A    between atoms: C_8  and  C_9
REMARK    4  A    between atoms: C_12  and  S_13
REMARK    5  A    between atoms: S_13  and  N_16
REMARK                            x       y       z     vdW  Elec       q    Type
REMARK                         _______ _______ _______ _____ _____    ______ ____
ROOT
ATOM      1  C   UNL     1       2.260   7.979  18.815  0.00  0.00    +0.000 A 
ATOM      2  C   UNL     1       3.083   7.826  17.690  0.00  0.00    +0.000 A 
ATOM      3  C   UNL     1       3.924   6.709  17.566  0.00  0.00    +0.000 A 
ATOM      4  C   UNL     1       3.939   5.728  18.565  0.00  0.00    +0.000 A 
ATOM      5  C   UNL     1       3.107   5.859  19.676  0.00  0.00    +0.000 A 
ATOM      6  C   UNL     1       2.295   6.988  19.809  0.00  0.00    +0.000 A 
ENDROOT
BRANCH   1  12
ATOM      7  C   UNL     1      -0.498  10.719  22.446  0.00  0.00    +0.000 C 
ATOM      8  O   UNL     1       0.417  10.033  22.884  0.00  0.00    +0.000 OA
ATOM      9  N   UNL     1      -0.787  10.954  21.116  0.00  0.00    +0.000 N 
ATOM     10  C   UNL     1      -0.070  10.357  20.117  0.00  0.00    +0.000 A 
ATOM     11  N   UNL     1       0.815   9.404  20.209  0.00  0.00    +0.000 NA
ATOM     12  C   UNL     1       1.300   9.072  18.955  0.00  0.00    +0.000 A 
ATOM     13  C   UNL     1       0.793   9.846  17.927  0.00  0.00    +0.000 A 
ATOM     14  S   UNL     1      -0.388  10.937  18.547  0.00  0.00    +0.000 S 
ATOM     15  H   UNL     1      -1.492  11.623  20.845  0.00  0.00    +0.000 HD
BRANCH   7  17
ATOM     16  C   UNL     1      -1.524  12.932  23.075  0.00  0.00    +0.000 C 
ATOM     17  C   UNL     1      -1.464  11.441  23.370  0.00  0.00    +0.000 C 
ENDBRANCH   7  17
ENDBRANCH   1  12
BRANCH   4  18
ATOM     18  S   UNL     1       4.881   4.227  18.334  0.00  0.00    +0.000 S 
ATOM     19  O   UNL     1       5.603   4.381  17.092  0.00  0.00    +0.000 OA
ATOM     20  O   UNL     1       5.583   3.965  19.575  0.00  0.00    +0.000 OA
BRANCH  18  21
ATOM     21  N   UNL     1       3.747   2.998  18.129  0.00  0.00    +0.000 NA
ATOM     22  C   UNL     1       2.571   3.190  17.269  0.00  0.00    +0.000 C 
ATOM     23  C   UNL     1       1.404   3.152  18.236  0.00  0.00    +0.000 C 
ATOM     24  C   UNL     1       1.835   2.145  19.290  0.00  0.00    +0.000 C 
ATOM     25  C   UNL     1       3.362   2.166  19.282  0.00  0.00    +0.000 C 
ENDBRANCH  18  21
ENDBRANCH   4  18
TORSDOF 4
ENDMDL
MODEL 3
REMARK VINA RESULT:      -8.0      2.802      8.396
REMARK  Name = 
REMARK  5 active torsions:
REMARK  status: ('A' for Active; 'I' for Inactive)
REMARK    1  A    between atoms: C_1  and  C_2
REMARK    2  A    between atoms: C_2  and  C_3
REMARK    3  A    between atoms: C_8  and  C_9
REMARK    4  A    between atoms: C_12  and  S_13
REMARK    5  A    between atoms: S_13  and  N_16
REMARK                            x       y       z     vdW  Elec       q    Type
REMARK                         _______ _______ _______ _____ _____    ______ ____
ROOT
ATOM      1  C   UNL     1       2.533   7.357  18.741  0.00  0.00    +0.000 A 
ATOM      2  C   UNL     1       2.358   8.321  17.738  0.00  0.00    +0.000 A 
ATOM      3  C   UNL     1       1.623   9.491  17.990  0.00  0.00    +0.000 A 
ATOM      4  C   UNL     1       1.066   9.709  19.255  0.00  0.00    +0.000 A 
ATOM      5  C   UNL     1       1.254   8.769  20.266  0.00  0.00    +0.000 A 
ATOM      6  C   UNL     1       1.961   7.592  20.001  0.00  0.00    +0.000 A 
ENDROOT
BRANCH   1  12
ATOM      7  C   UNL     1       5.799   4.984  15.278  0.00  0.00    +0.000 C 
ATOM      8  O   UNL     1       5.548   6.161  15.047  0.00  0.00    +0.000 OA
ATOM      9  N   UNL     1       5.436   4.270  16.402  0.00  0.00    +0.000 N 
ATOM     10  C   UNL     1       4.668   4.832  17.384  0.00  0.00    +0.000 A 
ATOM     11  N   UNL     1       4.039   5.974  17.371  0.00  0.00    +0.000 NA
ATOM     12  C   UNL     1       3.362   6.167  18.563  0.00  0.00    +0.000 A 
ATOM     13  C   UNL     1       3.552   5.162  19.493  0.00  0.00    +0.000 A 
ATOM     14  S   UNL     1       4.516   3.908  18.807  0.00  0.00    +0.000 S 
ATOM     15  H   UNL     1       5.780   3.336  16.562  0.00  0.00    +0.000 HD
BRANCH   7  17
ATOM     16  C   UNL     1       5.759   3.705  13.108  0.00  0.00    +0.000 C 
ATOM     17  C   UNL     1       6.596   4.135  14.302  0.00  0.00    +0.000 C 
ENDBRANCH   7  17
ENDBRANCH   1  12
BRANCH   4  18
ATOM     18  S   UNL     1       0.274  11.268  19.630  0.00  0.00    +0.000 S 
ATOM     19  O   UNL     1       0.136  11.324  21.067  0.00  0.00    +0.000 OA
ATOM     20  O   UNL     1       0.994  12.300  18.910  0.00  0.00    +0.000 OA
BRANCH  18  21
ATOM     21  N   UNL     1      -1.270  11.173  18.961  0.00  0.00    +0.000 NA
ATOM     22  C   UNL     1      -1.875   9.874  18.637  0.00  0.00    +0.000 C 
ATOM     23  C   UNL     1      -1.980   9.889  17.125  0.00  0.00    +0.000 C 
ATOM     24  C   UNL     1      -2.270  11.344  16.793  0.00  0.00    +0.000 C 
ATOM     25  C   UNL     1      -1.681  12.157  17.944  0.00  0.00    +0.000 C 
ENDBRANCH  18  21
ENDBRANCH   4  18
TORSDOF 4
ENDMDL
MODEL 4
REMARK VINA RESULT:      -7.9      2.671      8.510
REMARK  Name = 
REMARK  5 active torsions:
REMARK  status: ('A' for Active; 'I' for Inactive)
REMARK    1  A    between atoms: C_1  and  C_2
REMARK    2  A    between atoms: C_2  and  C_3
REMARK    3  A    between atoms: C_8  and  C_9
REMARK    4  A    between atoms: C_12  and  S_13
REMARK    5  A    between atoms: S_13  and  N_16
REMARK                            x       y       z     vdW  Elec       q    Type
REMARK                         _______ _______ _______ _____ _____    ______ ____
ROOT
ATOM      1  C   UNL     1       2.586   7.412  18.872  0.00  0.00    +0.000 A 
ATOM      2  C   UNL     1       1.876   7.649  20.059  0.00  0.00    +0.000 A 
ATOM      3  C   UNL     1       1.114   8.818  20.215  0.00  0.00    +0.000 A 
ATOM      4  C   UNL     1       1.048   9.756  19.177  0.00  0.00    +0.000 A 
ATOM      5  C   UNL     1       1.731   9.518  17.986  0.00  0.00    +0.000 A 
ATOM      6  C   UNL     1       2.513   8.368  17.847  0.00  0.00    +0.000 A 
ENDROOT
BRANCH   1  12
ATOM      7  C   UNL     1       5.725   5.038  15.295  0.00  0.00    +0.000 C 
ATOM      8  O   UNL     1       5.576   6.245  15.148  0.00  0.00    +0.000 OA
ATOM      9  N   UNL     1       5.281   4.276  16.357  0.00  0.00    +0.000 N 
ATOM     10  C   UNL     1       4.540   4.826  17.366  0.00  0.00    +0.000 A 
ATOM     11  N   UNL     1       4.005   6.014  17.427  0.00  0.00    +0.000 NA
ATOM     12  C   UNL     1       3.320   6.174  18.620  0.00  0.00    +0.000 A 
ATOM     13  C   UNL     1       3.407   5.091  19.475  0.00  0.00    +0.000 A 
ATOM     14  S   UNL     1       4.283   3.816  18.714  0.00  0.00    +0.000 S 
ATOM     15  H   UNL     1       5.545   3.307  16.452  0.00  0.00    +0.000 HD
BRANCH   7  17
ATOM     16  C   UNL     1       5.573   3.769  13.124  0.00  0.00    +0.000 C 
ATOM     17  C   UNL     1       6.474   4.200  14.272  0.00  0.00    +0.000 C 
ENDBRANCH   7  17
ENDBRANCH   1  12
BRANCH   4  18
ATOM     18  S   UNL     1      -0.050  11.161  19.306  0.00  0.00    +0.000 S 
ATOM     19  O   UNL     1      -0.188  11.447  20.716  0.00  0.00    +0.000 OA
ATOM     20  O   UNL     1       0.435  12.170  18.385  0.00  0.00    +0.000 OA
BRANCH  18  21
ATOM     21  N   UNL     1      -1.544  10.633  18.733  0.00  0.00    +0.000 NA
ATOM     22  C   UNL     1      -1.652   9.914  17.456  0.00  0.00    +0.000 C 
ATOM     23  C   UNL     1      -2.432  10.864  16.569  0.00  0.00    +0.000 C 
ATOM     24  C   UNL     1      -3.396  11.548  17.524  0.00  0.00    +0.000 C 
ATOM     25  C   UNL     1      -2.729  11.493  18.896  0.00  0.00    +0.000 C 
ENDBRANCH  18  21
ENDBRANCH   4  18
TORSDOF 4
ENDMDL
MODEL 5
REMARK VINA RESULT:      -7.9      2.901      3.445
REMARK  Name = 
REMARK  5 active torsions:
REMARK  status: ('A' for Active; 'I' for Inactive)
REMARK    1  A    between atoms: C_1  and  C_2
REMARK    2  A    between atoms: C_2  and  C_3
REMARK    3  A    between atoms: C_8  and  C_9
REMARK    4  A    between atoms: C_12  and  S_13
REMARK    5  A    between atoms: S_13  and  N_16
REMARK                            x       y       z     vdW  Elec       q    Type
REMARK                         _______ _______ _______ _____ _____    ______ ____
ROOT
ATOM      1  C   UNL     1       2.177   7.994  18.977  0.00  0.00    +0.000 A 
ATOM      2  C   UNL     1       2.203   6.990  19.956  0.00  0.00    +0.000 A 
ATOM      3  C   UNL     1       2.926   5.804  19.746  0.00  0.00    +0.000 A 
ATOM      4  C   UNL     1       3.638   5.619  18.555  0.00  0.00    +0.000 A 
ATOM      5  C   UNL     1       3.637   6.621  17.585  0.00  0.00    +0.000 A 
ATOM      6  C   UNL     1       2.892   7.785  17.787  0.00  0.00    +0.000 A 
ENDROOT
BRANCH   1  12
ATOM      7  C   UNL     1      -0.785  10.706  22.464  0.00  0.00    +0.000 C 
ATOM      8  O   UNL     1      -0.242   9.700  22.903  0.00  0.00    +0.000 OA
ATOM      9  N   UNL     1      -0.595  11.268  21.218  0.00  0.00    +0.000 N 
ATOM     10  C   UNL     1       0.220  10.681  20.290  0.00  0.00    +0.000 A 
ATOM     11  N   UNL     1       0.776   9.502  20.326  0.00  0.00    +0.000 NA
ATOM     12  C   UNL     1       1.518   9.282  19.178  0.00  0.00    +0.000 A 
ATOM     13  C   UNL     1       1.549  10.356  18.308  0.00  0.00    +0.000 A 
ATOM     14  S   UNL     1       0.541  11.620  18.905  0.00  0.00    +0.000 S 
ATOM     15  H   UNL     1      -0.999  12.161  20.979  0.00  0.00    +0.000 HD
BRANCH   7  17
ATOM     16  C   UNL     1      -2.672  12.375  22.433  0.00  0.00    +0.000 C 
ATOM     17  C   UNL     1      -1.776  11.502  23.298  0.00  0.00    +0.000 C 
ENDBRANCH   7  17
ENDBRANCH   1  12
BRANCH   4  18
ATOM     18  S   UNL     1       4.691   4.189  18.353  0.00  0.00    +0.000 S 
ATOM     19  O   UNL     1       5.143   4.202  16.980  0.00  0.00    +0.000 OA
ATOM     20  O   UNL     1       5.639   4.195  19.449  0.00  0.00    +0.000 OA
BRANCH  18  21
ATOM     21  N   UNL     1       3.692   2.848  18.559  0.00  0.00    +0.000 NA
ATOM     22  C   UNL     1       2.587   2.578  17.630  0.00  0.00    +0.000 C 
ATOM     23  C   UNL     1       1.345   2.760  18.480  0.00  0.00    +0.000 C 
ATOM     24  C   UNL     1       1.765   2.262  19.852  0.00  0.00    +0.000 C 
ATOM     25  C   UNL     1       3.278   2.454  19.918  0.00  0.00    +0.000 C 
ENDBRANCH  18  21
ENDBRANCH   4  18
TORSDOF 4
ENDMDL
MODEL 6
REMARK VINA RESULT:      -7.9      0.947      1.243
REMARK  Name = 
REMARK  5 active torsions:
REMARK  status: ('A' for Active; 'I' for Inactive)
REMARK    1  A    between atoms: C_1  and  C_2
REMARK    2  A    between atoms: C_2  and  C_3
REMARK    3  A    between atoms: C_8  and  C_9
REMARK    4  A    between atoms: C_12  and  S_13
REMARK    5  A    between atoms: S_13  and  N_16
REMARK                            x       y       z     vdW  Elec       q    Type
REMARK                         _______ _______ _______ _____ _____    ______ ____
ROOT
ATOM      1  C   UNL     1       1.229   9.337  19.056  0.00  0.00    +0.000 A 
ATOM      2  C   UNL     1       1.900   9.035  17.862  0.00  0.00    +0.000 A 
ATOM      3  C   UNL     1       2.693   7.881  17.759  0.00  0.00    +0.000 A 
ATOM      4  C   UNL     1       2.811   7.012  18.850  0.00  0.00    +0.000 A 
ATOM      5  C   UNL     1       2.130   7.290  20.033  0.00  0.00    +0.000 A 
ATOM      6  C   UNL     1       1.367   8.456  20.141  0.00  0.00    +0.000 A 
ENDROOT
BRANCH   1  12
ATOM      7  C   UNL     1      -3.603  11.052  17.641  0.00  0.00    +0.000 C 
ATOM      8  O   UNL     1      -3.400   9.855  17.481  0.00  0.00    +0.000 OA
ATOM      9  N   UNL     1      -2.766  11.953  18.269  0.00  0.00    +0.000 N 
ATOM     10  C   UNL     1      -1.540  11.574  18.741  0.00  0.00    +0.000 A 
ATOM     11  N   UNL     1      -0.906  10.451  18.549  0.00  0.00    +0.000 NA
ATOM     12  C   UNL     1       0.320  10.473  19.192  0.00  0.00    +0.000 A 
ATOM     13  C   UNL     1       0.560  11.623  19.920  0.00  0.00    +0.000 A 
ATOM     14  S   UNL     1      -0.741  12.733  19.702  0.00  0.00    +0.000 S 
ATOM     15  H   UNL     1      -3.062  12.899  18.456  0.00  0.00    +0.000 HD
BRANCH   7  17
ATOM     16  C   UNL     1      -6.090  11.289  17.967  0.00  0.00    +0.000 C 
ATOM     17  C   UNL     1      -4.879  11.714  17.149  0.00  0.00    +0.000 C 
ENDBRANCH   7  17
ENDBRANCH   1  12
BRANCH   4  18
ATOM     18  S   UNL     1       3.682   5.461  18.670  0.00  0.00    +0.000 S 
ATOM     19  O   UNL     1       3.806   5.221  17.251  0.00  0.00    +0.000 OA
ATOM     20  O   UNL     1       4.855   5.526  19.520  0.00  0.00    +0.000 OA
BRANCH  18  21
ATOM     21  N   UNL     1       2.662   4.283  19.312  0.00  0.00    +0.000 NA
ATOM     22  C   UNL     1       3.207   3.058  19.914  0.00  0.00    +0.000 C 
ATOM     23  C   UNL     1       2.744   1.957  18.981  0.00  0.00    +0.000 C 
ATOM     24  C   UNL     1       1.379   2.429  18.508  0.00  0.00    +0.000 C 
ATOM     25  C   UNL     1       1.407   3.952  18.614  0.00  0.00    +0.000 C 
ENDBRANCH  18  21
ENDBRANCH   4  18
TORSDOF 4
ENDMDL
MODEL 7
REMARK VINA RESULT:      -7.8      3.193      8.761
REMARK  Name = 
REMARK  5 active torsions:
REMARK  status: ('A' for Active; 'I' for Inactive)
REMARK    1  A    between atoms: C_1  and  C_2
REMARK    2  A    between atoms: C_2  and  C_3
REMARK    3  A    between atoms: C_8  and  C_9
REMARK    4  A    between atoms: C_12  and  S_13
REMARK    5  A    between atoms: S_13  and  N_16
REMARK                            x       y       z     vdW  Elec       q    Type
REMARK                         _______ _______ _______ _____ _____    ______ ____
ROOT
ATOM      1  C   UNL     1       2.495   7.282  18.979  0.00  0.00    +0.000 A 
ATOM      2  C   UNL     1       2.273   8.298  18.039  0.00  0.00    +0.000 A 
ATOM      3  C   UNL     1       1.522   9.435  18.378  0.00  0.00    +0.000 A 
ATOM      4  C   UNL     1       0.996   9.569  19.668  0.00  0.00    +0.000 A 
ATOM      5  C   UNL     1       1.231   8.576  20.618  0.00  0.00    +0.000 A 
ATOM      6  C   UNL     1       1.953   7.432  20.266  0.00  0.00    +0.000 A 
ENDROOT
BRANCH   1  12
ATOM      7  C   UNL     1       5.786   5.229  15.341  0.00  0.00    +0.000 C 
ATOM      8  O   UNL     1       5.517   6.415  15.199  0.00  0.00    +0.000 OA
ATOM      9  N   UNL     1       5.438   4.426  16.409  0.00  0.00    +0.000 N 
ATOM     10  C   UNL     1       4.665   4.901  17.432  0.00  0.00    +0.000 A 
ATOM     11  N   UNL     1       4.018   6.031  17.506  0.00  0.00    +0.000 NA
ATOM     12  C   UNL     1       3.342   6.122  18.711  0.00  0.00    +0.000 A 
ATOM     13  C   UNL     1       3.551   5.053  19.562  0.00  0.00    +0.000 A 
ATOM     14  S   UNL     1       4.533   3.870  18.782  0.00  0.00    +0.000 S 
ATOM     15  H   UNL     1       5.798   3.488  16.497  0.00  0.00    +0.000 HD
BRANCH   7  17
ATOM     16  C   UNL     1       5.701   3.776  13.284  0.00  0.00    +0.000 C 
ATOM     17  C   UNL     1       6.594   4.468  14.302  0.00  0.00    +0.000 C 
ENDBRANCH   7  17
ENDBRANCH   1  12
BRANCH   4  18
ATOM     18  S   UNL     1       0.184  11.086  20.153  0.00  0.00    +0.000 S 
ATOM     19  O   UNL     1      -1.215  10.926  19.825  0.00  0.00    +0.000 OA
ATOM     20  O   UNL     1       0.601  11.381  21.510  0.00  0.00    +0.000 OA
BRANCH  18  21
ATOM     21  N   UNL     1       0.819  12.288  19.159  0.00  0.00    +0.000 NA
ATOM     22  C   UNL     1       2.058  12.992  19.519  0.00  0.00    +0.000 C 
ATOM     23  C   UNL     1       1.606  14.416  19.775  0.00  0.00    +0.000 C 
ATOM     24  C   UNL     1       0.480  14.626  18.775  0.00  0.00    +0.000 C 
ATOM     25  C   UNL     1      -0.092  13.238  18.497  0.00  0.00    +0.000 C 
ENDBRANCH  18  21
ENDBRANCH   4  18
TORSDOF 4
ENDMDL
MODEL 8
REMARK VINA RESULT:      -7.8      0.841      1.345
REMARK  Name = 
REMARK  5 active torsions:
REMARK  status: ('A' for Active; 'I' for Inactive)
REMARK    1  A    between atoms: C_1  and  C_2
REMARK    2  A    between atoms: C_2  and  C_3
REMARK    3  A    between atoms: C_8  and  C_9
REMARK    4  A    between atoms: C_12  and  S_13
REMARK    5  A    between atoms: S_13  and  N_16
REMARK                            x       y       z     vdW  Elec       q    Type
REMARK                         _______ _______ _______ _____ _____    ______ ____
ROOT
ATOM      1  C   UNL     1       0.988   9.320  18.991  0.00  0.00    +0.000 A 
ATOM      2  C   UNL     1       1.285   8.465  20.062  0.00  0.00    +0.000 A 
ATOM      3  C   UNL     1       2.155   7.377  19.890  0.00  0.00    +0.000 A 
ATOM      4  C   UNL     1       2.745   7.142  18.642  0.00  0.00    +0.000 A 
ATOM      5  C   UNL     1       2.476   8.000  17.577  0.00  0.00    +0.000 A 
ATOM      6  C   UNL     1       1.585   9.064  17.746  0.00  0.00    +0.000 A 
ENDROOT
BRANCH   1  12
ATOM      7  C   UNL     1      -3.845  11.254  17.901  0.00  0.00    +0.000 C 
ATOM      8  O   UNL     1      -3.727  10.040  17.800  0.00  0.00    +0.000 OA
ATOM      9  N   UNL     1      -2.904  12.135  18.395  0.00  0.00    +0.000 N 
ATOM     10  C   UNL     1      -1.664  11.708  18.780  0.00  0.00    +0.000 A 
ATOM     11  N   UNL     1      -1.116  10.537  18.605  0.00  0.00    +0.000 NA
ATOM     12  C   UNL     1       0.163  10.518  19.134  0.00  0.00    +0.000 A 
ATOM     13  C   UNL     1       0.535  11.691  19.764  0.00  0.00    +0.000 A 
ATOM     14  S   UNL     1      -0.714  12.866  19.592  0.00  0.00    +0.000 S 
ATOM     15  H   UNL     1      -3.126  13.107  18.547  0.00  0.00    +0.000 HD
BRANCH   7  17
ATOM     16  C   UNL     1      -6.358  11.306  18.072  0.00  0.00    +0.000 C 
ATOM     17  C   UNL     1      -5.121  11.967  17.483  0.00  0.00    +0.000 C 
ENDBRANCH   7  17
ENDBRANCH   1  12
BRANCH   4  18
ATOM     18  S   UNL     1       3.979   5.862  18.460  0.00  0.00    +0.000 S 
ATOM     19  O   UNL     1       5.027   6.415  17.633  0.00  0.00    +0.000 OA
ATOM     20  O   UNL     1       4.268   5.353  19.787  0.00  0.00    +0.000 OA
BRANCH  18  21
ATOM     21  N   UNL     1       3.233   4.622  17.597  0.00  0.00    +0.000 NA
ATOM     22  C   UNL     1       1.781   4.412  17.678  0.00  0.00    +0.000 C 
ATOM     23  C   UNL     1       1.646   3.069  18.368  0.00  0.00    +0.000 C 
ATOM     24  C   UNL     1       2.838   2.276  17.860  0.00  0.00    +0.000 C 
ATOM     25  C   UNL     1       3.898   3.311  17.491  0.00  0.00    +0.000 C 
ENDBRANCH  18  21
ENDBRANCH   4  18
TORSDOF 4
ENDMDL
MODEL 9
REMARK VINA RESULT:      -7.8      3.043      8.831
REMARK  Name = 
REMARK  5 active torsions:
REMARK  status: ('A' for Active; 'I' for Inactive)
REMARK    1  A    between atoms: C_1  and  C_2
REMARK    2  A    between atoms: C_2  and  C_3
REMARK    3  A    between atoms: C_8  and  C_9
REMARK    4  A    between atoms: C_12  and  S_13
REMARK    5  A    between atoms: S_13  and  N_16
REMARK                            x       y       z     vdW  Elec       q    Type
REMARK                         _______ _______ _______ _____ _____    ______ ____
ROOT
ATOM      1  C   UNL     1       2.566   7.338  18.931  0.00  0.00    +0.000 A 
ATOM      2  C   UNL     1       1.968   7.612  20.170  0.00  0.00    +0.000 A 
ATOM      3  C   UNL     1       1.125   8.724  20.327  0.00  0.00    +0.000 A 
ATOM      4  C   UNL     1       0.867   9.567  19.240  0.00  0.00    +0.000 A 
ATOM      5  C   UNL     1       1.437   9.290  17.998  0.00  0.00    +0.000 A 
ATOM      6  C   UNL     1       2.299   8.199  17.855  0.00  0.00    +0.000 A 
ENDROOT
BRANCH   1  12
ATOM      7  C   UNL     1       5.806   5.119  15.343  0.00  0.00    +0.000 C 
ATOM      8  O   UNL     1       5.575   6.311  15.181  0.00  0.00    +0.000 OA
ATOM      9  N   UNL     1       5.427   4.346  16.423  0.00  0.00    +0.000 N 
ATOM     10  C   UNL     1       4.665   4.863  17.434  0.00  0.00    +0.000 A 
ATOM     11  N   UNL     1       4.054   6.014  17.486  0.00  0.00    +0.000 NA
ATOM     12  C   UNL     1       3.376   6.147  18.686  0.00  0.00    +0.000 A 
ATOM     13  C   UNL     1       3.546   5.086  19.556  0.00  0.00    +0.000 A 
ATOM     14  S   UNL     1       4.493   3.859  18.801  0.00  0.00    +0.000 S 
ATOM     15  H   UNL     1       5.756   3.399  16.529  0.00  0.00    +0.000 HD
BRANCH   7  17
ATOM     16  C   UNL     1       5.695   3.742  13.236  0.00  0.00    +0.000 C 
ATOM     17  C   UNL     1       6.593   4.316  14.322  0.00  0.00    +0.000 C 
ENDBRANCH   7  17
ENDBRANCH   1  12
BRANCH   4  18
ATOM     18  S   UNL     1      -0.332  10.884  19.391  0.00  0.00    +0.000 S 
ATOM     19  O   UNL     1      -1.433  10.540  18.521  0.00  0.00    +0.000 OA
ATOM     20  O   UNL     1      -0.545  11.110  20.807  0.00  0.00    +0.000 OA
BRANCH  18  21
ATOM     21  N   UNL     1       0.413  12.261  18.769  0.00  0.00    +0.000 NA
ATOM     22  C   UNL     1       1.664  12.771  19.349  0.00  0.00    +0.000 C 
ATOM     23  C   UNL     1       1.269  14.106  19.948  0.00  0.00    +0.000 C 
ATOM     24  C   UNL     1       0.210  14.635  18.994  0.00  0.00    +0.000 C 
ATOM     25  C   UNL     1      -0.413  13.403  18.342  0.00  0.00    +0.000 C 
ENDBRANCH  18  21
ENDBRANCH   4  18
TORSDOF 4
ENDMDL
