MODEL 1
REMARK VINA RESULT:      -8.1      0.000      0.000
REMARK  Name = 
REMARK  8 active torsions:
REMARK  status: ('A' for Active; 'I' for Inactive)
REMARK    1  A    between atoms: C_1  and  C_2
REMARK    2  A    between atoms: C_2  and  C_3
REMARK    3  A    between atoms: C_4  and  C_5
REMARK    4  A    between atoms: C_5  and  O_7
REMARK    5  A    between atoms: O_7  and  C_8
REMARK    6  A    between atoms: C_8  and  C_9
REMARK    7  A    between atoms: C_15  and  C_16
REMARK    8  A    between atoms: C_19  and  O_20
REMARK                            x       y       z     vdW  Elec       q    Type
REMARK                         _______ _______ _______ _____ _____    ______ ____
ROOT
ATOM      1  C   UNL     1       5.433   4.954  15.856  0.00  0.00    +0.000 C 
ATOM      2  C   UNL     1       4.708   4.669  16.964  0.00  0.00    +0.000 C 
ATOM      3  C   UNL     1       4.859   5.525  18.197  0.00  0.00    +0.000 C 
ATOM      4  N   UNL     1       6.134   6.224  18.189  0.00  0.00    +0.000 N 
ATOM      5  C   UNL     1       6.726   6.645  17.039  0.00  0.00    +0.000 C 
ATOM      6  O   UNL     1       7.578   7.525  17.028  0.00  0.00    +0.000 OA
ATOM      7  N   UNL     1       6.337   5.996  15.907  0.00  0.00    +0.000 N 
ATOM      8  H   UNL     1       6.379   6.783  18.994  0.00  0.00    +0.000 HD
ATOM      9  H   UNL     1       6.841   6.277  15.071  0.00  0.00    +0.000 HD
ENDROOT
BRANCH   3  10
ATOM     10  C   UNL     1       3.741   6.547  18.386  0.00  0.00    +0.000 A 
ATOM     11  C   UNL     1       2.980   6.553  19.568  0.00  0.00    +0.000 A 
ATOM     12  C   UNL     1       2.013   7.539  19.791  0.00  0.00    +0.000 A 
ATOM     13  C   UNL     1       1.804   8.526  18.833  0.00  0.00    +0.000 A 
ATOM     14  C   UNL     1       2.535   8.536  17.655  0.00  0.00    +0.000 A 
ATOM     15  C   UNL     1       3.495   7.551  17.430  0.00  0.00    +0.000 A 
BRANCH  13  16
ATOM     16  O   UNL     1       0.888   9.518  19.015  0.00  0.00    +0.000 OA
ATOM     17  H   UNL     1       0.640   9.544  19.954  0.00  0.00    +0.000 HD
ENDBRANCH  13  16
ENDBRANCH   3  10
BRANCH   1  19
ATOM     18  C   UNL     1       6.719   4.414  13.790  0.00  0.00    +0.000 C 
ATOM     19  C   UNL     1       5.390   4.254  14.514  0.00  0.00    +0.000 C 
ENDBRANCH   1  19
BRANCH   2  20
ATOM     20  C   UNL     1       3.738   3.541  16.990  0.00  0.00    +0.000 C 
ATOM     21  O   UNL     1       2.669   3.540  16.396  0.00  0.00    +0.000 OA
BRANCH  20  22
ATOM     22  O   UNL     1       4.154   2.519  17.782  0.00  0.00    +0.000 OA
BRANCH  22  23
ATOM     23  C   UNL     1       4.083   2.793  19.198  0.00  0.00    +0.000 C 
BRANCH  23  24
ATOM     24  C   UNL     1       3.006   1.991  19.961  0.00  0.00    +0.000 C 
ATOM     25  C   UNL     1       2.809   2.465  21.407  0.00  0.00    +0.000 C 
ATOM     26  C   UNL     1       2.139   3.834  21.489  0.00  0.00    +0.000 C 
ATOM     27  C   UNL     1       0.821   3.874  20.718  0.00  0.00    +0.000 C 
ATOM     28  C   UNL     1       0.964   3.377  19.282  0.00  0.00    +0.000 C 
ATOM     29  C   UNL     1       1.661   2.020  19.210  0.00  0.00    +0.000 C 
ENDBRANCH  23  24
ENDBRANCH  22  23
ENDBRANCH  20  22
ENDBRANCH   2  20
TORSDOF 7
ENDMDL
MODEL 2
REMARK VINA RESULT:      -7.8      0.866      1.284
REMARK  Name = 
REMARK  8 active torsions:
REMARK  status: ('A' for Active; 'I' for Inactive)
REMARK    1  A    between atoms: C_1  and  C_2
REMARK    2  A    between atoms: C_2  and  C_3
REMARK    3  A    between atoms: C_4  and  C_5
REMARK    4  A    between atoms: C_5  and  O_7
REMARK    5  A    between atoms: O_7  and  C_8
REMARK    6  A    between atoms: C_8  and  C_9
REMARK    7  A    between atoms: C_15  and  C_16
REMARK    8  A    between atoms: C_19  and  O_20
REMARK                            x       y       z     vdW  Elec       q    Type
REMARK                         _______ _______ _______ _____ _____    ______ ____
ROOT
ATOM      1  C   UNL     1       6.039   4.449  16.817  0.00  0.00    +0.000 C 
ATOM      2  C   UNL     1       4.944   4.300  17.600  0.00  0.00    +0.000 C 
ATOM      3  C   UNL     1       4.806   5.120  18.858  0.00  0.00    +0.000 C 
ATOM      4  N   UNL     1       6.105   5.585  19.318  0.00  0.00    +0.000 N 
ATOM      5  C   UNL     1       7.115   5.891  18.458  0.00  0.00    +0.000 C 
ATOM      6  O   UNL     1       8.053   6.608  18.783  0.00  0.00    +0.000 OA
ATOM      7  N   UNL     1       7.031   5.317  17.227  0.00  0.00    +0.000 N 
ATOM      8  H   UNL     1       6.152   6.096  20.188  0.00  0.00    +0.000 HD
ATOM      9  H   UNL     1       7.828   5.502  16.625  0.00  0.00    +0.000 HD
ENDROOT
BRANCH   3  10
ATOM     10  C   UNL     1       3.877   6.323  18.720  0.00  0.00    +0.000 A 
ATOM     11  C   UNL     1       3.871   7.081  17.536  0.00  0.00    +0.000 A 
ATOM     12  C   UNL     1       2.962   8.130  17.362  0.00  0.00    +0.000 A 
ATOM     13  C   UNL     1       2.052   8.425  18.373  0.00  0.00    +0.000 A 
ATOM     14  C   UNL     1       2.044   7.699  19.554  0.00  0.00    +0.000 A 
ATOM     15  C   UNL     1       2.953   6.656  19.729  0.00  0.00    +0.000 A 
BRANCH  13  16
ATOM     16  O   UNL     1       1.135   9.424  18.241  0.00  0.00    +0.000 OA
ATOM     17  H   UNL     1       0.484   9.346  18.957  0.00  0.00    +0.000 HD
ENDBRANCH  13  16
ENDBRANCH   3  10
BRANCH   1  19
ATOM     18  C   UNL     1       5.795   4.583  14.340  0.00  0.00    +0.000 C 
ATOM     19  C   UNL     1       6.338   3.762  15.501  0.00  0.00    +0.000 C 
ENDBRANCH   1  19
BRANCH   2  20
ATOM     20  C   UNL     1       3.849   3.359  17.236  0.00  0.00    +0.000 C 
ATOM     21  O   UNL     1       2.966   3.612  16.429  0.00  0.00    +0.000 OA
BRANCH  20  22
ATOM     22  O   UNL     1       3.915   2.195  17.933  0.00  0.00    +0.000 OA
BRANCH  22  23
ATOM     23  C   UNL     1       3.908   2.355  19.368  0.00  0.00    +0.000 C 
BRANCH  23  24
ATOM     24  C   UNL     1       2.639   1.826  20.073  0.00  0.00    +0.000 C 
ATOM     25  C   UNL     1       2.446   2.402  21.482  0.00  0.00    +0.000 C 
ATOM     26  C   UNL     1       2.067   3.881  21.464  0.00  0.00    +0.000 C 
ATOM     27  C   UNL     1       0.842   4.147  20.593  0.00  0.00    +0.000 C 
ATOM     28  C   UNL     1       0.977   3.561  19.190  0.00  0.00    +0.000 C 
ATOM     29  C   UNL     1       1.384   2.089  19.221  0.00  0.00    +0.000 C 
ENDBRANCH  23  24
ENDBRANCH  22  23
ENDBRANCH  20  22
ENDBRANCH   2  20
TORSDOF 7
ENDMDL
MODEL 3
REMARK VINA RESULT:      -7.8      2.524      5.921
REMARK  Name = 
REMARK  8 active torsions:
REMARK  status: ('A' for Active; 'I' for Inactive)
REMARK    1  A    between atoms: C_1  and  C_2
REMARK    2  A    between atoms: C_2  and  C_3
REMARK    3  A    between atoms: C_4  and  C_5
REMARK    4  A    between atoms: C_5  and  O_7
REMARK    5  A    between atoms: O_7  and  C_8
REMARK    6  A    between atoms: C_8  and  C_9
REMARK    7  A    between atoms: C_15  and  C_16
REMARK    8  A    between atoms: C_19  and  O_20
REMARK                            x       y       z     vdW  Elec       q    Type
REMARK                         _______ _______ _______ _____ _____    ______ ____
ROOT
ATOM      1  C   UNL     1       2.469   3.942  19.572  0.00  0.00    +0.000 C 
ATOM      2  C   UNL     1       3.168   5.097  19.453  0.00  0.00    +0.000 C 
ATOM      3  C   UNL     1       4.675   5.058  19.409  0.00  0.00    +0.000 C 
ATOM      4  N   UNL     1       5.179   3.834  20.011  0.00  0.00    +0.000 N 
ATOM      5  C   UNL     1       4.504   2.655  19.938  0.00  0.00    +0.000 C 
ATOM      6  O   UNL     1       5.057   1.576  20.105  0.00  0.00    +0.000 OA
ATOM      7  N   UNL     1       3.167   2.759  19.705  0.00  0.00    +0.000 N 
ATOM      8  H   UNL     1       6.179   3.719  20.096  0.00  0.00    +0.000 HD
ATOM      9  H   UNL     1       2.670   1.873  19.723  0.00  0.00    +0.000 HD
ENDROOT
BRANCH   3  10
ATOM     10  C   UNL     1       5.261   5.192  18.006  0.00  0.00    +0.000 A 
ATOM     11  C   UNL     1       6.468   5.882  17.805  0.00  0.00    +0.000 A 
ATOM     12  C   UNL     1       7.060   5.936  16.539  0.00  0.00    +0.000 A 
ATOM     13  C   UNL     1       6.447   5.295  15.466  0.00  0.00    +0.000 A 
ATOM     14  C   UNL     1       5.250   4.616  15.636  0.00  0.00    +0.000 A 
ATOM     15  C   UNL     1       4.658   4.567  16.897  0.00  0.00    +0.000 A 
BRANCH  13  16
ATOM     16  O   UNL     1       6.996   5.303  14.219  0.00  0.00    +0.000 OA
ATOM     17  H   UNL     1       7.144   4.385  13.939  0.00  0.00    +0.000 HD
ENDBRANCH  13  16
ENDBRANCH   3  10
BRANCH   1  19
ATOM     18  C   UNL     1       0.577   2.487  18.856  0.00  0.00    +0.000 C 
ATOM     19  C   UNL     1       0.965   3.766  19.584  0.00  0.00    +0.000 C 
ENDBRANCH   1  19
BRANCH   2  20
ATOM     20  C   UNL     1       2.482   6.412  19.337  0.00  0.00    +0.000 C 
ATOM     21  O   UNL     1       2.442   7.079  18.313  0.00  0.00    +0.000 OA
BRANCH  20  22
ATOM     22  O   UNL     1       1.933   6.816  20.513  0.00  0.00    +0.000 OA
BRANCH  22  23
ATOM     23  C   UNL     1       1.641   8.228  20.584  0.00  0.00    +0.000 C 
BRANCH  23  24
ATOM     24  C   UNL     1       0.136   8.579  20.586  0.00  0.00    +0.000 C 
ATOM     25  C   UNL     1      -0.516   8.436  21.968  0.00  0.00    +0.000 C 
ATOM     26  C   UNL     1      -0.055   9.512  22.947  0.00  0.00    +0.000 C 
ATOM     27  C   UNL     1      -0.259  10.919  22.390  0.00  0.00    +0.000 C 
ATOM     28  C   UNL     1       0.345  11.096  21.000  0.00  0.00    +0.000 C 
ATOM     29  C   UNL     1      -0.101   9.998  20.036  0.00  0.00    +0.000 C 
ENDBRANCH  23  24
ENDBRANCH  22  23
ENDBRANCH  20  22
ENDBRANCH   2  20
TORSDOF 7
ENDMDL
MODEL 4
REMARK VINA RESULT:      -7.5      2.536      5.990
REMARK  Name = 
REMARK  8 active torsions:
REMARK  status: ('A' for Active; 'I' for Inactive)
REMARK    1  A    between atoms: C_1  and  C_2
REMARK    2  A    between atoms: C_2  and  C_3
REMARK    3  A    between atoms: C_4  and  C_5
REMARK    4  A    between atoms: C_5  and  O_7
REMARK    5  A    between atoms: O_7  and  C_8
REMARK    6  A    between atoms: C_8  and  C_9
REMARK    7  A    between atoms: C_15  and  C_16
REMARK    8  A    between atoms: C_19  and  O_20
REMARK                            x       y       z     vdW  Elec       q    Type
REMARK                         _______ _______ _______ _____ _____    ______ ____
ROOT
ATOM      1  C   UNL     1       2.434   3.871  19.515  0.00  0.00    +0.000 C 
ATOM      2  C   UNL     1       3.151   5.018  19.436  0.00  0.00    +0.000 C 
ATOM      3  C   UNL     1       4.658   4.957  19.404  0.00  0.00    +0.000 C 
ATOM      4  N   UNL     1       5.138   3.708  19.975  0.00  0.00    +0.000 N 
ATOM      5  C   UNL     1       4.445   2.542  19.861  0.00  0.00    +0.000 C 
ATOM      6  O   UNL     1       4.980   1.450  20.002  0.00  0.00    +0.000 OA
ATOM      7  N   UNL     1       3.112   2.673  19.620  0.00  0.00    +0.000 N 
ATOM      8  H   UNL     1       6.135   3.574  20.066  0.00  0.00    +0.000 HD
ATOM      9  H   UNL     1       2.602   1.795  19.608  0.00  0.00    +0.000 HD
ENDROOT
BRANCH   3  10
ATOM     10  C   UNL     1       5.259   5.121  18.011  0.00  0.00    +0.000 A 
ATOM     11  C   UNL     1       6.443   5.857  17.832  0.00  0.00    +0.000 A 
ATOM     12  C   UNL     1       7.051   5.941  16.575  0.00  0.00    +0.000 A 
ATOM     13  C   UNL     1       6.478   5.286  15.490  0.00  0.00    +0.000 A 
ATOM     14  C   UNL     1       5.304   4.562  15.638  0.00  0.00    +0.000 A 
ATOM     15  C   UNL     1       4.696   4.482  16.889  0.00  0.00    +0.000 A 
BRANCH  13  16
ATOM     16  O   UNL     1       7.044   5.322  14.251  0.00  0.00    +0.000 OA
ATOM     17  H   UNL     1       7.795   5.937  14.270  0.00  0.00    +0.000 HD
ENDBRANCH  13  16
ENDBRANCH   3  10
BRANCH   1  19
ATOM     18  C   UNL     1       0.532   2.400  18.859  0.00  0.00    +0.000 C 
ATOM     19  C   UNL     1       0.927   3.718  19.509  0.00  0.00    +0.000 C 
ENDBRANCH   1  19
BRANCH   2  20
ATOM     20  C   UNL     1       2.487   6.347  19.352  0.00  0.00    +0.000 C 
ATOM     21  O   UNL     1       2.322   6.968  18.312  0.00  0.00    +0.000 OA
BRANCH  20  22
ATOM     22  O   UNL     1       2.116   6.818  20.571  0.00  0.00    +0.000 OA
BRANCH  22  23
ATOM     23  C   UNL     1       1.120   7.862  20.532  0.00  0.00    +0.000 C 
BRANCH  23  24
ATOM     24  C   UNL     1       1.575   9.214  21.127  0.00  0.00    +0.000 C 
ATOM     25  C   UNL     1       0.912  10.424  20.455  0.00  0.00    +0.000 C 
ATOM     26  C   UNL     1      -0.572  10.542  20.793  0.00  0.00    +0.000 C 
ATOM     27  C   UNL     1      -0.817  10.553  22.300  0.00  0.00    +0.000 C 
ATOM     28  C   UNL     1      -0.146   9.383  23.014  0.00  0.00    +0.000 C 
ATOM     29  C   UNL     1       1.332   9.257  22.647  0.00  0.00    +0.000 C 
ENDBRANCH  23  24
ENDBRANCH  22  23
ENDBRANCH  20  22
ENDBRANCH   2  20
TORSDOF 7
ENDMDL
MODEL 5
REMARK VINA RESULT:      -7.5      0.629      1.257
REMARK  Name = 
REMARK  8 active torsions:
REMARK  status: ('A' for Active; 'I' for Inactive)
REMARK    1  A    between atoms: C_1  and  C_2
REMARK    2  A    between atoms: C_2  and  C_3
REMARK    3  A    between atoms: C_4  and  C_5
REMARK    4  A    between atoms: C_5  and  O_7
REMARK    5  A    between atoms: O_7  and  C_8
REMARK    6  A    between atoms: C_8  and  C_9
REMARK    7  A    between atoms: C_15  and  C_16
REMARK    8  A    between atoms: C_19  and  O_20
REMARK                            x       y       z     vdW  Elec       q    Type
REMARK                         _______ _______ _______ _____ _____    ______ ____
ROOT
ATOM      1  C   UNL     1       5.705   5.007  15.814  0.00  0.00    +0.000 C 
ATOM      2  C   UNL     1       5.052   4.619  16.936  0.00  0.00    +0.000 C 
ATOM      3  C   UNL     1       5.184   5.433  18.198  0.00  0.00    +0.000 C 
ATOM      4  N   UNL     1       6.398   6.235  18.173  0.00  0.00    +0.000 N 
ATOM      5  C   UNL     1       6.906   6.749  17.021  0.00  0.00    +0.000 C 
ATOM      6  O   UNL     1       7.684   7.695  17.016  0.00  0.00    +0.000 OA
ATOM      7  N   UNL     1       6.524   6.117  15.877  0.00  0.00    +0.000 N 
ATOM      8  H   UNL     1       6.631   6.779  18.991  0.00  0.00    +0.000 HD
ATOM      9  H   UNL     1       6.968   6.471  15.035  0.00  0.00    +0.000 HD
ENDROOT
BRANCH   3  10
ATOM     10  C   UNL     1       3.997   6.352  18.475  0.00  0.00    +0.000 A 
ATOM     11  C   UNL     1       3.295   6.255  19.689  0.00  0.00    +0.000 A 
ATOM     12  C   UNL     1       2.262   7.149  19.991  0.00  0.00    +0.000 A 
ATOM     13  C   UNL     1       1.928   8.147  19.080  0.00  0.00    +0.000 A 
ATOM     14  C   UNL     1       2.599   8.257  17.872  0.00  0.00    +0.000 A 
ATOM     15  C   UNL     1       3.625   7.363  17.569  0.00  0.00    +0.000 A 
BRANCH  13  16
ATOM     16  O   UNL     1       0.944   9.053  19.339  0.00  0.00    +0.000 OA
ATOM     17  H   UNL     1       0.251   8.619  19.864  0.00  0.00    +0.000 HD
ENDBRANCH  13  16
ENDBRANCH   3  10
BRANCH   1  19
ATOM     18  C   UNL     1       6.965   4.613  13.700  0.00  0.00    +0.000 C 
ATOM     19  C   UNL     1       5.662   4.361  14.446  0.00  0.00    +0.000 C 
ENDBRANCH   1  19
BRANCH   2  20
ATOM     20  C   UNL     1       4.177   3.415  16.949  0.00  0.00    +0.000 C 
ATOM     21  O   UNL     1       4.572   2.281  17.180  0.00  0.00    +0.000 OA
BRANCH  20  22
ATOM     22  O   UNL     1       2.889   3.708  16.635  0.00  0.00    +0.000 OA
BRANCH  22  23
ATOM     23  C   UNL     1       2.036   3.953  17.774  0.00  0.00    +0.000 C 
BRANCH  23  24
ATOM     24  C   UNL     1       1.519   2.680  18.482  0.00  0.00    +0.000 C 
ATOM     25  C   UNL     1       2.624   1.903  19.210  0.00  0.00    +0.000 C 
ATOM     26  C   UNL     1       3.134   2.632  20.450  0.00  0.00    +0.000 C 
ATOM     27  C   UNL     1       2.001   2.996  21.407  0.00  0.00    +0.000 C 
ATOM     28  C   UNL     1       0.863   3.742  20.717  0.00  0.00    +0.000 C 
ATOM     29  C   UNL     1       0.380   3.017  19.461  0.00  0.00    +0.000 C 
ENDBRANCH  23  24
ENDBRANCH  22  23
ENDBRANCH  20  22
ENDBRANCH   2  20
TORSDOF 7
ENDMDL
MODEL 6
REMARK VINA RESULT:      -7.5      2.314      6.032
REMARK  Name = 
REMARK  8 active torsions:
REMARK  status: ('A' for Active; 'I' for Inactive)
REMARK    1  A    between atoms: C_1  and  C_2
REMARK    2  A    between atoms: C_2  and  C_3
REMARK    3  A    between atoms: C_4  and  C_5
REMARK    4  A    between atoms: C_5  and  O_7
REMARK    5  A    between atoms: O_7  and  C_8
REMARK    6  A    between atoms: C_8  and  C_9
REMARK    7  A    between atoms: C_15  and  C_16
REMARK    8  A    between atoms: C_19  and  O_20
REMARK                            x       y       z     vdW  Elec       q    Type
REMARK                         _______ _______ _______ _____ _____    ______ ____
ROOT
ATOM      1  C   UNL     1       2.599   3.837  19.407  0.00  0.00    +0.000 C 
ATOM      2  C   UNL     1       3.330   4.942  19.129  0.00  0.00    +0.000 C 
ATOM      3  C   UNL     1       4.836   4.857  19.111  0.00  0.00    +0.000 C 
ATOM      4  N   UNL     1       5.300   3.723  19.894  0.00  0.00    +0.000 N 
ATOM      5  C   UNL     1       4.593   2.565  19.988  0.00  0.00    +0.000 C 
ATOM      6  O   UNL     1       5.113   1.508  20.321  0.00  0.00    +0.000 OA
ATOM      7  N   UNL     1       3.261   2.668  19.724  0.00  0.00    +0.000 N 
ATOM      8  H   UNL     1       6.295   3.595  20.010  0.00  0.00    +0.000 HD
ATOM      9  H   UNL     1       2.739   1.808  19.867  0.00  0.00    +0.000 HD
ENDROOT
BRANCH   3  10
ATOM     10  C   UNL     1       5.439   4.765  17.711  0.00  0.00    +0.000 A 
ATOM     11  C   UNL     1       4.711   4.174  16.664  0.00  0.00    +0.000 A 
ATOM     12  C   UNL     1       5.215   4.163  15.360  0.00  0.00    +0.000 A 
ATOM     13  C   UNL     1       6.451   4.746  15.096  0.00  0.00    +0.000 A 
ATOM     14  C   UNL     1       7.193   5.327  16.113  0.00  0.00    +0.000 A 
ATOM     15  C   UNL     1       6.692   5.333  17.414  0.00  0.00    +0.000 A 
BRANCH  13  16
ATOM     16  O   UNL     1       6.973   4.778  13.837  0.00  0.00    +0.000 OA
ATOM     17  H   UNL     1       7.696   5.426  13.817  0.00  0.00    +0.000 HD
ENDBRANCH  13  16
ENDBRANCH   3  10
BRANCH   1  19
ATOM     18  C   UNL     1       0.667   2.393  18.778  0.00  0.00    +0.000 C 
ATOM     19  C   UNL     1       1.090   3.704  19.425  0.00  0.00    +0.000 C 
ENDBRANCH   1  19
BRANCH   2  20
ATOM     20  C   UNL     1       2.683   6.243  18.809  0.00  0.00    +0.000 C 
ATOM     21  O   UNL     1       2.238   6.539  17.709  0.00  0.00    +0.000 OA
BRANCH  20  22
ATOM     22  O   UNL     1       2.675   7.091  19.871  0.00  0.00    +0.000 OA
BRANCH  22  23
ATOM     23  C   UNL     1       1.476   7.887  19.992  0.00  0.00    +0.000 C 
BRANCH  23  24
ATOM     24  C   UNL     1       1.666   9.393  19.706  0.00  0.00    +0.000 C 
ATOM     25  C   UNL     1       1.369   9.775  18.250  0.00  0.00    +0.000 C 
ATOM     26  C   UNL     1      -0.117   9.690  17.913  0.00  0.00    +0.000 C 
ATOM     27  C   UNL     1      -0.970  10.512  18.877  0.00  0.00    +0.000 C 
ATOM     28  C   UNL     1      -0.683  10.188  20.341  0.00  0.00    +0.000 C 
ATOM     29  C   UNL     1       0.811  10.248  20.659  0.00  0.00    +0.000 C 
ENDBRANCH  23  24
ENDBRANCH  22  23
ENDBRANCH  20  22
ENDBRANCH   2  20
TORSDOF 7
ENDMDL
MODEL 7
REMARK VINA RESULT:      -7.5      2.376      6.130
REMARK  Name = 
REMARK  8 active torsions:
REMARK  status: ('A' for Active; 'I' for Inactive)
REMARK    1  A    between atoms: C_1  and  C_2
REMARK    2  A    between atoms: C_2  and  C_3
REMARK    3  A    between atoms: C_4  and  C_5
REMARK    4  A    between atoms: C_5  and  O_7
REMARK    5  A    between atoms: O_7  and  C_8
REMARK    6  A    between atoms: C_8  and  C_9
REMARK    7  A    between atoms: C_15  and  C_16
REMARK    8  A    between atoms: C_19  and  O_20
REMARK                            x       y       z     vdW  Elec       q    Type
REMARK                         _______ _______ _______ _____ _____    ______ ____
ROOT
ATOM      1  C   UNL     1       2.602   3.815  19.609  0.00  0.00    +0.000 C 
ATOM      2  C   UNL     1       3.317   4.886  19.189  0.00  0.00    +0.000 C 
ATOM      3  C   UNL     1       4.816   4.781  19.057  0.00  0.00    +0.000 C 
ATOM      4  N   UNL     1       5.334   3.703  19.885  0.00  0.00    +0.000 N 
ATOM      5  C   UNL     1       4.628   2.565  20.123  0.00  0.00    +0.000 C 
ATOM      6  O   UNL     1       5.167   1.529  20.494  0.00  0.00    +0.000 OA
ATOM      7  N   UNL     1       3.280   2.664  19.960  0.00  0.00    +0.000 N 
ATOM      8  H   UNL     1       6.334   3.571  19.930  0.00  0.00    +0.000 HD
ATOM      9  H   UNL     1       2.766   1.825  20.209  0.00  0.00    +0.000 HD
ENDROOT
BRANCH   3  10
ATOM     10  C   UNL     1       5.303   4.575  17.625  0.00  0.00    +0.000 A 
ATOM     11  C   UNL     1       6.640   4.842  17.287  0.00  0.00    +0.000 A 
ATOM     12  C   UNL     1       7.120   4.574  16.000  0.00  0.00    +0.000 A 
ATOM     13  C   UNL     1       6.264   4.035  15.046  0.00  0.00    +0.000 A 
ATOM     14  C   UNL     1       4.937   3.771  15.352  0.00  0.00    +0.000 A 
ATOM     15  C   UNL     1       4.458   4.043  16.633  0.00  0.00    +0.000 A 
BRANCH  13  16
ATOM     16  O   UNL     1       6.691   3.738  13.786  0.00  0.00    +0.000 OA
ATOM     17  H   UNL     1       6.679   2.774  13.673  0.00  0.00    +0.000 HD
ENDBRANCH  13  16
ENDBRANCH   3  10
BRANCH   1  19
ATOM     18  C   UNL     1       0.570   2.545  18.923  0.00  0.00    +0.000 C 
ATOM     19  C   UNL     1       1.099   3.703  19.758  0.00  0.00    +0.000 C 
ENDBRANCH   1  19
BRANCH   2  20
ATOM     20  C   UNL     1       2.655   6.168  18.824  0.00  0.00    +0.000 C 
ATOM     21  O   UNL     1       2.196   6.414  17.718  0.00  0.00    +0.000 OA
BRANCH  20  22
ATOM     22  O   UNL     1       2.651   7.058  19.850  0.00  0.00    +0.000 OA
BRANCH  22  23
ATOM     23  C   UNL     1       1.451   7.856  19.945  0.00  0.00    +0.000 C 
BRANCH  23  24
ATOM     24  C   UNL     1       1.644   9.356  19.631  0.00  0.00    +0.000 C 
ATOM     25  C   UNL     1       1.306   9.719  18.178  0.00  0.00    +0.000 C 
ATOM     26  C   UNL     1      -0.191   9.641  17.888  0.00  0.00    +0.000 C 
ATOM     27  C   UNL     1      -1.008  10.483  18.864  0.00  0.00    +0.000 C 
ATOM     28  C   UNL     1      -0.679  10.180  20.323  0.00  0.00    +0.000 C 
ATOM     29  C   UNL     1       0.823  10.233  20.596  0.00  0.00    +0.000 C 
ENDBRANCH  23  24
ENDBRANCH  22  23
ENDBRANCH  20  22
ENDBRANCH   2  20
TORSDOF 7
ENDMDL
MODEL 8
REMARK VINA RESULT:      -7.5      2.453      5.952
REMARK  Name = 
REMARK  8 active torsions:
REMARK  status: ('A' for Active; 'I' for Inactive)
REMARK    1  A    between atoms: C_1  and  C_2
REMARK    2  A    between atoms: C_2  and  C_3
REMARK    3  A    between atoms: C_4  and  C_5
REMARK    4  A    between atoms: C_5  and  O_7
REMARK    5  A    between atoms: O_7  and  C_8
REMARK    6  A    between atoms: C_8  and  C_9
REMARK    7  A    between atoms: C_15  and  C_16
REMARK    8  A    between atoms: C_19  and  O_20
REMARK                            x       y       z     vdW  Elec       q    Type
REMARK                         _______ _______ _______ _____ _____    ______ ____
ROOT
ATOM      1  C   UNL     1       7.296   6.702  17.550  0.00  0.00    +0.000 C 
ATOM      2  C   UNL     1       6.607   5.712  16.933  0.00  0.00    +0.000 C 
ATOM      3  C   UNL     1       6.257   4.458  17.694  0.00  0.00    +0.000 C 
ATOM      4  N   UNL     1       7.148   4.274  18.828  0.00  0.00    +0.000 N 
ATOM      5  C   UNL     1       7.669   5.322  19.522  0.00  0.00    +0.000 C 
ATOM      6  O   UNL     1       8.105   5.199  20.660  0.00  0.00    +0.000 OA
ATOM      7  N   UNL     1       7.708   6.507  18.853  0.00  0.00    +0.000 N 
ATOM      8  H   UNL     1       7.053   3.434  19.382  0.00  0.00    +0.000 HD
ATOM      9  H   UNL     1       8.163   7.259  19.362  0.00  0.00    +0.000 HD
ENDROOT
BRANCH   3  10
ATOM     10  C   UNL     1       4.814   4.414  18.193  0.00  0.00    +0.000 A 
ATOM     11  C   UNL     1       4.088   3.212  18.153  0.00  0.00    +0.000 A 
ATOM     12  C   UNL     1       2.797   3.137  18.688  0.00  0.00    +0.000 A 
ATOM     13  C   UNL     1       2.228   4.267  19.268  0.00  0.00    +0.000 A 
ATOM     14  C   UNL     1       2.921   5.467  19.311  0.00  0.00    +0.000 A 
ATOM     15  C   UNL     1       4.205   5.542  18.774  0.00  0.00    +0.000 A 
BRANCH  13  16
ATOM     16  O   UNL     1       0.983   4.237  19.821  0.00  0.00    +0.000 OA
ATOM     17  H   UNL     1       0.329   4.412  19.124  0.00  0.00    +0.000 HD
ENDBRANCH  13  16
ENDBRANCH   3  10
BRANCH   1  19
ATOM     18  C   UNL     1       8.230   8.950  18.084  0.00  0.00    +0.000 C 
ATOM     19  C   UNL     1       7.697   8.047  16.981  0.00  0.00    +0.000 C 
ENDBRANCH   1  19
BRANCH   2  20
ATOM     20  C   UNL     1       6.158   5.841  15.520  0.00  0.00    +0.000 C 
ATOM     21  O   UNL     1       5.172   6.472  15.167  0.00  0.00    +0.000 OA
BRANCH  20  22
ATOM     22  O   UNL     1       6.946   5.144  14.661  0.00  0.00    +0.000 OA
BRANCH  22  23
ATOM     23  C   UNL     1       6.266   4.089  13.947  0.00  0.00    +0.000 C 
BRANCH  23  24
ATOM     24  C   UNL     1       6.062   4.354  12.439  0.00  0.00    +0.000 C 
ATOM     25  C   UNL     1       7.330   4.118  11.607  0.00  0.00    +0.000 C 
ATOM     26  C   UNL     1       7.698   2.639  11.506  0.00  0.00    +0.000 C 
ATOM     27  C   UNL     1       6.537   1.795  10.984  0.00  0.00    +0.000 C 
ATOM     28  C   UNL     1       5.245   2.025  11.762  0.00  0.00    +0.000 C 
ATOM     29  C   UNL     1       4.902   3.509  11.882  0.00  0.00    +0.000 C 
ENDBRANCH  23  24
ENDBRANCH  22  23
ENDBRANCH  20  22
ENDBRANCH   2  20
TORSDOF 7
ENDMDL
MODEL 9
REMARK VINA RESULT:      -7.4      2.232      5.161
REMARK  Name = 
REMARK  8 active torsions:
REMARK  status: ('A' for Active; 'I' for Inactive)
REMARK    1  A    between atoms: C_1  and  C_2
REMARK    2  A    between atoms: C_2  and  C_3
REMARK    3  A    between atoms: C_4  and  C_5
REMARK    4  A    between atoms: C_5  and  O_7
REMARK    5  A    between atoms: O_7  and  C_8
REMARK    6  A    between atoms: C_8  and  C_9
REMARK    7  A    between atoms: C_15  and  C_16
REMARK    8  A    between atoms: C_19  and  O_20
REMARK                            x       y       z     vdW  Elec       q    Type
REMARK                         _______ _______ _______ _____ _____    ______ ____
ROOT
ATOM      1  C   UNL     1       3.496   2.937  19.726  0.00  0.00    +0.000 C 
ATOM      2  C   UNL     1       3.892   4.024  19.023  0.00  0.00    +0.000 C 
ATOM      3  C   UNL     1       2.895   4.765  18.167  0.00  0.00    +0.000 C 
ATOM      4  N   UNL     1       1.773   3.908  17.819  0.00  0.00    +0.000 N 
ATOM      5  C   UNL     1       1.308   2.942  18.656  0.00  0.00    +0.000 C 
ATOM      6  O   UNL     1       0.181   2.475  18.552  0.00  0.00    +0.000 OA
ATOM      7  N   UNL     1       2.192   2.502  19.594  0.00  0.00    +0.000 N 
ATOM      8  H   UNL     1       1.066   4.272  17.196  0.00  0.00    +0.000 HD
ATOM      9  H   UNL     1       1.850   1.734  20.163  0.00  0.00    +0.000 HD
ENDROOT
BRANCH   3  10
ATOM     10  C   UNL     1       2.355   6.043  18.804  0.00  0.00    +0.000 A 
ATOM     11  C   UNL     1       1.984   6.057  20.159  0.00  0.00    +0.000 A 
ATOM     12  C   UNL     1       1.572   7.243  20.776  0.00  0.00    +0.000 A 
ATOM     13  C   UNL     1       1.532   8.423  20.039  0.00  0.00    +0.000 A 
ATOM     14  C   UNL     1       1.884   8.434  18.698  0.00  0.00    +0.000 A 
ATOM     15  C   UNL     1       2.290   7.251  18.082  0.00  0.00    +0.000 A 
BRANCH  13  16
ATOM     16  O   UNL     1       1.157   9.607  20.602  0.00  0.00    +0.000 OA
ATOM     17  H   UNL     1       0.329   9.900  20.188  0.00  0.00    +0.000 HD
ENDBRANCH  13  16
ENDBRANCH   3  10
BRANCH   1  19
ATOM     18  C   UNL     1       4.929   0.908  19.935  0.00  0.00    +0.000 C 
ATOM     19  C   UNL     1       4.324   2.093  20.673  0.00  0.00    +0.000 C 
ENDBRANCH   1  19
BRANCH   2  20
ATOM     20  C   UNL     1       5.290   4.530  19.094  0.00  0.00    +0.000 C 
ATOM     21  O   UNL     1       5.681   5.359  19.903  0.00  0.00    +0.000 OA
BRANCH  20  22
ATOM     22  O   UNL     1       6.082   3.997  18.128  0.00  0.00    +0.000 OA
BRANCH  22  23
ATOM     23  C   UNL     1       7.397   4.588  18.038  0.00  0.00    +0.000 C 
BRANCH  23  24
ATOM     24  C   UNL     1       7.663   5.379  16.739  0.00  0.00    +0.000 C 
ATOM     25  C   UNL     1       6.914   4.816  15.523  0.00  0.00    +0.000 C 
ATOM     26  C   UNL     1       5.408   5.055  15.601  0.00  0.00    +0.000 C 
ATOM     27  C   UNL     1       5.072   6.529  15.814  0.00  0.00    +0.000 C 
ATOM     28  C   UNL     1       5.823   7.140  16.994  0.00  0.00    +0.000 C 
ATOM     29  C   UNL     1       7.325   6.871  16.921  0.00  0.00    +0.000 C 
ENDBRANCH  23  24
ENDBRANCH  22  23
ENDBRANCH  20  22
ENDBRANCH   2  20
TORSDOF 7
ENDMDL
