MODEL 1
REMARK VINA RESULT:      -8.5      0.000      0.000
REMARK  Name = 
REMARK  5 active torsions:
REMARK  status: ('A' for Active; 'I' for Inactive)
REMARK    1  A    between atoms: C_1  and  O_2
REMARK    2  A    between atoms: O_2  and  C_3
REMARK    3  A    between atoms: C_9  and  N_10
REMARK    4  A    between atoms: N_13  and  C_14
REMARK    5  A    between atoms: N_25  and  C_26
REMARK                            x       y       z     vdW  Elec       q    Type
REMARK                         _______ _______ _______ _____ _____    ______ ____
ROOT
ATOM      1  N   UNL     1       1.193   9.304  19.090  0.00  0.00    +0.000 N 
ATOM      2  C   UNL     1       1.962   8.512  18.281  0.00  0.00    +0.000 C 
ATOM      3  O   UNL     1       2.296   8.898  17.164  0.00  0.00    +0.000 OA
ATOM      4  N   UNL     1       2.266   7.287  18.837  0.00  0.00    +0.000 N 
ATOM      5  H   UNL     1       1.139   9.115  20.082  0.00  0.00    +0.000 HD
ATOM      6  H   UNL     1       1.699   6.997  19.620  0.00  0.00    +0.000 HD
ENDROOT
BRANCH   1  13
ATOM      7  C   UNL     1      -2.645  10.187  17.111  0.00  0.00    +0.000 A 
ATOM      8  C   UNL     1      -3.436  10.876  18.019  0.00  0.00    +0.000 A 
ATOM      9  C   UNL     1      -2.857  11.491  19.140  0.00  0.00    +0.000 A 
ATOM     10  C   UNL     1      -1.477  11.441  19.396  0.00  0.00    +0.000 A 
ATOM     11  C   UNL     1      -0.690  10.734  18.466  0.00  0.00    +0.000 A 
ATOM     12  C   UNL     1      -1.276  10.115  17.342  0.00  0.00    +0.000 A 
ATOM     13  C   UNL     1       0.805  10.637  18.626  0.00  0.00    +0.000 C 
ATOM     14  C   UNL     1       1.340  11.755  19.519  0.00  0.00    +0.000 C 
ATOM     15  C   UNL     1       0.512  11.843  20.785  0.00  0.00    +0.000 C 
ATOM     16  N   UNL     1      -0.894  12.106  20.473  0.00  0.00    +0.000 N 
ATOM     17  C   UNL     1      -1.721  12.615  21.560  0.00  0.00    +0.000 C 
BRANCH   7  19
ATOM     18  C   UNL     1      -3.010  10.311  14.771  0.00  0.00    +0.000 C 
ATOM     19  O   UNL     1      -3.072   9.560  15.976  0.00  0.00    +0.000 OA
ENDBRANCH   7  19
ENDBRANCH   1  13
BRANCH   4  20
ATOM     20  C   UNL     1       3.055   6.288  18.204  0.00  0.00    +0.000 A 
ATOM     21  C   UNL     1       4.335   6.563  17.684  0.00  0.00    +0.000 A 
ATOM     22  C   UNL     1       5.075   5.612  16.981  0.00  0.00    +0.000 A 
ATOM     23  C   UNL     1       4.584   4.327  16.785  0.00  0.00    +0.000 A 
ATOM     24  C   UNL     1       3.342   4.034  17.351  0.00  0.00    +0.000 A 
ATOM     25  N   UNL     1       2.611   2.876  17.348  0.00  0.00    +0.000 N 
ATOM     26  N   UNL     1       1.449   2.959  18.016  0.00  0.00    +0.000 NA
ATOM     27  C   UNL     1       1.429   4.227  18.439  0.00  0.00    +0.000 A 
ATOM     28  C   UNL     1       2.579   4.964  18.059  0.00  0.00    +0.000 A 
ATOM     29  H   UNL     1       2.855   1.995  16.908  0.00  0.00    +0.000 HD
ENDBRANCH   4  20
TORSDOF 3
ENDMDL
MODEL 2
REMARK VINA RESULT:      -8.5      2.063      8.227
REMARK  Name = 
REMARK  5 active torsions:
REMARK  status: ('A' for Active; 'I' for Inactive)
REMARK    1  A    between atoms: C_1  and  O_2
REMARK    2  A    between atoms: O_2  and  C_3
REMARK    3  A    between atoms: C_9  and  N_10
REMARK    4  A    between atoms: N_13  and  C_14
REMARK    5  A    between atoms: N_25  and  C_26
REMARK                            x       y       z     vdW  Elec       q    Type
REMARK                         _______ _______ _______ _____ _____    ______ ____
ROOT
ATOM      1  N   UNL     1       2.345   7.403  18.752  0.00  0.00    +0.000 N 
ATOM      2  C   UNL     1       1.937   8.607  18.243  0.00  0.00    +0.000 C 
ATOM      3  O   UNL     1       1.971   8.817  17.034  0.00  0.00    +0.000 OA
ATOM      4  N   UNL     1       1.537   9.506  19.210  0.00  0.00    +0.000 N 
ATOM      5  H   UNL     1       2.078   7.130  19.689  0.00  0.00    +0.000 HD
ATOM      6  H   UNL     1       1.828   9.307  20.156  0.00  0.00    +0.000 HD
ENDROOT
BRANCH   1  13
ATOM      7  C   UNL     1       6.542   6.813  17.540  0.00  0.00    +0.000 A 
ATOM      8  C   UNL     1       7.009   5.678  18.188  0.00  0.00    +0.000 A 
ATOM      9  C   UNL     1       6.107   4.751  18.734  0.00  0.00    +0.000 A 
ATOM     10  C   UNL     1       4.716   4.921  18.657  0.00  0.00    +0.000 A 
ATOM     11  C   UNL     1       4.259   6.080  17.999  0.00  0.00    +0.000 A 
ATOM     12  C   UNL     1       5.168   7.011  17.454  0.00  0.00    +0.000 A 
ATOM     13  C   UNL     1       2.786   6.352  17.834  0.00  0.00    +0.000 C 
ATOM     14  C   UNL     1       1.968   5.068  17.964  0.00  0.00    +0.000 C 
ATOM     15  C   UNL     1       2.398   4.309  19.203  0.00  0.00    +0.000 C 
ATOM     16  N   UNL     1       3.820   3.970  19.142  0.00  0.00    +0.000 N 
ATOM     17  C   UNL     1       4.280   2.913  20.034  0.00  0.00    +0.000 C 
BRANCH   7  19
ATOM     18  C   UNL     1       7.991   8.669  17.824  0.00  0.00    +0.000 C 
ATOM     19  O   UNL     1       7.302   7.782  16.952  0.00  0.00    +0.000 OA
ENDBRANCH   7  19
ENDBRANCH   1  13
BRANCH   4  20
ATOM     20  C   UNL     1       1.064  10.819  18.942  0.00  0.00    +0.000 A 
ATOM     21  C   UNL     1       1.886  11.954  19.076  0.00  0.00    +0.000 A 
ATOM     22  C   UNL     1       1.404  13.252  18.905  0.00  0.00    +0.000 A 
ATOM     23  C   UNL     1       0.076  13.480  18.563  0.00  0.00    +0.000 A 
ATOM     24  C   UNL     1      -0.727  12.354  18.369  0.00  0.00    +0.000 A 
ATOM     25  N   UNL     1      -2.047  12.249  18.018  0.00  0.00    +0.000 N 
ATOM     26  N   UNL     1      -2.487  10.986  17.912  0.00  0.00    +0.000 NA
ATOM     27  C   UNL     1      -1.413  10.259  18.232  0.00  0.00    +0.000 A 
ATOM     28  C   UNL     1      -0.272  11.044  18.534  0.00  0.00    +0.000 A 
ATOM     29  H   UNL     1      -2.697  13.007  17.836  0.00  0.00    +0.000 HD
ENDBRANCH   4  20
TORSDOF 3
ENDMDL
MODEL 3
REMARK VINA RESULT:      -8.3      2.166      7.905
REMARK  Name = 
REMARK  5 active torsions:
REMARK  status: ('A' for Active; 'I' for Inactive)
REMARK    1  A    between atoms: C_1  and  O_2
REMARK    2  A    between atoms: O_2  and  C_3
REMARK    3  A    between atoms: C_9  and  N_10
REMARK    4  A    between atoms: N_13  and  C_14
REMARK    5  A    between atoms: N_25  and  C_26
REMARK                            x       y       z     vdW  Elec       q    Type
REMARK                         _______ _______ _______ _____ _____    ______ ____
ROOT
ATOM      1  N   UNL     1       2.697   7.831  17.591  0.00  0.00    +0.000 N 
ATOM      2  C   UNL     1       1.893   8.570  18.417  0.00  0.00    +0.000 C 
ATOM      3  O   UNL     1       1.964   8.441  19.635  0.00  0.00    +0.000 OA
ATOM      4  N   UNL     1       1.028   9.404  17.740  0.00  0.00    +0.000 N 
ATOM      5  H   UNL     1       2.834   8.112  16.629  0.00  0.00    +0.000 HD
ATOM      6  H   UNL     1       0.880   9.200  16.763  0.00  0.00    +0.000 HD
ENDROOT
BRANCH   1  13
ATOM      7  C   UNL     1       1.740   3.706  18.818  0.00  0.00    +0.000 A 
ATOM      8  C   UNL     1       2.316   2.849  17.890  0.00  0.00    +0.000 A 
ATOM      9  C   UNL     1       3.336   3.306  17.041  0.00  0.00    +0.000 A 
ATOM     10  C   UNL     1       3.815   4.624  17.083  0.00  0.00    +0.000 A 
ATOM     11  C   UNL     1       3.218   5.481  18.028  0.00  0.00    +0.000 A 
ATOM     12  C   UNL     1       2.191   5.020  18.878  0.00  0.00    +0.000 A 
ATOM     13  C   UNL     1       3.671   6.911  18.179  0.00  0.00    +0.000 C 
ATOM     14  C   UNL     1       5.081   7.105  17.624  0.00  0.00    +0.000 C 
ATOM     15  C   UNL     1       5.180   6.490  16.243  0.00  0.00    +0.000 C 
ATOM     16  N   UNL     1       4.872   5.060  16.285  0.00  0.00    +0.000 N 
ATOM     17  C   UNL     1       5.313   4.262  15.147  0.00  0.00    +0.000 C 
BRANCH   7  19
ATOM     18  C   UNL     1       1.180   2.954  20.996  0.00  0.00    +0.000 C 
ATOM     19  O   UNL     1       0.758   3.392  19.712  0.00  0.00    +0.000 OA
ENDBRANCH   7  19
ENDBRANCH   1  13
BRANCH   4  20
ATOM     20  C   UNL     1       0.097  10.278  18.366  0.00  0.00    +0.000 A 
ATOM     21  C   UNL     1       0.458  11.106  19.446  0.00  0.00    +0.000 A 
ATOM     22  C   UNL     1      -0.470  11.898  20.123  0.00  0.00    +0.000 A 
ATOM     23  C   UNL     1      -1.805  11.922  19.736  0.00  0.00    +0.000 A 
ATOM     24  C   UNL     1      -2.153  11.148  18.627  0.00  0.00    +0.000 A 
ATOM     25  N   UNL     1      -3.360  10.977  18.003  0.00  0.00    +0.000 N 
ATOM     26  N   UNL     1      -3.317  10.155  16.942  0.00  0.00    +0.000 NA
ATOM     27  C   UNL     1      -2.038   9.769  16.905  0.00  0.00    +0.000 A 
ATOM     28  C   UNL     1      -1.247  10.347  17.930  0.00  0.00    +0.000 A 
ATOM     29  H   UNL     1      -4.249  11.397  18.255  0.00  0.00    +0.000 HD
ENDBRANCH   4  20
TORSDOF 3
ENDMDL
MODEL 4
REMARK VINA RESULT:      -8.2      1.391      1.892
REMARK  Name = 
REMARK  5 active torsions:
REMARK  status: ('A' for Active; 'I' for Inactive)
REMARK    1  A    between atoms: C_1  and  O_2
REMARK    2  A    between atoms: O_2  and  C_3
REMARK    3  A    between atoms: C_9  and  N_10
REMARK    4  A    between atoms: N_13  and  C_14
REMARK    5  A    between atoms: N_25  and  C_26
REMARK                            x       y       z     vdW  Elec       q    Type
REMARK                         _______ _______ _______ _____ _____    ______ ____
ROOT
ATOM      1  N   UNL     1       1.417   8.986  19.281  0.00  0.00    +0.000 N 
ATOM      2  C   UNL     1       1.943   7.994  18.498  0.00  0.00    +0.000 C 
ATOM      3  O   UNL     1       2.192   8.200  17.313  0.00  0.00    +0.000 OA
ATOM      4  N   UNL     1       2.116   6.800  19.165  0.00  0.00    +0.000 N 
ATOM      5  H   UNL     1       1.458   8.914  20.289  0.00  0.00    +0.000 HD
ATOM      6  H   UNL     1       1.613   6.694  20.033  0.00  0.00    +0.000 HD
ENDROOT
BRANCH   1  13
ATOM      7  C   UNL     1      -2.276  10.134  17.165  0.00  0.00    +0.000 A 
ATOM      8  C   UNL     1      -2.989  10.985  17.998  0.00  0.00    +0.000 A 
ATOM      9  C   UNL     1      -2.351  11.622  19.074  0.00  0.00    +0.000 A 
ATOM     10  C   UNL     1      -0.989  11.435  19.359  0.00  0.00    +0.000 A 
ATOM     11  C   UNL     1      -0.282  10.566  18.505  0.00  0.00    +0.000 A 
ATOM     12  C   UNL     1      -0.926   9.924  17.426  0.00  0.00    +0.000 A 
ATOM     13  C   UNL     1       1.191  10.311  18.700  0.00  0.00    +0.000 C 
ATOM     14  C   UNL     1       1.844  11.432  19.506  0.00  0.00    +0.000 C 
ATOM     15  C   UNL     1       1.022  11.722  20.745  0.00  0.00    +0.000 C 
ATOM     16  N   UNL     1      -0.341  12.118  20.386  0.00  0.00    +0.000 N 
ATOM     17  C   UNL     1      -1.113  12.809  21.412  0.00  0.00    +0.000 C 
BRANCH   7  19
ATOM     18  C   UNL     1      -3.106  10.254  14.946  0.00  0.00    +0.000 C 
ATOM     19  O   UNL     1      -2.763   9.466  16.079  0.00  0.00    +0.000 OA
ENDBRANCH   7  19
ENDBRANCH   1  13
BRANCH   4  20
ATOM     20  C   UNL     1       2.651   5.620  18.580  0.00  0.00    +0.000 A 
ATOM     21  C   UNL     1       1.864   4.743  17.809  0.00  0.00    +0.000 A 
ATOM     22  C   UNL     1       2.359   3.538  17.309  0.00  0.00    +0.000 A 
ATOM     23  C   UNL     1       3.678   3.161  17.533  0.00  0.00    +0.000 A 
ATOM     24  C   UNL     1       4.478   4.057  18.246  0.00  0.00    +0.000 A 
ATOM     25  N   UNL     1       5.796   3.982  18.609  0.00  0.00    +0.000 N 
ATOM     26  N   UNL     1       6.239   5.051  19.289  0.00  0.00    +0.000 NA
ATOM     27  C   UNL     1       5.154   5.825  19.384  0.00  0.00    +0.000 A 
ATOM     28  C   UNL     1       4.010   5.268  18.758  0.00  0.00    +0.000 A 
ATOM     29  H   UNL     1       6.445   3.225  18.417  0.00  0.00    +0.000 HD
ENDBRANCH   4  20
TORSDOF 3
ENDMDL
MODEL 5
REMARK VINA RESULT:      -8.1      2.249      8.477
REMARK  Name = 
REMARK  5 active torsions:
REMARK  status: ('A' for Active; 'I' for Inactive)
REMARK    1  A    between atoms: C_1  and  O_2
REMARK    2  A    between atoms: O_2  and  C_3
REMARK    3  A    between atoms: C_9  and  N_10
REMARK    4  A    between atoms: N_13  and  C_14
REMARK    5  A    between atoms: N_25  and  C_26
REMARK                            x       y       z     vdW  Elec       q    Type
REMARK                         _______ _______ _______ _____ _____    ______ ____
ROOT
ATOM      1  N   UNL     1       2.583   7.265  18.948  0.00  0.00    +0.000 N 
ATOM      2  C   UNL     1       1.800   8.332  18.599  0.00  0.00    +0.000 C 
ATOM      3  O   UNL     1       1.437   8.486  17.436  0.00  0.00    +0.000 OA
ATOM      4  N   UNL     1       1.518   9.176  19.652  0.00  0.00    +0.000 N 
ATOM      5  H   UNL     1       2.663   6.989  19.918  0.00  0.00    +0.000 HD
ATOM      6  H   UNL     1       2.106   9.088  20.468  0.00  0.00    +0.000 HD
ENDROOT
BRANCH   1  13
ATOM      7  C   UNL     1       6.695   6.695  17.465  0.00  0.00    +0.000 A 
ATOM      8  C   UNL     1       7.169   5.503  17.994  0.00  0.00    +0.000 A 
ATOM      9  C   UNL     1       6.276   4.552  18.513  0.00  0.00    +0.000 A 
ATOM     10  C   UNL     1       4.887   4.754  18.526  0.00  0.00    +0.000 A 
ATOM     11  C   UNL     1       4.423   5.971  17.988  0.00  0.00    +0.000 A 
ATOM     12  C   UNL     1       5.323   6.925  17.470  0.00  0.00    +0.000 A 
ATOM     13  C   UNL     1       2.950   6.283  17.926  0.00  0.00    +0.000 C 
ATOM     14  C   UNL     1       2.111   5.009  17.998  0.00  0.00    +0.000 C 
ATOM     15  C   UNL     1       2.587   4.144  19.148  0.00  0.00    +0.000 C 
ATOM     16  N   UNL     1       3.996   3.784  18.981  0.00  0.00    +0.000 N 
ATOM     17  C   UNL     1       4.478   2.649  19.760  0.00  0.00    +0.000 C 
BRANCH   7  19
ATOM     18  C   UNL     1       7.927   8.692  17.804  0.00  0.00    +0.000 C 
ATOM     19  O   UNL     1       7.445   7.694  16.915  0.00  0.00    +0.000 OA
ENDBRANCH   7  19
ENDBRANCH   1  13
BRANCH   4  20
ATOM     20  C   UNL     1       0.721  10.349  19.554  0.00  0.00    +0.000 A 
ATOM     21  C   UNL     1      -0.593  10.406  20.057  0.00  0.00    +0.000 A 
ATOM     22  C   UNL     1      -1.412  11.521  19.882  0.00  0.00    +0.000 A 
ATOM     23  C   UNL     1      -0.949  12.651  19.217  0.00  0.00    +0.000 A 
ATOM     24  C   UNL     1       0.374  12.620  18.771  0.00  0.00    +0.000 A 
ATOM     25  N   UNL     1       1.114  13.564  18.109  0.00  0.00    +0.000 N 
ATOM     26  N   UNL     1       2.375  13.186  17.847  0.00  0.00    +0.000 NA
ATOM     27  C   UNL     1       2.432  11.945  18.339  0.00  0.00    +0.000 A 
ATOM     28  C   UNL     1       1.217  11.519  18.931  0.00  0.00    +0.000 A 
ATOM     29  H   UNL     1       0.812  14.486  17.812  0.00  0.00    +0.000 HD
ENDBRANCH   4  20
TORSDOF 3
ENDMDL
MODEL 6
REMARK VINA RESULT:      -8.0      2.332      8.441
REMARK  Name = 
REMARK  5 active torsions:
REMARK  status: ('A' for Active; 'I' for Inactive)
REMARK    1  A    between atoms: C_1  and  O_2
REMARK    2  A    between atoms: O_2  and  C_3
REMARK    3  A    between atoms: C_9  and  N_10
REMARK    4  A    between atoms: N_13  and  C_14
REMARK    5  A    between atoms: N_25  and  C_26
REMARK                            x       y       z     vdW  Elec       q    Type
REMARK                         _______ _______ _______ _____ _____    ______ ____
ROOT
ATOM      1  N   UNL     1       2.587   7.085  19.104  0.00  0.00    +0.000 N 
ATOM      2  C   UNL     1       1.833   8.205  18.878  0.00  0.00    +0.000 C 
ATOM      3  O   UNL     1       1.439   8.474  17.747  0.00  0.00    +0.000 OA
ATOM      4  N   UNL     1       1.617   8.960  20.011  0.00  0.00    +0.000 N 
ATOM      5  H   UNL     1       2.689   6.721  20.042  0.00  0.00    +0.000 HD
ATOM      6  H   UNL     1       2.227   8.780  20.794  0.00  0.00    +0.000 HD
ENDROOT
BRANCH   1  13
ATOM      7  C   UNL     1       6.605   6.599  17.355  0.00  0.00    +0.000 A 
ATOM      8  C   UNL     1       7.090   5.363  17.759  0.00  0.00    +0.000 A 
ATOM      9  C   UNL     1       6.214   4.382  18.247  0.00  0.00    +0.000 A 
ATOM     10  C   UNL     1       4.830   4.595  18.353  0.00  0.00    +0.000 A 
ATOM     11  C   UNL     1       4.355   5.856  17.942  0.00  0.00    +0.000 A 
ATOM     12  C   UNL     1       5.239   6.841  17.455  0.00  0.00    +0.000 A 
ATOM     13  C   UNL     1       2.885   6.187  17.987  0.00  0.00    +0.000 C 
ATOM     14  C   UNL     1       2.033   4.919  18.001  0.00  0.00    +0.000 C 
ATOM     15  C   UNL     1       2.559   3.958  19.049  0.00  0.00    +0.000 C 
ATOM     16  N   UNL     1       3.952   3.599  18.776  0.00  0.00    +0.000 N 
ATOM     17  C   UNL     1       4.459   2.400  19.433  0.00  0.00    +0.000 C 
BRANCH   7  19
ATOM     18  C   UNL     1       7.954   8.500  17.790  0.00  0.00    +0.000 C 
ATOM     19  O   UNL     1       7.338   7.632  16.848  0.00  0.00    +0.000 OA
ENDBRANCH   7  19
ENDBRANCH   1  13
BRANCH   4  20
ATOM     20  C   UNL     1       0.860  10.164  20.045  0.00  0.00    +0.000 A 
ATOM     21  C   UNL     1       0.798  11.040  18.945  0.00  0.00    +0.000 A 
ATOM     22  C   UNL     1       0.134  12.266  19.002  0.00  0.00    +0.000 A 
ATOM     23  C   UNL     1      -0.526  12.666  20.158  0.00  0.00    +0.000 A 
ATOM     24  C   UNL     1      -0.517  11.772  21.231  0.00  0.00    +0.000 A 
ATOM     25  N   UNL     1      -1.080  11.867  22.476  0.00  0.00    +0.000 N 
ATOM     26  N   UNL     1      -0.873  10.792  23.254  0.00  0.00    +0.000 NA
ATOM     27  C   UNL     1      -0.129   9.994  22.483  0.00  0.00    +0.000 A 
ATOM     28  C   UNL     1       0.139  10.540  21.202  0.00  0.00    +0.000 A 
ATOM     29  H   UNL     1      -1.619  12.640  22.850  0.00  0.00    +0.000 HD
ENDBRANCH   4  20
TORSDOF 3
ENDMDL
MODEL 7
REMARK VINA RESULT:      -8.0      2.176      8.140
REMARK  Name = 
REMARK  5 active torsions:
REMARK  status: ('A' for Active; 'I' for Inactive)
REMARK    1  A    between atoms: C_1  and  O_2
REMARK    2  A    between atoms: O_2  and  C_3
REMARK    3  A    between atoms: C_9  and  N_10
REMARK    4  A    between atoms: N_13  and  C_14
REMARK    5  A    between atoms: N_25  and  C_26
REMARK                            x       y       z     vdW  Elec       q    Type
REMARK                         _______ _______ _______ _____ _____    ______ ____
ROOT
ATOM      1  N   UNL     1       2.736   7.824  17.495  0.00  0.00    +0.000 N 
ATOM      2  C   UNL     1       1.925   8.593  18.285  0.00  0.00    +0.000 C 
ATOM      3  O   UNL     1       1.977   8.502  19.508  0.00  0.00    +0.000 OA
ATOM      4  N   UNL     1       1.074   9.409  17.570  0.00  0.00    +0.000 N 
ATOM      5  H   UNL     1       2.889   8.074  16.527  0.00  0.00    +0.000 HD
ATOM      6  H   UNL     1       0.940   9.175  16.597  0.00  0.00    +0.000 HD
ENDROOT
BRANCH   1  13
ATOM      7  C   UNL     1       1.751   3.729  18.798  0.00  0.00    +0.000 A 
ATOM      8  C   UNL     1       2.346   2.850  17.904  0.00  0.00    +0.000 A 
ATOM      9  C   UNL     1       3.385   3.286  17.066  0.00  0.00    +0.000 A 
ATOM     10  C   UNL     1       3.864   4.606  17.087  0.00  0.00    +0.000 A 
ATOM     11  C   UNL     1       3.247   5.485  17.998  0.00  0.00    +0.000 A 
ATOM     12  C   UNL     1       2.201   5.044  18.837  0.00  0.00    +0.000 A 
ATOM     13  C   UNL     1       3.698   6.917  18.126  0.00  0.00    +0.000 C 
ATOM     14  C   UNL     1       5.119   7.099  17.598  0.00  0.00    +0.000 C 
ATOM     15  C   UNL     1       5.248   6.451  16.234  0.00  0.00    +0.000 C 
ATOM     16  N   UNL     1       4.939   5.022  16.303  0.00  0.00    +0.000 N 
ATOM     17  C   UNL     1       5.404   4.197  15.194  0.00  0.00    +0.000 C 
BRANCH   7  19
ATOM     18  C   UNL     1       1.143   3.007  20.973  0.00  0.00    +0.000 C 
ATOM     19  O   UNL     1       0.749   3.436  19.677  0.00  0.00    +0.000 OA
ENDBRANCH   7  19
ENDBRANCH   1  13
BRANCH   4  20
ATOM     20  C   UNL     1       0.140  10.308  18.154  0.00  0.00    +0.000 A 
ATOM     21  C   UNL     1      -1.244  10.047  18.164  0.00  0.00    +0.000 A 
ATOM     22  C   UNL     1      -2.173  10.966  18.652  0.00  0.00    +0.000 A 
ATOM     23  C   UNL     1      -1.763  12.184  19.180  0.00  0.00    +0.000 A 
ATOM     24  C   UNL     1      -0.388  12.420  19.227  0.00  0.00    +0.000 A 
ATOM     25  N   UNL     1       0.318  13.496  19.695  0.00  0.00    +0.000 N 
ATOM     26  N   UNL     1       1.650  13.367  19.588  0.00  0.00    +0.000 NA
ATOM     27  C   UNL     1       1.796  12.173  19.006  0.00  0.00    +0.000 A 
ATOM     28  C   UNL     1       0.566  11.520  18.746  0.00  0.00    +0.000 A 
ATOM     29  H   UNL     1      -0.056  14.348  20.101  0.00  0.00    +0.000 HD
ENDBRANCH   4  20
TORSDOF 3
ENDMDL
MODEL 8
REMARK VINA RESULT:      -7.9      1.288      2.023
REMARK  Name = 
REMARK  5 active torsions:
REMARK  status: ('A' for Active; 'I' for Inactive)
REMARK    1  A    between atoms: C_1  and  O_2
REMARK    2  A    between atoms: O_2  and  C_3
REMARK    3  A    between atoms: C_9  and  N_10
REMARK    4  A    between atoms: N_13  and  C_14
REMARK    5  A    between atoms: N_25  and  C_26
REMARK                            x       y       z     vdW  Elec       q    Type
REMARK                         _______ _______ _______ _____ _____    ______ ____
ROOT
ATOM      1  N   UNL     1       1.423   9.405  19.140  0.00  0.00    +0.000 N 
ATOM      2  C   UNL     1       1.940   8.481  18.272  0.00  0.00    +0.000 C 
ATOM      3  O   UNL     1       2.059   8.745  17.079  0.00  0.00    +0.000 OA
ATOM      4  N   UNL     1       2.258   7.281  18.871  0.00  0.00    +0.000 N 
ATOM      5  H   UNL     1       1.564   9.301  20.136  0.00  0.00    +0.000 HD
ATOM      6  H   UNL     1       1.848   7.108  19.777  0.00  0.00    +0.000 HD
ENDROOT
BRANCH   1  13
ATOM      7  C   UNL     1      -2.491  10.328  17.334  0.00  0.00    +0.000 A 
ATOM      8  C   UNL     1      -3.208  11.082  18.251  0.00  0.00    +0.000 A 
ATOM      9  C   UNL     1      -2.549  11.726  19.310  0.00  0.00    +0.000 A 
ATOM     10  C   UNL     1      -1.159  11.641  19.493  0.00  0.00    +0.000 A 
ATOM     11  C   UNL     1      -0.447  10.869  18.554  0.00  0.00    +0.000 A 
ATOM     12  C   UNL     1      -1.114  10.220  17.493  0.00  0.00    +0.000 A 
ATOM     13  C   UNL     1       1.051  10.728  18.637  0.00  0.00    +0.000 C 
ATOM     14  C   UNL     1       1.669  11.867  19.447  0.00  0.00    +0.000 C 
ATOM     15  C   UNL     1       0.916  12.037  20.751  0.00  0.00    +0.000 C 
ATOM     16  N   UNL     1      -0.496  12.333  20.505  0.00  0.00    +0.000 N 
ATOM     17  C   UNL     1      -1.246  12.916  21.611  0.00  0.00    +0.000 C 
BRANCH   7  19
ATOM     18  C   UNL     1      -3.007  10.371  15.019  0.00  0.00    +0.000 C 
ATOM     19  O   UNL     1      -3.000   9.666  16.253  0.00  0.00    +0.000 OA
ENDBRANCH   7  19
ENDBRANCH   1  13
BRANCH   4  20
ATOM     20  C   UNL     1       2.815   6.164  18.191  0.00  0.00    +0.000 A 
ATOM     21  C   UNL     1       2.136   4.935  18.087  0.00  0.00    +0.000 A 
ATOM     22  C   UNL     1       2.715   3.808  17.502  0.00  0.00    +0.000 A 
ATOM     23  C   UNL     1       3.996   3.861  16.965  0.00  0.00    +0.000 A 
ATOM     24  C   UNL     1       4.648   5.094  17.013  0.00  0.00    +0.000 A 
ATOM     25  N   UNL     1       5.887   5.466  16.562  0.00  0.00    +0.000 N 
ATOM     26  N   UNL     1       6.181   6.759  16.771  0.00  0.00    +0.000 NA
ATOM     27  C   UNL     1       5.097   7.222  17.401  0.00  0.00    +0.000 A 
ATOM     28  C   UNL     1       4.095   6.238  17.591  0.00  0.00    +0.000 A 
ATOM     29  H   UNL     1       6.576   4.880  16.102  0.00  0.00    +0.000 HD
ENDBRANCH   4  20
TORSDOF 3
ENDMDL
MODEL 9
REMARK VINA RESULT:      -7.7      1.401      1.515
REMARK  Name = 
REMARK  5 active torsions:
REMARK  status: ('A' for Active; 'I' for Inactive)
REMARK    1  A    between atoms: C_1  and  O_2
REMARK    2  A    between atoms: O_2  and  C_3
REMARK    3  A    between atoms: C_9  and  N_10
REMARK    4  A    between atoms: N_13  and  C_14
REMARK    5  A    between atoms: N_25  and  C_26
REMARK                            x       y       z     vdW  Elec       q    Type
REMARK                         _______ _______ _______ _____ _____    ______ ____
ROOT
ATOM      1  N   UNL     1       0.429  10.201  19.350  0.00  0.00    +0.000 N 
ATOM      2  C   UNL     1       1.269   9.363  18.667  0.00  0.00    +0.000 C 
ATOM      3  O   UNL     1       1.573   9.599  17.501  0.00  0.00    +0.000 OA
ATOM      4  N   UNL     1       1.677   8.272  19.405  0.00  0.00    +0.000 N 
ATOM      5  H   UNL     1       0.386  10.166  20.359  0.00  0.00    +0.000 HD
ATOM      6  H   UNL     1       1.133   8.058  20.228  0.00  0.00    +0.000 HD
ENDROOT
BRANCH   1  13
ATOM      7  C   UNL     1      -3.103  10.256  16.713  0.00  0.00    +0.000 A 
ATOM      8  C   UNL     1      -4.134  10.876  17.406  0.00  0.00    +0.000 A 
ATOM      9  C   UNL     1      -3.855  11.672  18.528  0.00  0.00    +0.000 A 
ATOM     10  C   UNL     1      -2.548  11.876  18.999  0.00  0.00    +0.000 A 
ATOM     11  C   UNL     1      -1.515  11.237  18.286  0.00  0.00    +0.000 A 
ATOM     12  C   UNL     1      -1.799  10.435  17.161  0.00  0.00    +0.000 A 
ATOM     13  C   UNL     1      -0.072  11.406  18.687  0.00  0.00    +0.000 C 
ATOM     14  C   UNL     1       0.125  12.670  19.522  0.00  0.00    +0.000 C 
ATOM     15  C   UNL     1      -0.911  12.722  20.627  0.00  0.00    +0.000 C 
ATOM     16  N   UNL     1      -2.265  12.718  20.074  0.00  0.00    +0.000 N 
ATOM     17  C   UNL     1      -3.334  13.169  20.957  0.00  0.00    +0.000 C 
BRANCH   7  19
ATOM     18  C   UNL     1      -3.271  10.145  14.350  0.00  0.00    +0.000 C 
ATOM     19  O   UNL     1      -3.229   9.473  15.602  0.00  0.00    +0.000 OA
ENDBRANCH   7  19
ENDBRANCH   1  13
BRANCH   4  20
ATOM     20  C   UNL     1       2.554   7.260  18.929  0.00  0.00    +0.000 A 
ATOM     21  C   UNL     1       3.431   7.476  17.849  0.00  0.00    +0.000 A 
ATOM     22  C   UNL     1       4.228   6.461  17.317  0.00  0.00    +0.000 A 
ATOM     23  C   UNL     1       4.207   5.181  17.858  0.00  0.00    +0.000 A 
ATOM     24  C   UNL     1       3.383   4.979  18.968  0.00  0.00    +0.000 A 
ATOM     25  N   UNL     1       3.160   3.857  19.721  0.00  0.00    +0.000 N 
ATOM     26  N   UNL     1       2.299   4.039  20.734  0.00  0.00    +0.000 NA
ATOM     27  C   UNL     1       1.941   5.320  20.606  0.00  0.00    +0.000 A 
ATOM     28  C   UNL     1       2.575   5.974  19.520  0.00  0.00    +0.000 A 
ATOM     29  H   UNL     1       3.570   2.938  19.592  0.00  0.00    +0.000 HD
ENDBRANCH   4  20
TORSDOF 3
ENDMDL
