MODEL 1
REMARK VINA RESULT:      -8.6      0.000      0.000
REMARK  Name = 
REMARK  8 active torsions:
REMARK  status: ('A' for Active; 'I' for Inactive)
REMARK    1  A    between atoms: C_1  and  C_2
REMARK    2  A    between atoms: C_2  and  C_3
REMARK    3  A    between atoms: C_3  and  C_4
REMARK    4  A    between atoms: C_4  and  N_5
REMARK    5  A    between atoms: C_7  and  C_8
REMARK    6  A    between atoms: N_10  and  C_11
REMARK    7  A    between atoms: C_11  and  C_12
REMARK    8  A    between atoms: C_24  and  N_25
REMARK                            x       y       z     vdW  Elec       q    Type
REMARK                         _______ _______ _______ _____ _____    ______ ____
ROOT
ATOM      1  N   UNL     1      -0.668  11.060  18.857  0.00  0.00    +0.000 N 
ATOM      2  C   UNL     1       0.294  10.172  18.385  0.00  0.00    +0.000 A 
ATOM      3  C   UNL     1       1.058   9.341  19.117  0.00  0.00    +0.000 A 
ATOM      4  C   UNL     1       0.846   9.364  20.587  0.00  0.00    +0.000 A 
ATOM      5  O   UNL     1       1.479   8.619  21.321  0.00  0.00    +0.000 OA
ATOM      6  C   UNL     1      -0.165  10.310  21.127  0.00  0.00    +0.000 A 
ATOM      7  C   UNL     1      -0.400  10.362  22.498  0.00  0.00    +0.000 A 
ATOM      8  F   UNL     1       0.244   9.559  23.356  0.00  0.00    +0.000 F 
ATOM      9  C   UNL     1      -1.335  11.246  23.035  0.00  0.00    +0.000 A 
ATOM     10  C   UNL     1      -2.054  12.109  22.213  0.00  0.00    +0.000 A 
ATOM     11  C   UNL     1      -1.788  12.050  20.835  0.00  0.00    +0.000 A 
ATOM     12  C   UNL     1      -0.877  11.147  20.254  0.00  0.00    +0.000 A 
ENDROOT
BRANCH  10  13
ATOM     13  N   UNL     1      -2.976  13.014  22.691  0.00  0.00    +0.000 N 
ATOM     14  C   UNL     1      -3.290  13.146  24.120  0.00  0.00    +0.000 C 
ATOM     15  C   UNL     1      -4.744  12.746  24.392  0.00  0.00    +0.000 C 
ATOM     16  O   UNL     1      -5.658  13.474  23.555  0.00  0.00    +0.000 OA
ATOM     17  C   UNL     1      -5.383  13.207  22.170  0.00  0.00    +0.000 C 
ATOM     18  C   UNL     1      -3.958  13.633  21.781  0.00  0.00    +0.000 C 
ENDBRANCH  10  13
BRANCH   3  19
ATOM     19  C   UNL     1       2.047   8.443  18.447  0.00  0.00    +0.000 C 
ATOM     20  O   UNL     1       2.575   8.780  17.388  0.00  0.00    +0.000 OA
ATOM     21  N   UNL     1       2.317   7.245  19.063  0.00  0.00    +0.000 N 
ATOM     22  H   UNL     1       1.794   6.998  19.906  0.00  0.00    +0.000 HD
BRANCH  21  23
ATOM     23  C   UNL     1       3.218   6.268  18.491  0.00  0.00    +0.000 C 
BRANCH  23  24
ATOM     24  C   UNL     1       2.672   4.860  18.522  0.00  0.00    +0.000 A 
ATOM     25  C   UNL     1       1.713   4.482  19.473  0.00  0.00    +0.000 A 
ATOM     26  C   UNL     1       1.155   3.200  19.449  0.00  0.00    +0.000 A 
ATOM     27  C   UNL     1       1.565   2.275  18.491  0.00  0.00    +0.000 A 
ATOM     28  C   UNL     1       2.531   2.630  17.552  0.00  0.00    +0.000 A 
ATOM     29  C   UNL     1       3.079   3.917  17.564  0.00  0.00    +0.000 A 
ENDBRANCH  23  24
ENDBRANCH  21  23
ENDBRANCH   3  19
BRANCH   1  30
ATOM     30  C   UNL     1      -1.546  11.830  17.944  0.00  0.00    +0.000 C 
BRANCH  30  31
ATOM     31  C   UNL     1      -2.275  10.908  16.962  0.00  0.00    +0.000 C 
BRANCH  31  33
ATOM     32  C   UNL     1      -4.704  10.907  17.636  0.00  0.00    +0.000 C 
ATOM     33  C   UNL     1      -3.399  10.125  17.649  0.00  0.00    +0.000 C 
ENDBRANCH  31  33
ENDBRANCH  30  31
ENDBRANCH   1  30
TORSDOF 7
ENDMDL
MODEL 2
REMARK VINA RESULT:      -8.5      1.002      1.694
REMARK  Name = 
REMARK  8 active torsions:
REMARK  status: ('A' for Active; 'I' for Inactive)
REMARK    1  A    between atoms: C_1  and  C_2
REMARK    2  A    between atoms: C_2  and  C_3
REMARK    3  A    between atoms: C_3  and  C_4
REMARK    4  A    between atoms: C_4  and  N_5
REMARK    5  A    between atoms: C_7  and  C_8
REMARK    6  A    between atoms: N_10  and  C_11
REMARK    7  A    between atoms: C_11  and  C_12
REMARK    8  A    between atoms: C_24  and  N_25
REMARK                            x       y       z     vdW  Elec       q    Type
REMARK                         _______ _______ _______ _____ _____    ______ ____
ROOT
ATOM      1  N   UNL     1      -0.581  10.815  19.067  0.00  0.00    +0.000 N 
ATOM      2  C   UNL     1       0.391   9.870  18.751  0.00  0.00    +0.000 A 
ATOM      3  C   UNL     1       1.097   9.115  19.613  0.00  0.00    +0.000 A 
ATOM      4  C   UNL     1       0.800   9.300  21.056  0.00  0.00    +0.000 A 
ATOM      5  O   UNL     1       1.376   8.632  21.903  0.00  0.00    +0.000 OA
ATOM      6  C   UNL     1      -0.224  10.310  21.430  0.00  0.00    +0.000 A 
ATOM      7  C   UNL     1      -0.537  10.513  22.771  0.00  0.00    +0.000 A 
ATOM      8  F   UNL     1       0.042   9.800  23.747  0.00  0.00    +0.000 F 
ATOM      9  C   UNL     1      -1.486  11.460  23.153  0.00  0.00    +0.000 A 
ATOM     10  C   UNL     1      -2.141  12.237  22.201  0.00  0.00    +0.000 A 
ATOM     11  C   UNL     1      -1.796  12.026  20.856  0.00  0.00    +0.000 A 
ATOM     12  C   UNL     1      -0.869  11.055  20.431  0.00  0.00    +0.000 A 
ENDROOT
BRANCH  10  13
ATOM     13  N   UNL     1      -3.073  13.198  22.524  0.00  0.00    +0.000 N 
ATOM     14  C   UNL     1      -3.174  14.477  21.809  0.00  0.00    +0.000 C 
ATOM     15  C   UNL     1      -2.837  15.645  22.741  0.00  0.00    +0.000 C 
ATOM     16  O   UNL     1      -3.636  15.614  23.936  0.00  0.00    +0.000 OA
ATOM     17  C   UNL     1      -3.400  14.395  24.660  0.00  0.00    +0.000 C 
ATOM     18  C   UNL     1      -3.769  13.159  23.824  0.00  0.00    +0.000 C 
ENDBRANCH  10  13
BRANCH   3  19
ATOM     19  C   UNL     1       2.107   8.138  19.103  0.00  0.00    +0.000 C 
ATOM     20  O   UNL     1       2.721   8.365  18.062  0.00  0.00    +0.000 OA
ATOM     21  N   UNL     1       2.298   6.997  19.843  0.00  0.00    +0.000 N 
ATOM     22  H   UNL     1       1.708   6.840  20.664  0.00  0.00    +0.000 HD
BRANCH  21  23
ATOM     23  C   UNL     1       3.211   5.952  19.432  0.00  0.00    +0.000 C 
BRANCH  23  24
ATOM     24  C   UNL     1       2.527   4.636  19.149  0.00  0.00    +0.000 A 
ATOM     25  C   UNL     1       3.011   3.775  18.154  0.00  0.00    +0.000 A 
ATOM     26  C   UNL     1       2.421   2.524  17.947  0.00  0.00    +0.000 A 
ATOM     27  C   UNL     1       1.328   2.130  18.716  0.00  0.00    +0.000 A 
ATOM     28  C   UNL     1       0.825   2.982  19.696  0.00  0.00    +0.000 A 
ATOM     29  C   UNL     1       1.423   4.228  19.915  0.00  0.00    +0.000 A 
ENDBRANCH  23  24
ENDBRANCH  21  23
ENDBRANCH   3  19
BRANCH   1  30
ATOM     30  C   UNL     1      -1.391  11.491  18.026  0.00  0.00    +0.000 C 
BRANCH  30  31
ATOM     31  C   UNL     1      -2.250  10.488  17.249  0.00  0.00    +0.000 C 
BRANCH  31  33
ATOM     32  C   UNL     1      -2.930  10.245  14.834  0.00  0.00    +0.000 C 
ATOM     33  C   UNL     1      -2.951  11.149  16.057  0.00  0.00    +0.000 C 
ENDBRANCH  31  33
ENDBRANCH  30  31
ENDBRANCH   1  30
TORSDOF 7
ENDMDL
MODEL 3
REMARK VINA RESULT:      -8.5      0.884      1.295
REMARK  Name = 
REMARK  8 active torsions:
REMARK  status: ('A' for Active; 'I' for Inactive)
REMARK    1  A    between atoms: C_1  and  C_2
REMARK    2  A    between atoms: C_2  and  C_3
REMARK    3  A    between atoms: C_3  and  C_4
REMARK    4  A    between atoms: C_4  and  N_5
REMARK    5  A    between atoms: C_7  and  C_8
REMARK    6  A    between atoms: N_10  and  C_11
REMARK    7  A    between atoms: C_11  and  C_12
REMARK    8  A    between atoms: C_24  and  N_25
REMARK                            x       y       z     vdW  Elec       q    Type
REMARK                         _______ _______ _______ _____ _____    ______ ____
ROOT
ATOM      1  N   UNL     1      -0.811  11.128  18.987  0.00  0.00    +0.000 N 
ATOM      2  C   UNL     1       0.173  10.210  18.631  0.00  0.00    +0.000 A 
ATOM      3  C   UNL     1       0.896   9.435  19.461  0.00  0.00    +0.000 A 
ATOM      4  C   UNL     1       0.606   9.563  20.912  0.00  0.00    +0.000 A 
ATOM      5  O   UNL     1       1.198   8.874  21.730  0.00  0.00    +0.000 OA
ATOM      6  C   UNL     1      -0.430  10.544  21.328  0.00  0.00    +0.000 A 
ATOM      7  C   UNL     1      -0.736  10.694  22.678  0.00  0.00    +0.000 A 
ATOM      8  F   UNL     1      -0.140   9.955  23.624  0.00  0.00    +0.000 F 
ATOM      9  C   UNL     1      -1.697  11.612  23.101  0.00  0.00    +0.000 A 
ATOM     10  C   UNL     1      -2.369  12.412  22.181  0.00  0.00    +0.000 A 
ATOM     11  C   UNL     1      -2.032  12.256  20.827  0.00  0.00    +0.000 A 
ATOM     12  C   UNL     1      -1.093  11.315  20.361  0.00  0.00    +0.000 A 
ENDROOT
BRANCH  10  13
ATOM     13  N   UNL     1      -3.314  13.348  22.545  0.00  0.00    +0.000 N 
ATOM     14  C   UNL     1      -3.536  14.586  21.787  0.00  0.00    +0.000 C 
ATOM     15  C   UNL     1      -3.173  15.809  22.635  0.00  0.00    +0.000 C 
ATOM     16  O   UNL     1      -3.862  15.801  23.897  0.00  0.00    +0.000 OA
ATOM     17  C   UNL     1      -3.508  14.628  24.648  0.00  0.00    +0.000 C 
ATOM     18  C   UNL     1      -3.890  13.339  23.903  0.00  0.00    +0.000 C 
ENDBRANCH  10  13
BRANCH   3  19
ATOM     19  C   UNL     1       1.916   8.493  18.909  0.00  0.00    +0.000 C 
ATOM     20  O   UNL     1       2.552   8.787  17.898  0.00  0.00    +0.000 OA
ATOM     21  N   UNL     1       2.093   7.306  19.577  0.00  0.00    +0.000 N 
ATOM     22  H   UNL     1       1.486   7.096  20.373  0.00  0.00    +0.000 HD
BRANCH  21  23
ATOM     23  C   UNL     1       3.014   6.289  19.118  0.00  0.00    +0.000 C 
BRANCH  23  24
ATOM     24  C   UNL     1       2.399   4.912  19.043  0.00  0.00    +0.000 A 
ATOM     25  C   UNL     1       1.550   4.448  20.058  0.00  0.00    +0.000 A 
ATOM     26  C   UNL     1       0.922   3.203  19.947  0.00  0.00    +0.000 A 
ATOM     27  C   UNL     1       1.153   2.400  18.833  0.00  0.00    +0.000 A 
ATOM     28  C   UNL     1       2.009   2.840  17.825  0.00  0.00    +0.000 A 
ATOM     29  C   UNL     1       2.626   4.091  17.927  0.00  0.00    +0.000 A 
ENDBRANCH  23  24
ENDBRANCH  21  23
ENDBRANCH   3  19
BRANCH   1  30
ATOM     30  C   UNL     1      -1.638  11.829  17.977  0.00  0.00    +0.000 C 
BRANCH  30  31
ATOM     31  C   UNL     1      -2.218  10.848  16.952  0.00  0.00    +0.000 C 
BRANCH  31  33
ATOM     32  C   UNL     1      -4.460  11.060  18.084  0.00  0.00    +0.000 C 
ATOM     33  C   UNL     1      -3.430  10.097  17.512  0.00  0.00    +0.000 C 
ENDBRANCH  31  33
ENDBRANCH  30  31
ENDBRANCH   1  30
TORSDOF 7
ENDMDL
MODEL 4
REMARK VINA RESULT:      -8.4      0.768      1.184
REMARK  Name = 
REMARK  8 active torsions:
REMARK  status: ('A' for Active; 'I' for Inactive)
REMARK    1  A    between atoms: C_1  and  C_2
REMARK    2  A    between atoms: C_2  and  C_3
REMARK    3  A    between atoms: C_3  and  C_4
REMARK    4  A    between atoms: C_4  and  N_5
REMARK    5  A    between atoms: C_7  and  C_8
REMARK    6  A    between atoms: N_10  and  C_11
REMARK    7  A    between atoms: C_11  and  C_12
REMARK    8  A    between atoms: C_24  and  N_25
REMARK                            x       y       z     vdW  Elec       q    Type
REMARK                         _______ _______ _______ _____ _____    ______ ____
ROOT
ATOM      1  N   UNL     1      -0.539  10.717  19.006  0.00  0.00    +0.000 N 
ATOM      2  C   UNL     1       0.421   9.743  18.746  0.00  0.00    +0.000 A 
ATOM      3  C   UNL     1       1.104   9.017  19.651  0.00  0.00    +0.000 A 
ATOM      4  C   UNL     1       0.793   9.272  21.081  0.00  0.00    +0.000 A 
ATOM      5  O   UNL     1       1.348   8.635  21.964  0.00  0.00    +0.000 OA
ATOM      6  C   UNL     1      -0.219  10.315  21.394  0.00  0.00    +0.000 A 
ATOM      7  C   UNL     1      -0.545  10.583  22.721  0.00  0.00    +0.000 A 
ATOM      8  F   UNL     1       0.010   9.907  23.736  0.00  0.00    +0.000 F 
ATOM      9  C   UNL     1      -1.483  11.562  23.047  0.00  0.00    +0.000 A 
ATOM     10  C   UNL     1      -2.113  12.305  22.053  0.00  0.00    +0.000 A 
ATOM     11  C   UNL     1      -1.756  12.027  20.723  0.00  0.00    +0.000 A 
ATOM     12  C   UNL     1      -0.840  11.024  20.354  0.00  0.00    +0.000 A 
ENDROOT
BRANCH  10  13
ATOM     13  N   UNL     1      -3.034  13.294  22.319  0.00  0.00    +0.000 N 
ATOM     14  C   UNL     1      -2.716  14.475  23.133  0.00  0.00    +0.000 C 
ATOM     15  C   UNL     1      -3.543  14.479  24.423  0.00  0.00    +0.000 C 
ATOM     16  O   UNL     1      -4.949  14.357  24.149  0.00  0.00    +0.000 OA
ATOM     17  C   UNL     1      -5.217  13.123  23.464  0.00  0.00    +0.000 C 
ATOM     18  C   UNL     1      -4.475  13.049  22.119  0.00  0.00    +0.000 C 
ENDBRANCH  10  13
BRANCH   3  19
ATOM     19  C   UNL     1       2.104   8.003  19.199  0.00  0.00    +0.000 C 
ATOM     20  O   UNL     1       2.677   8.132  18.118  0.00  0.00    +0.000 OA
ATOM     21  N   UNL     1       2.335   6.939  20.038  0.00  0.00    +0.000 N 
ATOM     22  H   UNL     1       1.777   6.858  20.892  0.00  0.00    +0.000 HD
BRANCH  21  23
ATOM     23  C   UNL     1       3.241   5.866  19.695  0.00  0.00    +0.000 C 
BRANCH  23  24
ATOM     24  C   UNL     1       2.538   4.604  19.254  0.00  0.00    +0.000 A 
ATOM     25  C   UNL     1       2.997   3.875  18.148  0.00  0.00    +0.000 A 
ATOM     26  C   UNL     1       2.389   2.667  17.790  0.00  0.00    +0.000 A 
ATOM     27  C   UNL     1       1.304   2.187  18.519  0.00  0.00    +0.000 A 
ATOM     28  C   UNL     1       0.826   2.909  19.610  0.00  0.00    +0.000 A 
ATOM     29  C   UNL     1       1.441   4.110  19.979  0.00  0.00    +0.000 A 
ENDBRANCH  23  24
ENDBRANCH  21  23
ENDBRANCH   3  19
BRANCH   1  30
ATOM     30  C   UNL     1      -1.325  11.356  17.925  0.00  0.00    +0.000 C 
BRANCH  30  31
ATOM     31  C   UNL     1      -1.986  10.311  17.021  0.00  0.00    +0.000 C 
BRANCH  31  33
ATOM     32  C   UNL     1      -4.063  11.417  17.925  0.00  0.00    +0.000 C 
ATOM     33  C   UNL     1      -3.472  10.137  17.350  0.00  0.00    +0.000 C 
ENDBRANCH  31  33
ENDBRANCH  30  31
ENDBRANCH   1  30
TORSDOF 7
ENDMDL
MODEL 5
REMARK VINA RESULT:      -8.4      1.103      1.520
REMARK  Name = 
REMARK  8 active torsions:
REMARK  status: ('A' for Active; 'I' for Inactive)
REMARK    1  A    between atoms: C_1  and  C_2
REMARK    2  A    between atoms: C_2  and  C_3
REMARK    3  A    between atoms: C_3  and  C_4
REMARK    4  A    between atoms: C_4  and  N_5
REMARK    5  A    between atoms: C_7  and  C_8
REMARK    6  A    between atoms: N_10  and  C_11
REMARK    7  A    between atoms: C_11  and  C_12
REMARK    8  A    between atoms: C_24  and  N_25
REMARK                            x       y       z     vdW  Elec       q    Type
REMARK                         _______ _______ _______ _____ _____    ______ ____
ROOT
ATOM      1  N   UNL     1      -0.512  10.798  19.040  0.00  0.00    +0.000 N 
ATOM      2  C   UNL     1       0.438   9.827  18.738  0.00  0.00    +0.000 A 
ATOM      3  C   UNL     1       1.112   9.054  19.611  0.00  0.00    +0.000 A 
ATOM      4  C   UNL     1       0.801   9.249  21.050  0.00  0.00    +0.000 A 
ATOM      5  O   UNL     1       1.347   8.567  21.905  0.00  0.00    +0.000 OA
ATOM      6  C   UNL     1      -0.200  10.287  21.408  0.00  0.00    +0.000 A 
ATOM      7  C   UNL     1      -0.526  10.501  22.744  0.00  0.00    +0.000 A 
ATOM      8  F   UNL     1       0.020   9.774  23.730  0.00  0.00    +0.000 F 
ATOM      9  C   UNL     1      -1.454  11.474  23.113  0.00  0.00    +0.000 A 
ATOM     10  C   UNL     1      -2.074  12.267  22.152  0.00  0.00    +0.000 A 
ATOM     11  C   UNL     1      -1.718  12.045  20.811  0.00  0.00    +0.000 A 
ATOM     12  C   UNL     1      -0.812  11.048  20.400  0.00  0.00    +0.000 A 
ENDROOT
BRANCH  10  13
ATOM     13  N   UNL     1      -2.985  13.254  22.461  0.00  0.00    +0.000 N 
ATOM     14  C   UNL     1      -4.298  13.351  21.812  0.00  0.00    +0.000 C 
ATOM     15  C   UNL     1      -4.400  14.640  20.989  0.00  0.00    +0.000 C 
ATOM     16  O   UNL     1      -4.085  15.798  21.781  0.00  0.00    +0.000 OA
ATOM     17  C   UNL     1      -2.742  15.706  22.285  0.00  0.00    +0.000 C 
ATOM     18  C   UNL     1      -2.555  14.469  23.178  0.00  0.00    +0.000 C 
ENDBRANCH  10  13
BRANCH   3  19
ATOM     19  C   UNL     1       2.102   8.050  19.115  0.00  0.00    +0.000 C 
ATOM     20  O   UNL     1       2.649   8.201  18.024  0.00  0.00    +0.000 OA
ATOM     21  N   UNL     1       2.352   6.970  19.927  0.00  0.00    +0.000 N 
ATOM     22  H   UNL     1       1.815   6.871  20.792  0.00  0.00    +0.000 HD
BRANCH  21  23
ATOM     23  C   UNL     1       3.252   5.905  19.542  0.00  0.00    +0.000 C 
BRANCH  23  24
ATOM     24  C   UNL     1       2.547   4.602  19.249  0.00  0.00    +0.000 A 
ATOM     25  C   UNL     1       1.453   4.187  20.022  0.00  0.00    +0.000 A 
ATOM     26  C   UNL     1       0.756   3.018  19.700  0.00  0.00    +0.000 A 
ATOM     27  C   UNL     1       1.158   2.239  18.617  0.00  0.00    +0.000 A 
ATOM     28  C   UNL     1       2.255   2.629  17.851  0.00  0.00    +0.000 A 
ATOM     29  C   UNL     1       2.944   3.806  18.162  0.00  0.00    +0.000 A 
ENDBRANCH  23  24
ENDBRANCH  21  23
ENDBRANCH   3  19
BRANCH   1  30
ATOM     30  C   UNL     1      -1.289  11.494  17.987  0.00  0.00    +0.000 C 
BRANCH  30  31
ATOM     31  C   UNL     1      -2.201  10.522  17.232  0.00  0.00    +0.000 C 
BRANCH  31  33
ATOM     32  C   UNL     1      -2.959  10.165  14.855  0.00  0.00    +0.000 C 
ATOM     33  C   UNL     1      -2.811  11.172  15.986  0.00  0.00    +0.000 C 
ENDBRANCH  31  33
ENDBRANCH  30  31
ENDBRANCH   1  30
TORSDOF 7
ENDMDL
MODEL 6
REMARK VINA RESULT:      -8.3      0.845      1.500
REMARK  Name = 
REMARK  8 active torsions:
REMARK  status: ('A' for Active; 'I' for Inactive)
REMARK    1  A    between atoms: C_1  and  C_2
REMARK    2  A    between atoms: C_2  and  C_3
REMARK    3  A    between atoms: C_3  and  C_4
REMARK    4  A    between atoms: C_4  and  N_5
REMARK    5  A    between atoms: C_7  and  C_8
REMARK    6  A    between atoms: N_10  and  C_11
REMARK    7  A    between atoms: C_11  and  C_12
REMARK    8  A    between atoms: C_24  and  N_25
REMARK                            x       y       z     vdW  Elec       q    Type
REMARK                         _______ _______ _______ _____ _____    ______ ____
ROOT
ATOM      1  N   UNL     1      -0.773  11.057  18.888  0.00  0.00    +0.000 N 
ATOM      2  C   UNL     1       0.180  10.168  18.399  0.00  0.00    +0.000 A 
ATOM      3  C   UNL     1       0.979   9.360  19.121  0.00  0.00    +0.000 A 
ATOM      4  C   UNL     1       0.820   9.413  20.597  0.00  0.00    +0.000 A 
ATOM      5  O   UNL     1       1.487   8.690  21.323  0.00  0.00    +0.000 OA
ATOM      6  C   UNL     1      -0.180  10.360  21.153  0.00  0.00    +0.000 A 
ATOM      7  C   UNL     1      -0.365  10.439  22.530  0.00  0.00    +0.000 A 
ATOM      8  F   UNL     1       0.317   9.660  23.381  0.00  0.00    +0.000 F 
ATOM      9  C   UNL     1      -1.290  11.325  23.083  0.00  0.00    +0.000 A 
ATOM     10  C   UNL     1      -2.047  12.163  22.269  0.00  0.00    +0.000 A 
ATOM     11  C   UNL     1      -1.831  12.078  20.884  0.00  0.00    +0.000 A 
ATOM     12  C   UNL     1      -0.932  11.171  20.289  0.00  0.00    +0.000 A 
ENDROOT
BRANCH  10  13
ATOM     13  N   UNL     1      -2.961  13.069  22.762  0.00  0.00    +0.000 N 
ATOM     14  C   UNL     1      -4.404  12.952  22.518  0.00  0.00    +0.000 C 
ATOM     15  C   UNL     1      -4.906  14.129  21.675  0.00  0.00    +0.000 C 
ATOM     16  O   UNL     1      -4.544  15.391  22.262  0.00  0.00    +0.000 OA
ATOM     17  C   UNL     1      -3.115  15.501  22.360  0.00  0.00    +0.000 C 
ATOM     18  C   UNL     1      -2.519  14.392  23.242  0.00  0.00    +0.000 C 
ENDBRANCH  10  13
BRANCH   3  19
ATOM     19  C   UNL     1       1.952   8.458  18.433  0.00  0.00    +0.000 C 
ATOM     20  O   UNL     1       2.487   8.805  17.381  0.00  0.00    +0.000 OA
ATOM     21  N   UNL     1       2.202   7.244  19.027  0.00  0.00    +0.000 N 
ATOM     22  H   UNL     1       1.675   6.991  19.866  0.00  0.00    +0.000 HD
BRANCH  21  23
ATOM     23  C   UNL     1       3.085   6.262  18.438  0.00  0.00    +0.000 C 
BRANCH  23  24
ATOM     24  C   UNL     1       2.530   4.858  18.474  0.00  0.00    +0.000 A 
ATOM     25  C   UNL     1       2.904   3.913  17.507  0.00  0.00    +0.000 A 
ATOM     26  C   UNL     1       2.447   2.593  17.589  0.00  0.00    +0.000 A 
ATOM     27  C   UNL     1       1.596   2.210  18.623  0.00  0.00    +0.000 A 
ATOM     28  C   UNL     1       1.202   3.142  19.580  0.00  0.00    +0.000 A 
ATOM     29  C   UNL     1       1.669   4.459  19.509  0.00  0.00    +0.000 A 
ENDBRANCH  23  24
ENDBRANCH  21  23
ENDBRANCH   3  19
BRANCH   1  30
ATOM     30  C   UNL     1      -1.692  11.797  17.992  0.00  0.00    +0.000 C 
BRANCH  30  31
ATOM     31  C   UNL     1      -2.977  11.005  17.730  0.00  0.00    +0.000 C 
BRANCH  31  33
ATOM     32  C   UNL     1      -2.766  10.079  15.396  0.00  0.00    +0.000 C 
ATOM     33  C   UNL     1      -3.431  11.130  16.272  0.00  0.00    +0.000 C 
ENDBRANCH  31  33
ENDBRANCH  30  31
ENDBRANCH   1  30
TORSDOF 7
ENDMDL
MODEL 7
REMARK VINA RESULT:      -8.2      0.981      1.059
REMARK  Name = 
REMARK  8 active torsions:
REMARK  status: ('A' for Active; 'I' for Inactive)
REMARK    1  A    between atoms: C_1  and  C_2
REMARK    2  A    between atoms: C_2  and  C_3
REMARK    3  A    between atoms: C_3  and  C_4
REMARK    4  A    between atoms: C_4  and  N_5
REMARK    5  A    between atoms: C_7  and  C_8
REMARK    6  A    between atoms: N_10  and  C_11
REMARK    7  A    between atoms: C_11  and  C_12
REMARK    8  A    between atoms: C_24  and  N_25
REMARK                            x       y       z     vdW  Elec       q    Type
REMARK                         _______ _______ _______ _____ _____    ______ ____
ROOT
ATOM      1  N   UNL     1      -0.961  11.040  18.914  0.00  0.00    +0.000 N 
ATOM      2  C   UNL     1       0.042  10.097  18.706  0.00  0.00    +0.000 A 
ATOM      3  C   UNL     1       0.753   9.449  19.648  0.00  0.00    +0.000 A 
ATOM      4  C   UNL     1       0.425   9.764  21.062  0.00  0.00    +0.000 A 
ATOM      5  O   UNL     1       1.004   9.198  21.978  0.00  0.00    +0.000 OA
ATOM      6  C   UNL     1      -0.633  10.775  21.320  0.00  0.00    +0.000 A 
ATOM      7  C   UNL     1      -0.975  11.097  22.630  0.00  0.00    +0.000 A 
ATOM      8  F   UNL     1      -0.395  10.499  23.680  0.00  0.00    +0.000 F 
ATOM      9  C   UNL     1      -1.957  12.049  22.905  0.00  0.00    +0.000 A 
ATOM     10  C   UNL     1      -2.615  12.711  21.872  0.00  0.00    +0.000 A 
ATOM     11  C   UNL     1      -2.242  12.381  20.559  0.00  0.00    +0.000 A 
ATOM     12  C   UNL     1      -1.280  11.402  20.244  0.00  0.00    +0.000 A 
ENDROOT
BRANCH  10  13
ATOM     13  N   UNL     1      -3.580  13.671  22.086  0.00  0.00    +0.000 N 
ATOM     14  C   UNL     1      -3.360  14.836  22.953  0.00  0.00    +0.000 C 
ATOM     15  C   UNL     1      -4.290  14.787  24.170  0.00  0.00    +0.000 C 
ATOM     16  O   UNL     1      -5.666  14.639  23.777  0.00  0.00    +0.000 OA
ATOM     17  C   UNL     1      -5.844  13.419  23.041  0.00  0.00    +0.000 C 
ATOM     18  C   UNL     1      -4.993  13.398  21.761  0.00  0.00    +0.000 C 
ENDBRANCH  10  13
BRANCH   3  19
ATOM     19  C   UNL     1       1.798   8.458  19.250  0.00  0.00    +0.000 C 
ATOM     20  O   UNL     1       2.454   8.624  18.223  0.00  0.00    +0.000 OA
ATOM     21  N   UNL     1       1.973   7.374  20.075  0.00  0.00    +0.000 N 
ATOM     22  H   UNL     1       1.350   7.263  20.878  0.00  0.00    +0.000 HD
BRANCH  21  23
ATOM     23  C   UNL     1       2.918   6.320  19.777  0.00  0.00    +0.000 C 
BRANCH  23  24
ATOM     24  C   UNL     1       2.263   4.986  19.507  0.00  0.00    +0.000 A 
ATOM     25  C   UNL     1       1.747   4.214  20.557  0.00  0.00    +0.000 A 
ATOM     26  C   UNL     1       1.074   3.016  20.296  0.00  0.00    +0.000 A 
ATOM     27  C   UNL     1       0.929   2.566  18.985  0.00  0.00    +0.000 A 
ATOM     28  C   UNL     1       1.453   3.314  17.933  0.00  0.00    +0.000 A 
ATOM     29  C   UNL     1       2.114   4.519  18.191  0.00  0.00    +0.000 A 
ENDBRANCH  23  24
ENDBRANCH  21  23
ENDBRANCH   3  19
BRANCH   1  30
ATOM     30  C   UNL     1      -1.771  11.587  17.801  0.00  0.00    +0.000 C 
BRANCH  30  31
ATOM     31  C   UNL     1      -2.274  10.475  16.875  0.00  0.00    +0.000 C 
BRANCH  31  33
ATOM     32  C   UNL     1      -4.543  11.510  17.245  0.00  0.00    +0.000 C 
ATOM     33  C   UNL     1      -3.621  10.835  16.239  0.00  0.00    +0.000 C 
ENDBRANCH  31  33
ENDBRANCH  30  31
ENDBRANCH   1  30
TORSDOF 7
ENDMDL
MODEL 8
REMARK VINA RESULT:      -8.2      1.058      1.459
REMARK  Name = 
REMARK  8 active torsions:
REMARK  status: ('A' for Active; 'I' for Inactive)
REMARK    1  A    between atoms: C_1  and  C_2
REMARK    2  A    between atoms: C_2  and  C_3
REMARK    3  A    between atoms: C_3  and  C_4
REMARK    4  A    between atoms: C_4  and  N_5
REMARK    5  A    between atoms: C_7  and  C_8
REMARK    6  A    between atoms: N_10  and  C_11
REMARK    7  A    between atoms: C_11  and  C_12
REMARK    8  A    between atoms: C_24  and  N_25
REMARK                            x       y       z     vdW  Elec       q    Type
REMARK                         _______ _______ _______ _____ _____    ______ ____
ROOT
ATOM      1  N   UNL     1      -0.869  10.966  18.756  0.00  0.00    +0.000 N 
ATOM      2  C   UNL     1       0.125  10.073  18.368  0.00  0.00    +0.000 A 
ATOM      3  C   UNL     1       0.933   9.359  19.175  0.00  0.00    +0.000 A 
ATOM      4  C   UNL     1       0.735   9.534  20.636  0.00  0.00    +0.000 A 
ATOM      5  O   UNL     1       1.408   8.901  21.437  0.00  0.00    +0.000 OA
ATOM      6  C   UNL     1      -0.310  10.490  21.085  0.00  0.00    +0.000 A 
ATOM      7  C   UNL     1      -0.532  10.681  22.446  0.00  0.00    +0.000 A 
ATOM      8  F   UNL     1       0.155  10.004  23.377  0.00  0.00    +0.000 F 
ATOM      9  C   UNL     1      -1.499  11.579  22.899  0.00  0.00    +0.000 A 
ATOM     10  C   UNL     1      -2.263  12.316  21.999  0.00  0.00    +0.000 A 
ATOM     11  C   UNL     1      -2.010  12.118  20.631  0.00  0.00    +0.000 A 
ATOM     12  C   UNL     1      -1.067  11.196  20.138  0.00  0.00    +0.000 A 
ENDROOT
BRANCH  10  13
ATOM     13  N   UNL     1      -3.219  13.228  22.390  0.00  0.00    +0.000 N 
ATOM     14  C   UNL     1      -3.506  13.519  23.801  0.00  0.00    +0.000 C 
ATOM     15  C   UNL     1      -4.931  13.087  24.162  0.00  0.00    +0.000 C 
ATOM     16  O   UNL     1      -5.900  13.663  23.269  0.00  0.00    +0.000 OA
ATOM     17  C   UNL     1      -5.644  13.241  21.919  0.00  0.00    +0.000 C 
ATOM     18  C   UNL     1      -4.252  13.683  21.440  0.00  0.00    +0.000 C 
ENDBRANCH  10  13
BRANCH   3  19
ATOM     19  C   UNL     1       1.952   8.436  18.590  0.00  0.00    +0.000 C 
ATOM     20  O   UNL     1       2.489   8.702  17.516  0.00  0.00    +0.000 OA
ATOM     21  N   UNL     1       2.241   7.297  19.302  0.00  0.00    +0.000 N 
ATOM     22  H   UNL     1       1.711   7.104  20.156  0.00  0.00    +0.000 HD
BRANCH  21  23
ATOM     23  C   UNL     1       3.172   6.300  18.822  0.00  0.00    +0.000 C 
BRANCH  23  24
ATOM     24  C   UNL     1       3.082   4.988  19.564  0.00  0.00    +0.000 A 
ATOM     25  C   UNL     1       3.979   3.945  19.292  0.00  0.00    +0.000 A 
ATOM     26  C   UNL     1       3.940   2.761  20.034  0.00  0.00    +0.000 A 
ATOM     27  C   UNL     1       2.990   2.596  21.040  0.00  0.00    +0.000 A 
ATOM     28  C   UNL     1       2.080   3.616  21.309  0.00  0.00    +0.000 A 
ATOM     29  C   UNL     1       2.127   4.807  20.578  0.00  0.00    +0.000 A 
ENDBRANCH  23  24
ENDBRANCH  21  23
ENDBRANCH   3  19
BRANCH   1  30
ATOM     30  C   UNL     1      -1.790  11.594  17.779  0.00  0.00    +0.000 C 
BRANCH  30  31
ATOM     31  C   UNL     1      -2.854  10.603  17.298  0.00  0.00    +0.000 C 
BRANCH  31  33
ATOM     32  C   UNL     1      -2.951  10.238  14.805  0.00  0.00    +0.000 C 
ATOM     33  C   UNL     1      -3.487  11.050  15.976  0.00  0.00    +0.000 C 
ENDBRANCH  31  33
ENDBRANCH  30  31
ENDBRANCH   1  30
TORSDOF 7
ENDMDL
MODEL 9
REMARK VINA RESULT:      -7.9      1.725      2.278
REMARK  Name = 
REMARK  8 active torsions:
REMARK  status: ('A' for Active; 'I' for Inactive)
REMARK    1  A    between atoms: C_1  and  C_2
REMARK    2  A    between atoms: C_2  and  C_3
REMARK    3  A    between atoms: C_3  and  C_4
REMARK    4  A    between atoms: C_4  and  N_5
REMARK    5  A    between atoms: C_7  and  C_8
REMARK    6  A    between atoms: N_10  and  C_11
REMARK    7  A    between atoms: C_11  and  C_12
REMARK    8  A    between atoms: C_24  and  N_25
REMARK                            x       y       z     vdW  Elec       q    Type
REMARK                         _______ _______ _______ _____ _____    ______ ____
ROOT
ATOM      1  N   UNL     1       0.483  11.675  19.317  0.00  0.00    +0.000 N 
ATOM      2  C   UNL     1       1.166  10.635  18.691  0.00  0.00    +0.000 A 
ATOM      3  C   UNL     1       1.380   9.398  19.178  0.00  0.00    +0.000 A 
ATOM      4  C   UNL     1       0.819   9.106  20.522  0.00  0.00    +0.000 A 
ATOM      5  O   UNL     1       0.944   7.998  21.023  0.00  0.00    +0.000 OA
ATOM      6  C   UNL     1       0.095  10.198  21.224  0.00  0.00    +0.000 A 
ATOM      7  C   UNL     1      -0.450   9.966  22.483  0.00  0.00    +0.000 A 
ATOM      8  F   UNL     1      -0.368   8.769  23.080  0.00  0.00    +0.000 F 
ATOM      9  C   UNL     1      -1.127  10.973  23.171  0.00  0.00    +0.000 A 
ATOM     10  C   UNL     1      -1.266  12.243  22.618  0.00  0.00    +0.000 A 
ATOM     11  C   UNL     1      -0.693  12.458  21.354  0.00  0.00    +0.000 A 
ATOM     12  C   UNL     1      -0.034  11.456  20.616  0.00  0.00    +0.000 A 
ENDROOT
BRANCH  10  13
ATOM     13  N   UNL     1      -1.908  13.279  23.260  0.00  0.00    +0.000 N 
ATOM     14  C   UNL     1      -3.239  13.134  23.864  0.00  0.00    +0.000 C 
ATOM     15  C   UNL     1      -4.259  14.020  23.142  0.00  0.00    +0.000 C 
ATOM     16  O   UNL     1      -3.823  15.389  23.085  0.00  0.00    +0.000 OA
ATOM     17  C   UNL     1      -2.579  15.485  22.373  0.00  0.00    +0.000 C 
ATOM     18  C   UNL     1      -1.468  14.672  23.058  0.00  0.00    +0.000 C 
ENDBRANCH  10  13
BRANCH   3  19
ATOM     19  C   UNL     1       2.134   8.393  18.368  0.00  0.00    +0.000 C 
ATOM     20  O   UNL     1       2.473   8.652  17.215  0.00  0.00    +0.000 OA
ATOM     21  N   UNL     1       2.411   7.191  18.971  0.00  0.00    +0.000 N 
ATOM     22  H   UNL     1       2.043   7.015  19.909  0.00  0.00    +0.000 HD
BRANCH  21  23
ATOM     23  C   UNL     1       3.091   6.117  18.279  0.00  0.00    +0.000 C 
BRANCH  23  24
ATOM     24  C   UNL     1       2.487   4.758  18.540  0.00  0.00    +0.000 A 
ATOM     25  C   UNL     1       1.623   4.552  19.625  0.00  0.00    +0.000 A 
ATOM     26  C   UNL     1       1.006   3.312  19.818  0.00  0.00    +0.000 A 
ATOM     27  C   UNL     1       1.263   2.259  18.943  0.00  0.00    +0.000 A 
ATOM     28  C   UNL     1       2.133   2.443  17.871  0.00  0.00    +0.000 A 
ATOM     29  C   UNL     1       2.740   3.687  17.668  0.00  0.00    +0.000 A 
ENDBRANCH  23  24
ENDBRANCH  21  23
ENDBRANCH   3  19
BRANCH   1  30
ATOM     30  C   UNL     1       0.191  12.953  18.627  0.00  0.00    +0.000 C 
BRANCH  30  31
ATOM     31  C   UNL     1       1.443  13.830  18.521  0.00  0.00    +0.000 C 
BRANCH  31  33
ATOM     32  C   UNL     1      -0.299  15.512  19.221  0.00  0.00    +0.000 C 
ATOM     33  C   UNL     1       1.189  15.243  19.056  0.00  0.00    +0.000 C 
ENDBRANCH  31  33
ENDBRANCH  30  31
ENDBRANCH   1  30
TORSDOF 7
ENDMDL
