MODEL 1
REMARK VINA RESULT:      -8.0      0.000      0.000
REMARK  Name = 
REMARK  10 active torsions:
REMARK  status: ('A' for Active; 'I' for Inactive)
REMARK    1  A    between atoms: C_1  and  C_2
REMARK    2  A    between atoms: C_5  and  C_6
REMARK    3  A    between atoms: C_6  and  C_7
REMARK    4  A    between atoms: C_6  and  C_8
REMARK    5  A    between atoms: C_9  and  O_10
REMARK    6  A    between atoms: O_10  and  C_11
REMARK    7  A    between atoms: C_11  and  C_13
REMARK    8  A    between atoms: C_13  and  S_14
REMARK    9  A    between atoms: S_14  and  C_15
REMARK   10  A    between atoms: C_20  and  O_21
REMARK                            x       y       z     vdW  Elec       q    Type
REMARK                         _______ _______ _______ _____ _____    ______ ____
ROOT
ATOM      1  C   UNL     1       4.167   3.704  17.278  0.00  0.00    +0.000 C 
ATOM      2  O   UNL     1       4.128   2.477  17.328  0.00  0.00    +0.000 OA
ENDROOT
BRANCH   1   3
ATOM      3  O   UNL     1       3.637   4.537  18.215  0.00  0.00    +0.000 OA
BRANCH   3   9
ATOM      4  C   UNL     1       2.281   8.658  18.408  0.00  0.00    +0.000 C 
ATOM      5  C   UNL     1       2.537   7.211  18.828  0.00  0.00    +0.000 C 
ATOM      6  C   UNL     1       1.934   6.929  20.206  0.00  0.00    +0.000 C 
ATOM      7  C   UNL     1       2.113   5.470  20.626  0.00  0.00    +0.000 C 
ATOM      8  C   UNL     1       1.576   4.478  19.567  0.00  0.00    +0.000 C 
ATOM      9  C   UNL     1       2.217   4.775  18.182  0.00  0.00    +0.000 C 
ATOM     10  C   UNL     1       1.962   6.237  17.795  0.00  0.00    +0.000 C 
BRANCH   8  11
ATOM     11  C   UNL     1       1.734   3.002  20.022  0.00  0.00    +0.000 C 
ATOM     12  C   UNL     1       1.338   2.772  21.485  0.00  0.00    +0.000 C 
ATOM     13  C   UNL     1       0.937   2.020  19.161  0.00  0.00    +0.000 C 
ENDBRANCH   8  11
ENDBRANCH   3   9
ENDBRANCH   1   3
BRANCH   1  14
ATOM     14  C   UNL     1       4.759   4.438  16.096  0.00  0.00    +0.000 C 
BRANCH  14  15
ATOM     15  S   UNL     1       6.537   4.059  15.860  0.00  0.00    +0.000 S 
BRANCH  15  16
ATOM     16  C   UNL     1       7.285   5.178  17.032  0.00  0.00    +0.000 A 
ATOM     17  N   UNL     1       7.426   6.461  16.652  0.00  0.00    +0.000 NA
ATOM     18  C   UNL     1       7.793   7.338  17.596  0.00  0.00    +0.000 A 
ATOM     19  N   UNL     1       7.782   8.680  17.237  0.00  0.00    +0.000 N 
ATOM     20  C   UNL     1       8.049   6.973  18.895  0.00  0.00    +0.000 A 
ATOM     21  C   UNL     1       7.926   5.628  19.166  0.00  0.00    +0.000 A 
ATOM     22  N   UNL     1       7.559   4.714  18.259  0.00  0.00    +0.000 NA
ATOM     23  H   UNL     1       7.679   8.753  16.227  0.00  0.00    +0.000 HD
ATOM     24  H   UNL     1       8.554   9.229  17.594  0.00  0.00    +0.000 HD
BRANCH  21  25
ATOM     25  O   UNL     1       8.197   5.152  20.414  0.00  0.00    +0.000 OA
ATOM     26  H   UNL     1       7.524   4.484  20.648  0.00  0.00    +0.000 HD
ENDBRANCH  21  25
ENDBRANCH  15  16
ENDBRANCH  14  15
ENDBRANCH   1  14
TORSDOF 7
ENDMDL
MODEL 2
REMARK VINA RESULT:      -7.4      3.036      4.839
REMARK  Name = 
REMARK  10 active torsions:
REMARK  status: ('A' for Active; 'I' for Inactive)
REMARK    1  A    between atoms: C_1  and  C_2
REMARK    2  A    between atoms: C_5  and  C_6
REMARK    3  A    between atoms: C_6  and  C_7
REMARK    4  A    between atoms: C_6  and  C_8
REMARK    5  A    between atoms: C_9  and  O_10
REMARK    6  A    between atoms: O_10  and  C_11
REMARK    7  A    between atoms: C_11  and  C_13
REMARK    8  A    between atoms: C_13  and  S_14
REMARK    9  A    between atoms: S_14  and  C_15
REMARK   10  A    between atoms: C_20  and  O_21
REMARK                            x       y       z     vdW  Elec       q    Type
REMARK                         _______ _______ _______ _____ _____    ______ ____
ROOT
ATOM      1  C   UNL     1       6.214   5.357  18.738  0.00  0.00    +0.000 C 
ATOM      2  O   UNL     1       6.958   5.472  19.710  0.00  0.00    +0.000 OA
ENDROOT
BRANCH   1   3
ATOM      3  O   UNL     1       4.907   5.732  18.712  0.00  0.00    +0.000 OA
BRANCH   3   9
ATOM      4  C   UNL     1       3.448   1.656  18.372  0.00  0.00    +0.000 C 
ATOM      5  C   UNL     1       3.443   3.184  18.392  0.00  0.00    +0.000 C 
ATOM      6  C   UNL     1       2.028   3.727  18.184  0.00  0.00    +0.000 C 
ATOM      7  C   UNL     1       1.977   5.253  18.268  0.00  0.00    +0.000 C 
ATOM      8  C   UNL     1       2.599   5.796  19.577  0.00  0.00    +0.000 C 
ATOM      9  C   UNL     1       4.041   5.244  19.754  0.00  0.00    +0.000 C 
ATOM     10  C   UNL     1       4.020   3.711  19.710  0.00  0.00    +0.000 C 
BRANCH   8  11
ATOM     11  C   UNL     1       2.511   7.343  19.662  0.00  0.00    +0.000 C 
ATOM     12  C   UNL     1       2.263   8.014  18.305  0.00  0.00    +0.000 C 
ATOM     13  C   UNL     1       1.431   7.831  20.629  0.00  0.00    +0.000 C 
ENDBRANCH   8  11
ENDBRANCH   3   9
ENDBRANCH   1   3
BRANCH   1  14
ATOM     14  C   UNL     1       6.670   4.695  17.457  0.00  0.00    +0.000 C 
BRANCH  14  15
ATOM     15  S   UNL     1       5.344   4.636  16.193  0.00  0.00    +0.000 S 
BRANCH  15  16
ATOM     16  C   UNL     1       6.301   4.461  14.697  0.00  0.00    +0.000 A 
ATOM     17  N   UNL     1       5.856   3.580  13.783  0.00  0.00    +0.000 NA
ATOM     18  C   UNL     1       6.451   3.597  12.583  0.00  0.00    +0.000 A 
ATOM     19  N   UNL     1       5.885   2.798  11.596  0.00  0.00    +0.000 N 
ATOM     20  C   UNL     1       7.488   4.443  12.275  0.00  0.00    +0.000 A 
ATOM     21  C   UNL     1       7.901   5.268  13.298  0.00  0.00    +0.000 A 
ATOM     22  N   UNL     1       7.337   5.291  14.512  0.00  0.00    +0.000 NA
ATOM     23  H   UNL     1       5.208   2.171  12.025  0.00  0.00    +0.000 HD
ATOM     24  H   UNL     1       6.545   2.317  10.998  0.00  0.00    +0.000 HD
BRANCH  21  25
ATOM     25  O   UNL     1       8.950   6.119  13.113  0.00  0.00    +0.000 OA
ATOM     26  H   UNL     1       9.773   5.596  13.070  0.00  0.00    +0.000 HD
ENDBRANCH  21  25
ENDBRANCH  15  16
ENDBRANCH  14  15
ENDBRANCH   1  14
TORSDOF 7
ENDMDL
MODEL 3
REMARK VINA RESULT:      -7.4      1.239      1.790
REMARK  Name = 
REMARK  10 active torsions:
REMARK  status: ('A' for Active; 'I' for Inactive)
REMARK    1  A    between atoms: C_1  and  C_2
REMARK    2  A    between atoms: C_5  and  C_6
REMARK    3  A    between atoms: C_6  and  C_7
REMARK    4  A    between atoms: C_6  and  C_8
REMARK    5  A    between atoms: C_9  and  O_10
REMARK    6  A    between atoms: O_10  and  C_11
REMARK    7  A    between atoms: C_11  and  C_13
REMARK    8  A    between atoms: C_13  and  S_14
REMARK    9  A    between atoms: S_14  and  C_15
REMARK   10  A    between atoms: C_20  and  O_21
REMARK                            x       y       z     vdW  Elec       q    Type
REMARK                         _______ _______ _______ _____ _____    ______ ____
ROOT
ATOM      1  C   UNL     1       4.459   3.831  18.122  0.00  0.00    +0.000 C 
ATOM      2  O   UNL     1       4.868   2.890  18.798  0.00  0.00    +0.000 OA
ENDROOT
BRANCH   1   3
ATOM      3  O   UNL     1       3.802   4.915  18.615  0.00  0.00    +0.000 OA
BRANCH   3   9
ATOM      4  C   UNL     1       2.065   8.893  18.734  0.00  0.00    +0.000 C 
ATOM      5  C   UNL     1       2.372   7.450  19.132  0.00  0.00    +0.000 C 
ATOM      6  C   UNL     1       1.564   7.040  20.365  0.00  0.00    +0.000 C 
ATOM      7  C   UNL     1       1.798   5.579  20.748  0.00  0.00    +0.000 C 
ATOM      8  C   UNL     1       1.549   4.609  19.568  0.00  0.00    +0.000 C 
ATOM      9  C   UNL     1       2.395   5.038  18.336  0.00  0.00    +0.000 C 
ATOM     10  C   UNL     1       2.081   6.494  17.971  0.00  0.00    +0.000 C 
BRANCH   8  11
ATOM     11  C   UNL     1       1.757   3.128  19.981  0.00  0.00    +0.000 C 
ATOM     12  C   UNL     1       1.315   2.830  21.419  0.00  0.00    +0.000 C 
ATOM     13  C   UNL     1       1.042   2.140  19.057  0.00  0.00    +0.000 C 
ENDBRANCH   8  11
ENDBRANCH   3   9
ENDBRANCH   1   3
BRANCH   1  14
ATOM     14  C   UNL     1       4.582   3.844  16.614  0.00  0.00    +0.000 C 
BRANCH  14  15
ATOM     15  S   UNL     1       6.319   4.029  16.058  0.00  0.00    +0.000 S 
BRANCH  15  16
ATOM     16  C   UNL     1       6.915   5.265  17.199  0.00  0.00    +0.000 A 
ATOM     17  N   UNL     1       7.369   4.833  18.389  0.00  0.00    +0.000 NA
ATOM     18  C   UNL     1       8.004   5.729  19.159  0.00  0.00    +0.000 A 
ATOM     19  N   UNL     1       8.607   5.242  20.312  0.00  0.00    +0.000 N 
ATOM     20  C   UNL     1       8.175   7.041  18.793  0.00  0.00    +0.000 A 
ATOM     21  C   UNL     1       7.627   7.391  17.578  0.00  0.00    +0.000 A 
ATOM     22  N   UNL     1       6.988   6.533  16.772  0.00  0.00    +0.000 NA
ATOM     23  H   UNL     1       8.288   4.289  20.477  0.00  0.00    +0.000 HD
ATOM     24  H   UNL     1       8.519   5.833  21.129  0.00  0.00    +0.000 HD
BRANCH  21  25
ATOM     25  O   UNL     1       7.704   8.678  17.136  0.00  0.00    +0.000 OA
ATOM     26  H   UNL     1       7.730   8.673  16.159  0.00  0.00    +0.000 HD
ENDBRANCH  21  25
ENDBRANCH  15  16
ENDBRANCH  14  15
ENDBRANCH   1  14
TORSDOF 7
ENDMDL
MODEL 4
REMARK VINA RESULT:      -7.3      2.335      3.432
REMARK  Name = 
REMARK  10 active torsions:
REMARK  status: ('A' for Active; 'I' for Inactive)
REMARK    1  A    between atoms: C_1  and  C_2
REMARK    2  A    between atoms: C_5  and  C_6
REMARK    3  A    between atoms: C_6  and  C_7
REMARK    4  A    between atoms: C_6  and  C_8
REMARK    5  A    between atoms: C_9  and  O_10
REMARK    6  A    between atoms: O_10  and  C_11
REMARK    7  A    between atoms: C_11  and  C_13
REMARK    8  A    between atoms: C_13  and  S_14
REMARK    9  A    between atoms: S_14  and  C_15
REMARK   10  A    between atoms: C_20  and  O_21
REMARK                            x       y       z     vdW  Elec       q    Type
REMARK                         _______ _______ _______ _____ _____    ______ ____
ROOT
ATOM      1  C   UNL     1       4.349   3.997  17.685  0.00  0.00    +0.000 C 
ATOM      2  O   UNL     1       4.311   2.911  17.111  0.00  0.00    +0.000 OA
ENDROOT
BRANCH   1   3
ATOM      3  O   UNL     1       3.560   4.348  18.736  0.00  0.00    +0.000 OA
BRANCH   3   9
ATOM      4  C   UNL     1       2.412   8.503  18.214  0.00  0.00    +0.000 C 
ATOM      5  C   UNL     1       2.531   7.117  18.846  0.00  0.00    +0.000 C 
ATOM      6  C   UNL     1       1.735   7.042  20.151  0.00  0.00    +0.000 C 
ATOM      7  C   UNL     1       1.778   5.646  20.773  0.00  0.00    +0.000 C 
ATOM      8  C   UNL     1       1.336   4.541  19.783  0.00  0.00    +0.000 C 
ATOM      9  C   UNL     1       2.172   4.629  18.476  0.00  0.00    +0.000 C 
ATOM     10  C   UNL     1       2.050   6.035  17.874  0.00  0.00    +0.000 C 
BRANCH   8  11
ATOM     11  C   UNL     1       1.353   3.135  20.439  0.00  0.00    +0.000 C 
ATOM     12  C   UNL     1       1.605   2.001  19.438  0.00  0.00    +0.000 C 
ATOM     13  C   UNL     1       2.385   3.007  21.561  0.00  0.00    +0.000 C 
ENDBRANCH   8  11
ENDBRANCH   3   9
ENDBRANCH   1   3
BRANCH   1  14
ATOM     14  C   UNL     1       5.253   5.116  17.219  0.00  0.00    +0.000 C 
BRANCH  14  15
ATOM     15  S   UNL     1       6.941   4.527  16.815  0.00  0.00    +0.000 S 
BRANCH  15  16
ATOM     16  C   UNL     1       6.910   4.590  15.032  0.00  0.00    +0.000 A 
ATOM     17  N   UNL     1       7.701   5.501  14.437  0.00  0.00    +0.000 NA
ATOM     18  C   UNL     1       7.835   5.412  13.106  0.00  0.00    +0.000 A 
ATOM     19  N   UNL     1       8.773   6.252  12.518  0.00  0.00    +0.000 N 
ATOM     20  C   UNL     1       7.187   4.465  12.351  0.00  0.00    +0.000 A 
ATOM     21  C   UNL     1       6.362   3.614  13.053  0.00  0.00    +0.000 A 
ATOM     22  N   UNL     1       6.197   3.660  14.381  0.00  0.00    +0.000 NA
ATOM     23  H   UNL     1       9.068   6.948  13.199  0.00  0.00    +0.000 HD
ATOM     24  H   UNL     1       8.494   6.660  11.634  0.00  0.00    +0.000 HD
BRANCH  21  25
ATOM     25  O   UNL     1       5.640   2.662  12.397  0.00  0.00    +0.000 OA
ATOM     26  H   UNL     1       5.080   3.100  11.727  0.00  0.00    +0.000 HD
ENDBRANCH  21  25
ENDBRANCH  15  16
ENDBRANCH  14  15
ENDBRANCH   1  14
TORSDOF 7
ENDMDL
MODEL 5
REMARK VINA RESULT:      -7.2      2.796      3.605
REMARK  Name = 
REMARK  10 active torsions:
REMARK  status: ('A' for Active; 'I' for Inactive)
REMARK    1  A    between atoms: C_1  and  C_2
REMARK    2  A    between atoms: C_5  and  C_6
REMARK    3  A    between atoms: C_6  and  C_7
REMARK    4  A    between atoms: C_6  and  C_8
REMARK    5  A    between atoms: C_9  and  O_10
REMARK    6  A    between atoms: O_10  and  C_11
REMARK    7  A    between atoms: C_11  and  C_13
REMARK    8  A    between atoms: C_13  and  S_14
REMARK    9  A    between atoms: S_14  and  C_15
REMARK   10  A    between atoms: C_20  and  O_21
REMARK                            x       y       z     vdW  Elec       q    Type
REMARK                         _______ _______ _______ _____ _____    ______ ____
ROOT
ATOM      1  C   UNL     1       4.897   3.975  18.525  0.00  0.00    +0.000 C 
ATOM      2  O   UNL     1       5.268   3.045  19.237  0.00  0.00    +0.000 OA
ENDROOT
BRANCH   1   3
ATOM      3  O   UNL     1       4.080   4.985  18.929  0.00  0.00    +0.000 OA
BRANCH   3   9
ATOM      4  C   UNL     1       2.013   8.784  18.541  0.00  0.00    +0.000 C 
ATOM      5  C   UNL     1       2.395   7.409  19.086  0.00  0.00    +0.000 C 
ATOM      6  C   UNL     1       1.495   7.018  20.260  0.00  0.00    +0.000 C 
ATOM      7  C   UNL     1       1.808   5.616  20.785  0.00  0.00    +0.000 C 
ATOM      8  C   UNL     1       1.771   4.544  19.670  0.00  0.00    +0.000 C 
ATOM      9  C   UNL     1       2.706   4.957  18.499  0.00  0.00    +0.000 C 
ATOM     10  C   UNL     1       2.313   6.347  17.985  0.00  0.00    +0.000 C 
BRANCH   8  11
ATOM     11  C   UNL     1       2.057   3.122  20.223  0.00  0.00    +0.000 C 
ATOM     12  C   UNL     1       1.421   2.865  21.594  0.00  0.00    +0.000 C 
ATOM     13  C   UNL     1       1.602   2.007  19.279  0.00  0.00    +0.000 C 
ENDBRANCH   8  11
ENDBRANCH   3   9
ENDBRANCH   1   3
BRANCH   1  14
ATOM     14  C   UNL     1       5.262   4.054  17.059  0.00  0.00    +0.000 C 
BRANCH  14  15
ATOM     15  S   UNL     1       6.866   4.899  16.785  0.00  0.00    +0.000 S 
BRANCH  15  16
ATOM     16  C   UNL     1       7.082   4.664  15.029  0.00  0.00    +0.000 A 
ATOM     17  N   UNL     1       6.339   3.709  14.441  0.00  0.00    +0.000 NA
ATOM     18  C   UNL     1       6.347   3.671  13.102  0.00  0.00    +0.000 A 
ATOM     19  N   UNL     1       5.459   2.789  12.498  0.00  0.00    +0.000 N 
ATOM     20  C   UNL     1       7.091   4.534  12.334  0.00  0.00    +0.000 A 
ATOM     21  C   UNL     1       7.856   5.439  13.037  0.00  0.00    +0.000 A 
ATOM     22  N   UNL     1       7.879   5.519  14.373  0.00  0.00    +0.000 NA
ATOM     23  H   UNL     1       5.078   2.165  13.207  0.00  0.00    +0.000 HD
ATOM     24  H   UNL     1       5.820   2.295  11.692  0.00  0.00    +0.000 HD
BRANCH  21  25
ATOM     25  O   UNL     1       8.663   6.316  12.374  0.00  0.00    +0.000 OA
ATOM     26  H   UNL     1       8.193   6.636  11.581  0.00  0.00    +0.000 HD
ENDBRANCH  21  25
ENDBRANCH  15  16
ENDBRANCH  14  15
ENDBRANCH   1  14
TORSDOF 7
ENDMDL
MODEL 6
REMARK VINA RESULT:      -7.2      2.474      3.466
REMARK  Name = 
REMARK  10 active torsions:
REMARK  status: ('A' for Active; 'I' for Inactive)
REMARK    1  A    between atoms: C_1  and  C_2
REMARK    2  A    between atoms: C_5  and  C_6
REMARK    3  A    between atoms: C_6  and  C_7
REMARK    4  A    between atoms: C_6  and  C_8
REMARK    5  A    between atoms: C_9  and  O_10
REMARK    6  A    between atoms: O_10  and  C_11
REMARK    7  A    between atoms: C_11  and  C_13
REMARK    8  A    between atoms: C_13  and  S_14
REMARK    9  A    between atoms: S_14  and  C_15
REMARK   10  A    between atoms: C_20  and  O_21
REMARK                            x       y       z     vdW  Elec       q    Type
REMARK                         _______ _______ _______ _____ _____    ______ ____
ROOT
ATOM      1  C   UNL     1       5.064   4.554  18.676  0.00  0.00    +0.000 C 
ATOM      2  O   UNL     1       5.610   3.613  19.249  0.00  0.00    +0.000 OA
ENDROOT
BRANCH   1   3
ATOM      3  O   UNL     1       4.099   5.341  19.223  0.00  0.00    +0.000 OA
BRANCH   3   9
ATOM      4  C   UNL     1       1.709   8.955  18.930  0.00  0.00    +0.000 C 
ATOM      5  C   UNL     1       2.190   7.590  19.420  0.00  0.00    +0.000 C 
ATOM      6  C   UNL     1       1.273   7.051  20.520  0.00  0.00    +0.000 C 
ATOM      7  C   UNL     1       1.688   5.654  20.983  0.00  0.00    +0.000 C 
ATOM      8  C   UNL     1       1.806   4.651  19.811  0.00  0.00    +0.000 C 
ATOM      9  C   UNL     1       2.756   5.215  18.718  0.00  0.00    +0.000 C 
ATOM     10  C   UNL     1       2.261   6.593  18.259  0.00  0.00    +0.000 C 
BRANCH   8  11
ATOM     11  C   UNL     1       2.195   3.230  20.300  0.00  0.00    +0.000 C 
ATOM     12  C   UNL     1       1.446   2.798  21.567  0.00  0.00    +0.000 C 
ATOM     13  C   UNL     1       1.982   2.150  19.239  0.00  0.00    +0.000 C 
ENDBRANCH   8  11
ENDBRANCH   3   9
ENDBRANCH   1   3
BRANCH   1  14
ATOM     14  C   UNL     1       5.365   4.894  17.234  0.00  0.00    +0.000 C 
BRANCH  14  15
ATOM     15  S   UNL     1       7.084   4.470  16.762  0.00  0.00    +0.000 S 
BRANCH  15  16
ATOM     16  C   UNL     1       6.987   4.568  14.982  0.00  0.00    +0.000 A 
ATOM     17  N   UNL     1       7.747   5.497  14.376  0.00  0.00    +0.000 NA
ATOM     18  C   UNL     1       7.832   5.436  13.040  0.00  0.00    +0.000 A 
ATOM     19  N   UNL     1       8.740   6.296  12.434  0.00  0.00    +0.000 N 
ATOM     20  C   UNL     1       7.165   4.497  12.291  0.00  0.00    +0.000 A 
ATOM     21  C   UNL     1       6.374   3.625  13.006  0.00  0.00    +0.000 A 
ATOM     22  N   UNL     1       6.259   3.644  14.340  0.00  0.00    +0.000 NA
ATOM     23  H   UNL     1       9.055   6.981  13.118  0.00  0.00    +0.000 HD
ATOM     24  H   UNL     1       8.425   6.718  11.570  0.00  0.00    +0.000 HD
BRANCH  21  25
ATOM     25  O   UNL     1       5.637   2.679  12.358  0.00  0.00    +0.000 OA
ATOM     26  H   UNL     1       5.464   2.987  11.447  0.00  0.00    +0.000 HD
ENDBRANCH  21  25
ENDBRANCH  15  16
ENDBRANCH  14  15
ENDBRANCH   1  14
TORSDOF 7
ENDMDL
MODEL 7
REMARK VINA RESULT:      -7.1      3.038      6.366
REMARK  Name = 
REMARK  10 active torsions:
REMARK  status: ('A' for Active; 'I' for Inactive)
REMARK    1  A    between atoms: C_1  and  C_2
REMARK    2  A    between atoms: C_5  and  C_6
REMARK    3  A    between atoms: C_6  and  C_7
REMARK    4  A    between atoms: C_6  and  C_8
REMARK    5  A    between atoms: C_9  and  O_10
REMARK    6  A    between atoms: O_10  and  C_11
REMARK    7  A    between atoms: C_11  and  C_13
REMARK    8  A    between atoms: C_13  and  S_14
REMARK    9  A    between atoms: S_14  and  C_15
REMARK   10  A    between atoms: C_20  and  O_21
REMARK                            x       y       z     vdW  Elec       q    Type
REMARK                         _______ _______ _______ _____ _____    ______ ____
ROOT
ATOM      1  C   UNL     1       3.613   7.000  17.575  0.00  0.00    +0.000 C 
ATOM      2  O   UNL     1       3.685   8.218  17.428  0.00  0.00    +0.000 OA
ENDROOT
BRANCH   1   3
ATOM      3  O   UNL     1       4.583   6.115  17.219  0.00  0.00    +0.000 OA
BRANCH   3   9
ATOM      4  C   UNL     1       5.309   3.816  13.608  0.00  0.00    +0.000 C 
ATOM      5  C   UNL     1       5.533   4.414  14.995  0.00  0.00    +0.000 C 
ATOM      6  C   UNL     1       6.899   4.007  15.551  0.00  0.00    +0.000 C 
ATOM      7  C   UNL     1       7.182   4.647  16.911  0.00  0.00    +0.000 C 
ATOM      8  C   UNL     1       7.024   6.186  16.886  0.00  0.00    +0.000 C 
ATOM      9  C   UNL     1       5.623   6.572  16.335  0.00  0.00    +0.000 C 
ATOM     10  C   UNL     1       5.418   5.942  14.952  0.00  0.00    +0.000 C 
BRANCH   8  11
ATOM     11  C   UNL     1       7.348   6.824  18.264  0.00  0.00    +0.000 C 
ATOM     12  C   UNL     1       8.011   5.849  19.244  0.00  0.00    +0.000 C 
ATOM     13  C   UNL     1       8.241   8.062  18.158  0.00  0.00    +0.000 C 
ENDBRANCH   8  11
ENDBRANCH   3   9
ENDBRANCH   1   3
BRANCH   1  14
ATOM     14  C   UNL     1       2.367   6.333  18.114  0.00  0.00    +0.000 C 
BRANCH  14  15
ATOM     15  S   UNL     1       2.303   6.353  19.946  0.00  0.00    +0.000 S 
BRANCH  15  16
ATOM     16  C   UNL     1       2.523   4.621  20.317  0.00  0.00    +0.000 A 
ATOM     17  N   UNL     1       3.581   4.004  19.763  0.00  0.00    +0.000 NA
ATOM     18  C   UNL     1       3.863   2.770  20.201  0.00  0.00    +0.000 A 
ATOM     19  N   UNL     1       5.045   2.201  19.743  0.00  0.00    +0.000 N 
ATOM     20  C   UNL     1       3.110   2.123  21.151  0.00  0.00    +0.000 A 
ATOM     21  C   UNL     1       2.018   2.824  21.615  0.00  0.00    +0.000 A 
ATOM     22  N   UNL     1       1.697   4.060  21.212  0.00  0.00    +0.000 NA
ATOM     23  H   UNL     1       5.409   2.764  18.977  0.00  0.00    +0.000 HD
ATOM     24  H   UNL     1       4.992   1.216  19.516  0.00  0.00    +0.000 HD
BRANCH  21  25
ATOM     25  O   UNL     1       1.180   2.260  22.530  0.00  0.00    +0.000 OA
ATOM     26  H   UNL     1       1.487   2.499  23.426  0.00  0.00    +0.000 HD
ENDBRANCH  21  25
ENDBRANCH  15  16
ENDBRANCH  14  15
ENDBRANCH   1  14
TORSDOF 7
ENDMDL
MODEL 8
REMARK VINA RESULT:      -7.1      0.934      2.960
REMARK  Name = 
REMARK  10 active torsions:
REMARK  status: ('A' for Active; 'I' for Inactive)
REMARK    1  A    between atoms: C_1  and  C_2
REMARK    2  A    between atoms: C_5  and  C_6
REMARK    3  A    between atoms: C_6  and  C_7
REMARK    4  A    between atoms: C_6  and  C_8
REMARK    5  A    between atoms: C_9  and  O_10
REMARK    6  A    between atoms: O_10  and  C_11
REMARK    7  A    between atoms: C_11  and  C_13
REMARK    8  A    between atoms: C_13  and  S_14
REMARK    9  A    between atoms: S_14  and  C_15
REMARK   10  A    between atoms: C_20  and  O_21
REMARK                            x       y       z     vdW  Elec       q    Type
REMARK                         _______ _______ _______ _____ _____    ______ ____
ROOT
ATOM      1  C   UNL     1       4.029   3.502  17.019  0.00  0.00    +0.000 C 
ATOM      2  O   UNL     1       4.178   2.282  17.009  0.00  0.00    +0.000 OA
ENDROOT
BRANCH   1   3
ATOM      3  O   UNL     1       3.162   4.172  17.824  0.00  0.00    +0.000 OA
BRANCH   3   9
ATOM      4  C   UNL     1       2.475   2.634  21.827  0.00  0.00    +0.000 C 
ATOM      5  C   UNL     1       2.378   3.546  20.605  0.00  0.00    +0.000 C 
ATOM      6  C   UNL     1       1.488   4.756  20.898  0.00  0.00    +0.000 C 
ATOM      7  C   UNL     1       1.425   5.725  19.716  0.00  0.00    +0.000 C 
ATOM      8  C   UNL     1       2.829   6.166  19.236  0.00  0.00    +0.000 C 
ATOM      9  C   UNL     1       3.705   4.919  18.929  0.00  0.00    +0.000 C 
ATOM     10  C   UNL     1       3.769   4.012  20.164  0.00  0.00    +0.000 C 
BRANCH   8  11
ATOM     11  C   UNL     1       2.749   7.175  18.059  0.00  0.00    +0.000 C 
ATOM     12  C   UNL     1       2.023   8.476  18.423  0.00  0.00    +0.000 C 
ATOM     13  C   UNL     1       4.120   7.547  17.491  0.00  0.00    +0.000 C 
ENDBRANCH   8  11
ENDBRANCH   3   9
ENDBRANCH   1   3
BRANCH   1  14
ATOM     14  C   UNL     1       4.763   4.404  16.051  0.00  0.00    +0.000 C 
BRANCH  14  15
ATOM     15  S   UNL     1       6.540   3.977  15.913  0.00  0.00    +0.000 S 
BRANCH  15  16
ATOM     16  C   UNL     1       7.260   5.121  17.079  0.00  0.00    +0.000 A 
ATOM     17  N   UNL     1       7.425   6.392  16.670  0.00  0.00    +0.000 NA
ATOM     18  C   UNL     1       7.769   7.290  17.603  0.00  0.00    +0.000 A 
ATOM     19  N   UNL     1       7.783   8.622  17.209  0.00  0.00    +0.000 N 
ATOM     20  C   UNL     1       7.980   6.958  18.919  0.00  0.00    +0.000 A 
ATOM     21  C   UNL     1       7.836   5.621  19.221  0.00  0.00    +0.000 A 
ATOM     22  N   UNL     1       7.490   4.687  18.326  0.00  0.00    +0.000 NA
ATOM     23  H   UNL     1       7.713   8.669  16.195  0.00  0.00    +0.000 HD
ATOM     24  H   UNL     1       8.548   9.174  17.576  0.00  0.00    +0.000 HD
BRANCH  21  25
ATOM     25  O   UNL     1       8.061   5.176  20.489  0.00  0.00    +0.000 OA
ATOM     26  H   UNL     1       7.855   4.222  20.528  0.00  0.00    +0.000 HD
ENDBRANCH  21  25
ENDBRANCH  15  16
ENDBRANCH  14  15
ENDBRANCH   1  14
TORSDOF 7
ENDMDL
MODEL 9
REMARK VINA RESULT:      -7.0      0.841      1.015
REMARK  Name = 
REMARK  10 active torsions:
REMARK  status: ('A' for Active; 'I' for Inactive)
REMARK    1  A    between atoms: C_1  and  C_2
REMARK    2  A    between atoms: C_5  and  C_6
REMARK    3  A    between atoms: C_6  and  C_7
REMARK    4  A    between atoms: C_6  and  C_8
REMARK    5  A    between atoms: C_9  and  O_10
REMARK    6  A    between atoms: O_10  and  C_11
REMARK    7  A    between atoms: C_11  and  C_13
REMARK    8  A    between atoms: C_13  and  S_14
REMARK    9  A    between atoms: S_14  and  C_15
REMARK   10  A    between atoms: C_20  and  O_21
REMARK                            x       y       z     vdW  Elec       q    Type
REMARK                         _______ _______ _______ _____ _____    ______ ____
ROOT
ATOM      1  C   UNL     1       4.169   3.504  17.305  0.00  0.00    +0.000 C 
ATOM      2  O   UNL     1       3.665   2.387  17.213  0.00  0.00    +0.000 OA
ENDROOT
BRANCH   1   3
ATOM      3  O   UNL     1       3.714   4.497  18.116  0.00  0.00    +0.000 OA
BRANCH   3   9
ATOM      4  C   UNL     1       2.194   8.565  18.135  0.00  0.00    +0.000 C 
ATOM      5  C   UNL     1       2.565   7.170  18.638  0.00  0.00    +0.000 C 
ATOM      6  C   UNL     1       2.137   6.984  20.095  0.00  0.00    +0.000 C 
ATOM      7  C   UNL     1       2.433   5.574  20.607  0.00  0.00    +0.000 C 
ATOM      8  C   UNL     1       1.826   4.475  19.701  0.00  0.00    +0.000 C 
ATOM      9  C   UNL     1       2.290   4.677  18.231  0.00  0.00    +0.000 C 
ATOM     10  C   UNL     1       1.924   6.090  17.760  0.00  0.00    +0.000 C 
BRANCH   8  11
ATOM     11  C   UNL     1       2.105   3.051  20.251  0.00  0.00    +0.000 C 
ATOM     12  C   UNL     1       3.563   2.839  20.678  0.00  0.00    +0.000 C 
ATOM     13  C   UNL     1       1.212   2.678  21.436  0.00  0.00    +0.000 C 
ENDBRANCH   8  11
ENDBRANCH   3   9
ENDBRANCH   1   3
BRANCH   1  14
ATOM     14  C   UNL     1       5.338   3.926  16.443  0.00  0.00    +0.000 C 
BRANCH  14  15
ATOM     15  S   UNL     1       5.306   5.718  16.055  0.00  0.00    +0.000 S 
BRANCH  15  16
ATOM     16  C   UNL     1       6.630   6.317  17.091  0.00  0.00    +0.000 A 
ATOM     17  N   UNL     1       7.029   7.588  16.902  0.00  0.00    +0.000 NA
ATOM     18  C   UNL     1       7.872   8.101  17.808  0.00  0.00    +0.000 A 
ATOM     19  N   UNL     1       8.156   9.457  17.697  0.00  0.00    +0.000 N 
ATOM     20  C   UNL     1       8.348   7.382  18.877  0.00  0.00    +0.000 A 
ATOM     21  C   UNL     1       7.918   6.075  18.949  0.00  0.00    +0.000 A 
ATOM     22  N   UNL     1       7.074   5.519  18.071  0.00  0.00    +0.000 NA
ATOM     23  H   UNL     1       7.813   9.795  16.800  0.00  0.00    +0.000 HD
ATOM     24  H   UNL     1       9.120   9.713  17.871  0.00  0.00    +0.000 HD
BRANCH  21  25
ATOM     25  O   UNL     1       8.361   5.261  19.948  0.00  0.00    +0.000 OA
ATOM     26  H   UNL     1       7.649   4.633  20.179  0.00  0.00    +0.000 HD
ENDBRANCH  21  25
ENDBRANCH  15  16
ENDBRANCH  14  15
ENDBRANCH   1  14
TORSDOF 7
ENDMDL
