MODEL 1
REMARK VINA RESULT:      -8.3      0.000      0.000
REMARK  Name = 
REMARK  5 active torsions:
REMARK  status: ('A' for Active; 'I' for Inactive)
REMARK    1  A    between atoms: C_2  and  C_3
REMARK    2  A    between atoms: C_3  and  N_4
REMARK    3  A    between atoms: N_4  and  C_5
REMARK    4  A    between atoms: N_12  and  N_13
REMARK    5  A    between atoms: C_14  and  C_15
REMARK                            x       y       z     vdW  Elec       q    Type
REMARK                         _______ _______ _______ _____ _____    ______ ____
ROOT
ATOM      1  O   UNL     1       8.218   6.828  18.816  0.00  0.00    +0.000 OA
ATOM      2  C   UNL     1       7.739   7.674  18.062  0.00  0.00    +0.000 C 
ATOM      3  N   UNL     1       6.640   7.482  17.230  0.00  0.00    +0.000 N 
ATOM      4  H   UNL     1       6.217   8.272  16.755  0.00  0.00    +0.000 HD
ENDROOT
BRANCH   3   5
ATOM      5  N   UNL     1       6.034   6.262  17.193  0.00  0.00    +0.000 NA
ATOM      6  C   UNL     1       4.884   6.170  17.785  0.00  0.00    +0.000 C 
BRANCH   6   7
ATOM      7  C   UNL     1       4.148   4.882  17.841  0.00  0.00    +0.000 A 
ATOM      8  C   UNL     1       4.556   3.870  16.970  0.00  0.00    +0.000 A 
ATOM      9  C   UNL     1       3.912   2.656  17.040  0.00  0.00    +0.000 A 
ATOM     10  N   UNL     1       2.913   2.393  17.903  0.00  0.00    +0.000 NA
ATOM     11  C   UNL     1       2.512   3.365  18.737  0.00  0.00    +0.000 A 
ATOM     12  C   UNL     1       1.482   3.068  19.620  0.00  0.00    +0.000 A 
ATOM     13  C   UNL     1       0.983   4.010  20.521  0.00  0.00    +0.000 A 
ATOM     14  C   UNL     1       1.524   5.286  20.544  0.00  0.00    +0.000 A 
ATOM     15  C   UNL     1       2.563   5.609  19.672  0.00  0.00    +0.000 A 
ATOM     16  C   UNL     1       3.086   4.657  18.756  0.00  0.00    +0.000 A 
ENDBRANCH   6   7
ENDBRANCH   3   5
BRANCH   2  17
ATOM     17  C   UNL     1       8.323   9.085  17.970  0.00  0.00    +0.000 C 
BRANCH  17  18
ATOM     18  N   UNL     1       9.110   9.404  19.172  0.00  0.00    +0.000 N 
ATOM     19  H   UNL     1       9.802   8.671  19.345  0.00  0.00    +0.000 HD
BRANCH  18  20
ATOM     20  C   UNL     1       9.706  10.679  19.215  0.00  0.00    +0.000 A 
ATOM     21  C   UNL     1       9.620  11.438  20.391  0.00  0.00    +0.000 A 
ATOM     22  C   UNL     1      10.144  12.736  20.463  0.00  0.00    +0.000 A 
ATOM     23  C   UNL     1      10.731  13.312  19.339  0.00  0.00    +0.000 A 
ATOM     24  C   UNL     1      10.779  12.589  18.152  0.00  0.00    +0.000 A 
ATOM     25 CL   UNL     1      11.469  13.301  16.744  0.00  0.00    +0.000 Cl
ATOM     26  C   UNL     1      10.263  11.292  18.085  0.00  0.00    +0.000 A 
ENDBRANCH  18  20
ENDBRANCH  17  18
ENDBRANCH   2  17
TORSDOF 5
ENDMDL
MODEL 2
REMARK VINA RESULT:      -8.2      1.203      1.213
REMARK  Name = 
REMARK  5 active torsions:
REMARK  status: ('A' for Active; 'I' for Inactive)
REMARK    1  A    between atoms: C_2  and  C_3
REMARK    2  A    between atoms: C_3  and  N_4
REMARK    3  A    between atoms: N_4  and  C_5
REMARK    4  A    between atoms: N_12  and  N_13
REMARK    5  A    between atoms: C_14  and  C_15
REMARK                            x       y       z     vdW  Elec       q    Type
REMARK                         _______ _______ _______ _____ _____    ______ ____
ROOT
ATOM      1  O   UNL     1       7.000   7.580  16.902  0.00  0.00    +0.000 OA
ATOM      2  C   UNL     1       7.530   7.271  17.967  0.00  0.00    +0.000 C 
ATOM      3  N   UNL     1       7.253   6.123  18.701  0.00  0.00    +0.000 N 
ATOM      4  H   UNL     1       7.841   5.867  19.488  0.00  0.00    +0.000 HD
ENDROOT
BRANCH   3   5
ATOM      5  N   UNL     1       6.298   5.257  18.256  0.00  0.00    +0.000 NA
ATOM      6  C   UNL     1       5.123   5.368  18.793  0.00  0.00    +0.000 C 
BRANCH   6   7
ATOM      7  C   UNL     1       4.014   4.457  18.414  0.00  0.00    +0.000 A 
ATOM      8  C   UNL     1       3.927   4.073  17.074  0.00  0.00    +0.000 A 
ATOM      9  C   UNL     1       2.931   3.194  16.715  0.00  0.00    +0.000 A 
ATOM     10  N   UNL     1       2.041   2.683  17.587  0.00  0.00    +0.000 NA
ATOM     11  C   UNL     1       2.116   3.055  18.874  0.00  0.00    +0.000 A 
ATOM     12  C   UNL     1       1.188   2.513  19.753  0.00  0.00    +0.000 A 
ATOM     13  C   UNL     1       1.172   2.841  21.110  0.00  0.00    +0.000 A 
ATOM     14  C   UNL     1       2.106   3.737  21.607  0.00  0.00    +0.000 A 
ATOM     15  C   UNL     1       3.053   4.291  20.746  0.00  0.00    +0.000 A 
ATOM     16  C   UNL     1       3.086   3.959  19.366  0.00  0.00    +0.000 A 
ENDBRANCH   6   7
ENDBRANCH   3   5
BRANCH   2  17
ATOM     17  C   UNL     1       8.604   8.151  18.610  0.00  0.00    +0.000 C 
BRANCH  17  18
ATOM     18  N   UNL     1       8.494   9.540  18.137  0.00  0.00    +0.000 N 
ATOM     19  H   UNL     1       7.540   9.884  18.271  0.00  0.00    +0.000 HD
BRANCH  18  20
ATOM     20  C   UNL     1       9.434  10.456  18.647  0.00  0.00    +0.000 A 
ATOM     21  C   UNL     1       9.476  10.701  20.027  0.00  0.00    +0.000 A 
ATOM     22  C   UNL     1      10.351  11.648  20.575  0.00  0.00    +0.000 A 
ATOM     23  C   UNL     1      11.176  12.398  19.739  0.00  0.00    +0.000 A 
ATOM     24  C   UNL     1      11.109  12.201  18.365  0.00  0.00    +0.000 A 
ATOM     25 CL   UNL     1      12.095  13.146  17.316  0.00  0.00    +0.000 Cl
ATOM     26  C   UNL     1      10.241  11.251  17.821  0.00  0.00    +0.000 A 
ENDBRANCH  18  20
ENDBRANCH  17  18
ENDBRANCH   2  17
TORSDOF 5
ENDMDL
MODEL 3
REMARK VINA RESULT:      -8.1      3.334      9.874
REMARK  Name = 
REMARK  5 active torsions:
REMARK  status: ('A' for Active; 'I' for Inactive)
REMARK    1  A    between atoms: C_2  and  C_3
REMARK    2  A    between atoms: C_3  and  N_4
REMARK    3  A    between atoms: N_4  and  C_5
REMARK    4  A    between atoms: N_12  and  N_13
REMARK    5  A    between atoms: C_14  and  C_15
REMARK                            x       y       z     vdW  Elec       q    Type
REMARK                         _______ _______ _______ _____ _____    ______ ____
ROOT
ATOM      1  O   UNL     1       6.105   7.278  16.827  0.00  0.00    +0.000 OA
ATOM      2  C   UNL     1       7.029   6.881  17.534  0.00  0.00    +0.000 C 
ATOM      3  N   UNL     1       7.996   7.687  18.124  0.00  0.00    +0.000 N 
ATOM      4  H   UNL     1       8.632   7.300  18.813  0.00  0.00    +0.000 HD
ENDROOT
BRANCH   3   5
ATOM      5  N   UNL     1       7.974   9.032  17.900  0.00  0.00    +0.000 NA
ATOM      6  C   UNL     1       8.975   9.712  18.367  0.00  0.00    +0.000 C 
BRANCH   6   7
ATOM      7  C   UNL     1       9.040  11.187  18.216  0.00  0.00    +0.000 A 
ATOM      8  C   UNL     1       7.956  11.820  17.605  0.00  0.00    +0.000 A 
ATOM      9  C   UNL     1       7.982  13.192  17.497  0.00  0.00    +0.000 A 
ATOM     10  N   UNL     1       8.996  13.954  17.950  0.00  0.00    +0.000 NA
ATOM     11  C   UNL     1      10.044  13.349  18.531  0.00  0.00    +0.000 A 
ATOM     12  C   UNL     1      11.075  14.157  18.992  0.00  0.00    +0.000 A 
ATOM     13  C   UNL     1      12.215  13.629  19.601  0.00  0.00    +0.000 A 
ATOM     14  C   UNL     1      12.333  12.257  19.755  0.00  0.00    +0.000 A 
ATOM     15  C   UNL     1      11.309  11.423  19.306  0.00  0.00    +0.000 A 
ATOM     16  C   UNL     1      10.141  11.948  18.692  0.00  0.00    +0.000 A 
ENDBRANCH   6   7
ENDBRANCH   3   5
BRANCH   2  17
ATOM     17  C   UNL     1       7.205   5.396  17.859  0.00  0.00    +0.000 C 
BRANCH  17  18
ATOM     18  N   UNL     1       6.413   5.023  19.041  0.00  0.00    +0.000 N 
ATOM     19  H   UNL     1       6.453   5.766  19.742  0.00  0.00    +0.000 HD
BRANCH  18  20
ATOM     20  C   UNL     1       5.083   4.623  18.808  0.00  0.00    +0.000 A 
ATOM     21  C   UNL     1       4.755   3.999  17.596  0.00  0.00    +0.000 A 
ATOM     22  C   UNL     1       3.435   3.639  17.293  0.00  0.00    +0.000 A 
ATOM     23  C   UNL     1       2.411   3.937  18.188  0.00  0.00    +0.000 A 
ATOM     24  C   UNL     1       2.714   4.600  19.372  0.00  0.00    +0.000 A 
ATOM     25 CL   UNL     1       1.453   5.007  20.472  0.00  0.00    +0.000 Cl
ATOM     26  C   UNL     1       4.032   4.951  19.676  0.00  0.00    +0.000 A 
ENDBRANCH  18  20
ENDBRANCH  17  18
ENDBRANCH   2  17
TORSDOF 5
ENDMDL
MODEL 4
REMARK VINA RESULT:      -8.0      1.113      1.482
REMARK  Name = 
REMARK  5 active torsions:
REMARK  status: ('A' for Active; 'I' for Inactive)
REMARK    1  A    between atoms: C_2  and  C_3
REMARK    2  A    between atoms: C_3  and  N_4
REMARK    3  A    between atoms: N_4  and  C_5
REMARK    4  A    between atoms: N_12  and  N_13
REMARK    5  A    between atoms: C_14  and  C_15
REMARK                            x       y       z     vdW  Elec       q    Type
REMARK                         _______ _______ _______ _____ _____    ______ ____
ROOT
ATOM      1  O   UNL     1       8.217   6.813  18.788  0.00  0.00    +0.000 OA
ATOM      2  C   UNL     1       7.767   7.645  18.001  0.00  0.00    +0.000 C 
ATOM      3  N   UNL     1       6.662   7.458  17.177  0.00  0.00    +0.000 N 
ATOM      4  H   UNL     1       6.265   8.243  16.671  0.00  0.00    +0.000 HD
ENDROOT
BRANCH   3   5
ATOM      5  N   UNL     1       6.013   6.259  17.187  0.00  0.00    +0.000 NA
ATOM      6  C   UNL     1       4.787   6.268  17.608  0.00  0.00    +0.000 C 
BRANCH   6   7
ATOM      7  C   UNL     1       3.994   5.016  17.698  0.00  0.00    +0.000 A 
ATOM      8  C   UNL     1       4.281   4.007  16.777  0.00  0.00    +0.000 A 
ATOM      9  C   UNL     1       3.584   2.823  16.875  0.00  0.00    +0.000 A 
ATOM     10  N   UNL     1       2.646   2.588  17.811  0.00  0.00    +0.000 NA
ATOM     11  C   UNL     1       2.363   3.559  18.694  0.00  0.00    +0.000 A 
ATOM     12  C   UNL     1       1.393   3.291  19.651  0.00  0.00    +0.000 A 
ATOM     13  C   UNL     1       1.015   4.234  20.608  0.00  0.00    +0.000 A 
ATOM     14  C   UNL     1       1.619   5.482  20.612  0.00  0.00    +0.000 A 
ATOM     15  C   UNL     1       2.600   5.775  19.666  0.00  0.00    +0.000 A 
ATOM     16  C   UNL     1       3.000   4.821  18.692  0.00  0.00    +0.000 A 
ENDBRANCH   6   7
ENDBRANCH   3   5
BRANCH   2  17
ATOM     17  C   UNL     1       8.398   9.031  17.854  0.00  0.00    +0.000 C 
BRANCH  17  18
ATOM     18  N   UNL     1       9.070   9.432  19.100  0.00  0.00    +0.000 N 
ATOM     19  H   UNL     1       9.821   8.775  19.324  0.00  0.00    +0.000 HD
BRANCH  18  20
ATOM     20  C   UNL     1       9.531  10.761  19.168  0.00  0.00    +0.000 A 
ATOM     21  C   UNL     1      10.241  11.298  18.084  0.00  0.00    +0.000 A 
ATOM     22  C   UNL     1      10.772  12.595  18.128  0.00  0.00    +0.000 A 
ATOM     23  C   UNL     1      10.632  13.364  19.281  0.00  0.00    +0.000 A 
ATOM     24  C   UNL     1       9.973  12.826  20.381  0.00  0.00    +0.000 A 
ATOM     25 CL   UNL     1       9.825  13.751  21.826  0.00  0.00    +0.000 Cl
ATOM     26  C   UNL     1       9.438  11.536  20.332  0.00  0.00    +0.000 A 
ENDBRANCH  18  20
ENDBRANCH  17  18
ENDBRANCH   2  17
TORSDOF 5
ENDMDL
MODEL 5
REMARK VINA RESULT:      -8.0      3.331      9.799
REMARK  Name = 
REMARK  5 active torsions:
REMARK  status: ('A' for Active; 'I' for Inactive)
REMARK    1  A    between atoms: C_2  and  C_3
REMARK    2  A    between atoms: C_3  and  N_4
REMARK    3  A    between atoms: N_4  and  C_5
REMARK    4  A    between atoms: N_12  and  N_13
REMARK    5  A    between atoms: C_14  and  C_15
REMARK                            x       y       z     vdW  Elec       q    Type
REMARK                         _______ _______ _______ _____ _____    ______ ____
ROOT
ATOM      1  O   UNL     1       7.856   6.621  18.942  0.00  0.00    +0.000 OA
ATOM      2  C   UNL     1       7.586   6.995  17.802  0.00  0.00    +0.000 C 
ATOM      3  N   UNL     1       7.609   8.314  17.360  0.00  0.00    +0.000 N 
ATOM      4  H   UNL     1       7.521   8.522  16.371  0.00  0.00    +0.000 HD
ENDROOT
BRANCH   3   5
ATOM      5  N   UNL     1       7.920   9.310  18.239  0.00  0.00    +0.000 NA
ATOM      6  C   UNL     1       9.146   9.733  18.222  0.00  0.00    +0.000 C 
BRANCH   6   7
ATOM      7  C   UNL     1       9.609  10.787  19.159  0.00  0.00    +0.000 A 
ATOM      8  C   UNL     1       9.140  10.731  20.473  0.00  0.00    +0.000 A 
ATOM      9  C   UNL     1       9.595  11.675  21.365  0.00  0.00    +0.000 A 
ATOM     10  N   UNL     1      10.468  12.647  21.037  0.00  0.00    +0.000 NA
ATOM     11  C   UNL     1      10.915  12.710  19.773  0.00  0.00    +0.000 A 
ATOM     12  C   UNL     1      11.815  13.720  19.461  0.00  0.00    +0.000 A 
ATOM     13  C   UNL     1      12.333  13.881  18.175  0.00  0.00    +0.000 A 
ATOM     14  C   UNL     1      11.942  13.012  17.168  0.00  0.00    +0.000 A 
ATOM     15  C   UNL     1      11.043  11.985  17.456  0.00  0.00    +0.000 A 
ATOM     16  C   UNL     1      10.516  11.805  18.763  0.00  0.00    +0.000 A 
ENDBRANCH   6   7
ENDBRANCH   3   5
BRANCH   2  17
ATOM     17  C   UNL     1       7.193   6.002  16.706  0.00  0.00    +0.000 C 
BRANCH  17  18
ATOM     18  N   UNL     1       5.916   6.387  16.086  0.00  0.00    +0.000 N 
ATOM     19  H   UNL     1       5.911   6.125  15.097  0.00  0.00    +0.000 HD
BRANCH  18  20
ATOM     20  C   UNL     1       4.744   5.944  16.729  0.00  0.00    +0.000 A 
ATOM     21  C   UNL     1       3.990   6.852  17.487  0.00  0.00    +0.000 A 
ATOM     22  C   UNL     1       2.851   6.446  18.194  0.00  0.00    +0.000 A 
ATOM     23  C   UNL     1       2.469   5.106  18.185  0.00  0.00    +0.000 A 
ATOM     24  C   UNL     1       3.235   4.186  17.479  0.00  0.00    +0.000 A 
ATOM     25 CL   UNL     1       2.797   2.521  17.489  0.00  0.00    +0.000 Cl
ATOM     26  C   UNL     1       4.367   4.595  16.768  0.00  0.00    +0.000 A 
ENDBRANCH  18  20
ENDBRANCH  17  18
ENDBRANCH   2  17
TORSDOF 5
ENDMDL
MODEL 6
REMARK VINA RESULT:      -7.9      3.258      9.582
REMARK  Name = 
REMARK  5 active torsions:
REMARK  status: ('A' for Active; 'I' for Inactive)
REMARK    1  A    between atoms: C_2  and  C_3
REMARK    2  A    between atoms: C_3  and  N_4
REMARK    3  A    between atoms: N_4  and  C_5
REMARK    4  A    between atoms: N_12  and  N_13
REMARK    5  A    between atoms: C_14  and  C_15
REMARK                            x       y       z     vdW  Elec       q    Type
REMARK                         _______ _______ _______ _____ _____    ______ ____
ROOT
ATOM      1  O   UNL     1       6.696   7.635  16.707  0.00  0.00    +0.000 OA
ATOM      2  C   UNL     1       7.361   7.120  17.604  0.00  0.00    +0.000 C 
ATOM      3  N   UNL     1       8.263   7.791  18.424  0.00  0.00    +0.000 N 
ATOM      4  H   UNL     1       8.656   7.326  19.236  0.00  0.00    +0.000 HD
ENDROOT
BRANCH   3   5
ATOM      5  N   UNL     1       8.484   9.122  18.229  0.00  0.00    +0.000 NA
ATOM      6  C   UNL     1       9.259   9.711  19.086  0.00  0.00    +0.000 C 
BRANCH   6   7
ATOM      7  C   UNL     1       9.542  11.165  18.995  0.00  0.00    +0.000 A 
ATOM      8  C   UNL     1       9.924  11.671  17.751  0.00  0.00    +0.000 A 
ATOM      9  C   UNL     1      10.146  13.024  17.642  0.00  0.00    +0.000 A 
ATOM     10  N   UNL     1      10.013  13.885  18.668  0.00  0.00    +0.000 NA
ATOM     11  C   UNL     1       9.654  13.402  19.868  0.00  0.00    +0.000 A 
ATOM     12  C   UNL     1       9.522  14.311  20.910  0.00  0.00    +0.000 A 
ATOM     13  C   UNL     1       9.163  13.913  22.200  0.00  0.00    +0.000 A 
ATOM     14  C   UNL     1       8.931  12.572  22.460  0.00  0.00    +0.000 A 
ATOM     15  C   UNL     1       9.051  11.640  21.430  0.00  0.00    +0.000 A 
ATOM     16  C   UNL     1       9.407  12.032  20.112  0.00  0.00    +0.000 A 
ENDBRANCH   6   7
ENDBRANCH   3   5
BRANCH   2  17
ATOM     17  C   UNL     1       7.246   5.630  17.931  0.00  0.00    +0.000 C 
BRANCH  17  18
ATOM     18  N   UNL     1       6.349   5.415  19.078  0.00  0.00    +0.000 N 
ATOM     19  H   UNL     1       6.322   6.251  19.666  0.00  0.00    +0.000 HD
BRANCH  18  20
ATOM     20  C   UNL     1       5.048   4.965  18.784  0.00  0.00    +0.000 A 
ATOM     21  C   UNL     1       4.768   4.455  17.508  0.00  0.00    +0.000 A 
ATOM     22  C   UNL     1       3.475   4.052  17.149  0.00  0.00    +0.000 A 
ATOM     23  C   UNL     1       2.427   4.192  18.055  0.00  0.00    +0.000 A 
ATOM     24  C   UNL     1       2.679   4.743  19.306  0.00  0.00    +0.000 A 
ATOM     25 CL   UNL     1       1.387   4.956  20.424  0.00  0.00    +0.000 Cl
ATOM     26  C   UNL     1       3.971   5.137  19.665  0.00  0.00    +0.000 A 
ENDBRANCH  18  20
ENDBRANCH  17  18
ENDBRANCH   2  17
TORSDOF 5
ENDMDL
MODEL 7
REMARK VINA RESULT:      -7.8      6.213      8.689
REMARK  Name = 
REMARK  5 active torsions:
REMARK  status: ('A' for Active; 'I' for Inactive)
REMARK    1  A    between atoms: C_2  and  C_3
REMARK    2  A    between atoms: C_3  and  N_4
REMARK    3  A    between atoms: N_4  and  C_5
REMARK    4  A    between atoms: N_12  and  N_13
REMARK    5  A    between atoms: C_14  and  C_15
REMARK                            x       y       z     vdW  Elec       q    Type
REMARK                         _______ _______ _______ _____ _____    ______ ____
ROOT
ATOM      1  O   UNL     1       2.189  11.519  18.197  0.00  0.00    +0.000 OA
ATOM      2  C   UNL     1       1.203  10.894  18.583  0.00  0.00    +0.000 C 
ATOM      3  N   UNL     1       1.069   9.510  18.564  0.00  0.00    +0.000 N 
ATOM      4  H   UNL     1       0.289   9.067  19.039  0.00  0.00    +0.000 HD
ENDROOT
BRANCH   3   5
ATOM      5  N   UNL     1       2.076   8.746  18.053  0.00  0.00    +0.000 NA
ATOM      6  C   UNL     1       2.046   7.482  18.341  0.00  0.00    +0.000 C 
BRANCH   6   7
ATOM      7  C   UNL     1       3.110   6.560  17.871  0.00  0.00    +0.000 A 
ATOM      8  C   UNL     1       4.319   7.127  17.464  0.00  0.00    +0.000 A 
ATOM      9  C   UNL     1       5.331   6.282  17.067  0.00  0.00    +0.000 A 
ATOM     10  N   UNL     1       5.216   4.941  17.053  0.00  0.00    +0.000 NA
ATOM     11  C   UNL     1       4.053   4.391  17.436  0.00  0.00    +0.000 A 
ATOM     12  C   UNL     1       3.961   3.006  17.415  0.00  0.00    +0.000 A 
ATOM     13  C   UNL     1       2.793   2.334  17.783  0.00  0.00    +0.000 A 
ATOM     14  C   UNL     1       1.684   3.063  18.182  0.00  0.00    +0.000 A 
ATOM     15  C   UNL     1       1.752   4.455  18.219  0.00  0.00    +0.000 A 
ATOM     16  C   UNL     1       2.936   5.150  17.855  0.00  0.00    +0.000 A 
ENDBRANCH   6   7
ENDBRANCH   3   5
BRANCH   2  17
ATOM     17  C   UNL     1      -0.021  11.608  19.160  0.00  0.00    +0.000 C 
BRANCH  17  18
ATOM     18  N   UNL     1      -1.183  10.707  19.194  0.00  0.00    +0.000 N 
ATOM     19  H   UNL     1      -1.584  10.684  20.134  0.00  0.00    +0.000 HD
BRANCH  18  20
ATOM     20  C   UNL     1      -2.183  10.931  18.228  0.00  0.00    +0.000 A 
ATOM     21  C   UNL     1      -3.383  11.547  18.610  0.00  0.00    +0.000 A 
ATOM     22  C   UNL     1      -4.431  11.736  17.699  0.00  0.00    +0.000 A 
ATOM     23  C   UNL     1      -4.307  11.271  16.391  0.00  0.00    +0.000 A 
ATOM     24  C   UNL     1      -3.142  10.614  16.012  0.00  0.00    +0.000 A 
ATOM     25 CL   UNL     1      -2.988  10.002  14.409  0.00  0.00    +0.000 Cl
ATOM     26  C   UNL     1      -2.096  10.434  16.920  0.00  0.00    +0.000 A 
ENDBRANCH  18  20
ENDBRANCH  17  18
ENDBRANCH   2  17
TORSDOF 5
ENDMDL
MODEL 8
REMARK VINA RESULT:      -7.8      6.270      7.414
REMARK  Name = 
REMARK  5 active torsions:
REMARK  status: ('A' for Active; 'I' for Inactive)
REMARK    1  A    between atoms: C_2  and  C_3
REMARK    2  A    between atoms: C_3  and  N_4
REMARK    3  A    between atoms: N_4  and  C_5
REMARK    4  A    between atoms: N_12  and  N_13
REMARK    5  A    between atoms: C_14  and  C_15
REMARK                            x       y       z     vdW  Elec       q    Type
REMARK                         _______ _______ _______ _____ _____    ______ ____
ROOT
ATOM      1  O   UNL     1      -0.161   9.338  17.576  0.00  0.00    +0.000 OA
ATOM      2  C   UNL     1       0.754   9.965  18.107  0.00  0.00    +0.000 C 
ATOM      3  N   UNL     1       2.063   9.514  18.248  0.00  0.00    +0.000 N 
ATOM      4  H   UNL     1       2.790  10.150  18.559  0.00  0.00    +0.000 HD
ENDROOT
BRANCH   3   5
ATOM      5  N   UNL     1       2.394   8.268  17.806  0.00  0.00    +0.000 NA
ATOM      6  C   UNL     1       2.611   7.370  18.716  0.00  0.00    +0.000 C 
BRANCH   6   7
ATOM      7  C   UNL     1       3.014   5.988  18.354  0.00  0.00    +0.000 A 
ATOM      8  C   UNL     1       3.940   5.839  17.319  0.00  0.00    +0.000 A 
ATOM      9  C   UNL     1       4.356   4.566  17.001  0.00  0.00    +0.000 A 
ATOM     10  N   UNL     1       3.921   3.461  17.635  0.00  0.00    +0.000 NA
ATOM     11  C   UNL     1       3.025   3.600  18.626  0.00  0.00    +0.000 A 
ATOM     12  C   UNL     1       2.594   2.446  19.265  0.00  0.00    +0.000 A 
ATOM     13  C   UNL     1       1.657   2.477  20.300  0.00  0.00    +0.000 A 
ATOM     14  C   UNL     1       1.133   3.693  20.709  0.00  0.00    +0.000 A 
ATOM     15  C   UNL     1       1.554   4.868  20.087  0.00  0.00    +0.000 A 
ATOM     16  C   UNL     1       2.513   4.851  19.039  0.00  0.00    +0.000 A 
ENDBRANCH   6   7
ENDBRANCH   3   5
BRANCH   2  17
ATOM     17  C   UNL     1       0.538  11.368  18.675  0.00  0.00    +0.000 C 
BRANCH  17  18
ATOM     18  N   UNL     1       1.251  11.530  19.953  0.00  0.00    +0.000 N 
ATOM     19  H   UNL     1       1.558  12.499  20.065  0.00  0.00    +0.000 HD
BRANCH  18  20
ATOM     20  C   UNL     1       0.585  11.078  21.108  0.00  0.00    +0.000 A 
ATOM     21  C   UNL     1       0.958   9.854  21.682  0.00  0.00    +0.000 A 
ATOM     22  C   UNL     1       0.285   9.333  22.795  0.00  0.00    +0.000 A 
ATOM     23  C   UNL     1      -0.806  10.015  23.330  0.00  0.00    +0.000 A 
ATOM     24  C   UNL     1      -1.218  11.205  22.740  0.00  0.00    +0.000 A 
ATOM     25 CL   UNL     1      -2.586  12.041  23.368  0.00  0.00    +0.000 Cl
ATOM     26  C   UNL     1      -0.541  11.726  21.635  0.00  0.00    +0.000 A 
ENDBRANCH  18  20
ENDBRANCH  17  18
ENDBRANCH   2  17
TORSDOF 5
ENDMDL
MODEL 9
REMARK VINA RESULT:      -7.8      5.252      8.227
REMARK  Name = 
REMARK  5 active torsions:
REMARK  status: ('A' for Active; 'I' for Inactive)
REMARK    1  A    between atoms: C_2  and  C_3
REMARK    2  A    between atoms: C_3  and  N_4
REMARK    3  A    between atoms: N_4  and  C_5
REMARK    4  A    between atoms: N_12  and  N_13
REMARK    5  A    between atoms: C_14  and  C_15
REMARK                            x       y       z     vdW  Elec       q    Type
REMARK                         _______ _______ _______ _____ _____    ______ ____
ROOT
ATOM      1  O   UNL     1       0.792   4.362  20.422  0.00  0.00    +0.000 OA
ATOM      2  C   UNL     1       1.911   4.870  20.387  0.00  0.00    +0.000 C 
ATOM      3  N   UNL     1       2.201   6.201  20.668  0.00  0.00    +0.000 N 
ATOM      4  H   UNL     1       3.164   6.503  20.765  0.00  0.00    +0.000 HD
ENDROOT
BRANCH   3   5
ATOM      5  N   UNL     1       1.185   7.056  20.980  0.00  0.00    +0.000 NA
ATOM      6  C   UNL     1       1.502   8.307  21.108  0.00  0.00    +0.000 C 
BRANCH   6   7
ATOM      7  C   UNL     1       0.486   9.323  21.481  0.00  0.00    +0.000 A 
ATOM      8  C   UNL     1       0.175   9.454  22.836  0.00  0.00    +0.000 A 
ATOM      9  C   UNL     1      -0.732  10.422  23.203  0.00  0.00    +0.000 A 
ATOM     10  N   UNL     1      -1.331  11.249  22.326  0.00  0.00    +0.000 NA
ATOM     11  C   UNL     1      -1.041  11.122  21.021  0.00  0.00    +0.000 A 
ATOM     12  C   UNL     1      -1.671  11.988  20.137  0.00  0.00    +0.000 A 
ATOM     13  C   UNL     1      -1.449  11.934  18.760  0.00  0.00    +0.000 A 
ATOM     14  C   UNL     1      -0.574  10.988  18.247  0.00  0.00    +0.000 A 
ATOM     15  C   UNL     1       0.076  10.110  19.114  0.00  0.00    +0.000 A 
ATOM     16  C   UNL     1      -0.135  10.161  20.518  0.00  0.00    +0.000 A 
ENDBRANCH   6   7
ENDBRANCH   3   5
BRANCH   2  17
ATOM     17  C   UNL     1       3.152   4.048  20.030  0.00  0.00    +0.000 C 
BRANCH  17  18
ATOM     18  N   UNL     1       3.287   3.916  18.571  0.00  0.00    +0.000 N 
ATOM     19  H   UNL     1       2.530   4.416  18.099  0.00  0.00    +0.000 HD
BRANCH  18  20
ATOM     20  C   UNL     1       4.537   4.261  18.020  0.00  0.00    +0.000 A 
ATOM     21  C   UNL     1       4.823   3.912  16.692  0.00  0.00    +0.000 A 
ATOM     22  C   UNL     1       6.073   4.180  16.119  0.00  0.00    +0.000 A 
ATOM     23  C   UNL     1       7.077   4.768  16.885  0.00  0.00    +0.000 A 
ATOM     24  C   UNL     1       6.824   5.074  18.218  0.00  0.00    +0.000 A 
ATOM     25 CL   UNL     1       8.066   5.768  19.187  0.00  0.00    +0.000 Cl
ATOM     26  C   UNL     1       5.574   4.813  18.785  0.00  0.00    +0.000 A 
ENDBRANCH  18  20
ENDBRANCH  17  18
ENDBRANCH   2  17
TORSDOF 5
ENDMDL
