MODEL 1
REMARK VINA RESULT:      -8.4      0.000      0.000
REMARK  Name = 
REMARK  8 active torsions:
REMARK  status: ('A' for Active; 'I' for Inactive)
REMARK    1  A    between atoms: C_2  and  O_3
REMARK    2  A    between atoms: C_2  and  C_4
REMARK    3  A    between atoms: C_5  and  N_6
REMARK    4  A    between atoms: N_6  and  S_7
REMARK    5  A    between atoms: S_7  and  C_10
REMARK    6  A    between atoms: C_15  and  N_16
REMARK    7  A    between atoms: N_16  and  C_17
REMARK    8  A    between atoms: C_17  and  C_18
REMARK                            x       y       z     vdW  Elec       q    Type
REMARK                         _______ _______ _______ _____ _____    ______ ____
ROOT
ATOM      1  S   UNL     1       2.733   6.087  19.240  0.00  0.00    +0.000 S 
ATOM      2  O   UNL     1       2.063   6.124  17.962  0.00  0.00    +0.000 OA
ATOM      3  O   UNL     1       4.117   6.484  19.380  0.00  0.00    +0.000 OA
ENDROOT
BRANCH   1   4
ATOM      4  C   UNL     1       2.576   4.430  19.913  0.00  0.00    +0.000 A 
ATOM      5  C   UNL     1       1.442   4.228  20.738  0.00  0.00    +0.000 A 
ATOM      6  C   UNL     1       1.309   3.083  21.522  0.00  0.00    +0.000 A 
ATOM      7  C   UNL     1       2.322   2.140  21.518  0.00  0.00    +0.000 A 
ATOM      8  C   UNL     1       3.426   2.320  20.684  0.00  0.00    +0.000 A 
ATOM      9  C   UNL     1       3.573   3.431  19.814  0.00  0.00    +0.000 A 
BRANCH   9  10
ATOM     10  N   UNL     1       4.728   3.502  18.998  0.00  0.00    +0.000 N 
ATOM     11  H   UNL     1       5.420   4.181  19.317  0.00  0.00    +0.000 HD
BRANCH  10  12
ATOM     12  C   UNL     1       4.499   3.466  17.547  0.00  0.00    +0.000 C 
BRANCH  12  13
ATOM     13  C   UNL     1       5.521   4.127  16.655  0.00  0.00    +0.000 A 
ATOM     14  C   UNL     1       5.760   3.793  15.325  0.00  0.00    +0.000 A 
ATOM     15  C   UNL     1       6.732   4.505  14.630  0.00  0.00    +0.000 A 
ATOM     16  N   UNL     1       7.456   5.524  15.147  0.00  0.00    +0.000 NA
ATOM     17  C   UNL     1       7.196   5.851  16.426  0.00  0.00    +0.000 A 
ATOM     18  C   UNL     1       6.255   5.195  17.204  0.00  0.00    +0.000 A 
ENDBRANCH  12  13
ENDBRANCH  10  12
ENDBRANCH   9  10
ENDBRANCH   1   4
BRANCH   1  19
ATOM     19  N   UNL     1       1.875   7.073  20.335  0.00  0.00    +0.000 N 
ATOM     20  H   UNL     1       2.406   7.084  21.207  0.00  0.00    +0.000 HD
BRANCH  19  22
ATOM     21  C   UNL     1       0.938   9.389  20.680  0.00  0.00    +0.000 A 
ATOM     22  C   UNL     1       1.602   8.430  19.882  0.00  0.00    +0.000 A 
ATOM     23  C   UNL     1       1.982   8.778  18.580  0.00  0.00    +0.000 A 
ATOM     24  C   UNL     1       1.763  10.070  18.095  0.00  0.00    +0.000 A 
ATOM     25  C   UNL     1       1.133  11.044  18.883  0.00  0.00    +0.000 A 
ATOM     26  C   UNL     1       0.717  10.710  20.192  0.00  0.00    +0.000 A 
ATOM     27  C   UNL     1       0.003  11.752  21.036  0.00  0.00    +0.000 C 
ATOM     28  C   UNL     1       0.174  13.194  20.557  0.00  0.00    +0.000 C 
ATOM     29  C   UNL     1      -0.050  13.291  19.058  0.00  0.00    +0.000 C 
ATOM     30  C   UNL     1       0.988  12.446  18.325  0.00  0.00    +0.000 C 
BRANCH  21  32
ATOM     31  O   UNL     1       0.943   9.357  23.092  0.00  0.00    +0.000 OA
ATOM     32  C   UNL     1       0.450   9.025  22.033  0.00  0.00    +0.000 C 
BRANCH  32  33
ATOM     33  O   UNL     1      -0.633   8.221  22.007  0.00  0.00    +0.000 OA
ATOM     34  H   UNL     1      -0.416   7.510  22.643  0.00  0.00    +0.000 HD
ENDBRANCH  32  33
ENDBRANCH  21  32
ENDBRANCH  19  22
ENDBRANCH   1  19
TORSDOF 8
ENDMDL
MODEL 2
REMARK VINA RESULT:      -8.3      3.075      5.654
REMARK  Name = 
REMARK  8 active torsions:
REMARK  status: ('A' for Active; 'I' for Inactive)
REMARK    1  A    between atoms: C_2  and  O_3
REMARK    2  A    between atoms: C_2  and  C_4
REMARK    3  A    between atoms: C_5  and  N_6
REMARK    4  A    between atoms: N_6  and  S_7
REMARK    5  A    between atoms: S_7  and  C_10
REMARK    6  A    between atoms: C_15  and  N_16
REMARK    7  A    between atoms: N_16  and  C_17
REMARK    8  A    between atoms: C_17  and  C_18
REMARK                            x       y       z     vdW  Elec       q    Type
REMARK                         _______ _______ _______ _____ _____    ______ ____
ROOT
ATOM      1  S   UNL     1       0.598   9.443  21.495  0.00  0.00    +0.000 S 
ATOM      2  O   UNL     1       1.420   9.239  22.663  0.00  0.00    +0.000 OA
ATOM      3  O   UNL     1      -0.726   8.871  21.393  0.00  0.00    +0.000 OA
ENDROOT
BRANCH   1   4
ATOM      4  C   UNL     1       1.526   8.916  20.050  0.00  0.00    +0.000 A 
ATOM      5  C   UNL     1       1.549   9.849  18.986  0.00  0.00    +0.000 A 
ATOM      6  C   UNL     1       2.015   9.496  17.720  0.00  0.00    +0.000 A 
ATOM      7  C   UNL     1       2.433   8.196  17.493  0.00  0.00    +0.000 A 
ATOM      8  C   UNL     1       2.440   7.282  18.547  0.00  0.00    +0.000 A 
ATOM      9  C   UNL     1       2.045   7.612  19.868  0.00  0.00    +0.000 A 
BRANCH   9  10
ATOM     10  N   UNL     1       2.110   6.608  20.864  0.00  0.00    +0.000 N 
ATOM     11  H   UNL     1       3.054   6.422  21.205  0.00  0.00    +0.000 HD
BRANCH  10  12
ATOM     12  C   UNL     1       1.271   5.422  20.643  0.00  0.00    +0.000 C 
BRANCH  12  13
ATOM     13  C   UNL     1       1.919   4.206  20.027  0.00  0.00    +0.000 A 
ATOM     14  C   UNL     1       3.290   3.974  19.963  0.00  0.00    +0.000 A 
ATOM     15  C   UNL     1       3.733   2.796  19.370  0.00  0.00    +0.000 A 
ATOM     16  N   UNL     1       2.923   1.837  18.865  0.00  0.00    +0.000 NA
ATOM     17  C   UNL     1       1.600   2.065  18.957  0.00  0.00    +0.000 A 
ATOM     18  C   UNL     1       1.062   3.211  19.520  0.00  0.00    +0.000 A 
ENDBRANCH  12  13
ENDBRANCH  10  12
ENDBRANCH   9  10
ENDBRANCH   1   4
BRANCH   1  19
ATOM     19  N   UNL     1       0.377  11.118  21.268  0.00  0.00    +0.000 N 
ATOM     20  H   UNL     1       0.603  11.321  20.293  0.00  0.00    +0.000 HD
BRANCH  19  22
ATOM     21  C   UNL     1      -1.925  11.934  20.635  0.00  0.00    +0.000 A 
ATOM     22  C   UNL     1      -0.944  11.632  21.607  0.00  0.00    +0.000 A 
ATOM     23  C   UNL     1      -1.230  11.872  22.956  0.00  0.00    +0.000 A 
ATOM     24  C   UNL     1      -2.486  12.348  23.345  0.00  0.00    +0.000 A 
ATOM     25  C   UNL     1      -3.482  12.624  22.398  0.00  0.00    +0.000 A 
ATOM     26  C   UNL     1      -3.209  12.414  21.027  0.00  0.00    +0.000 A 
ATOM     27  C   UNL     1      -4.274  12.745  19.995  0.00  0.00    +0.000 C 
ATOM     28  C   UNL     1      -5.691  12.875  20.554  0.00  0.00    +0.000 C 
ATOM     29  C   UNL     1      -5.697  13.731  21.808  0.00  0.00    +0.000 C 
ATOM     30  C   UNL     1      -4.845  13.070  22.889  0.00  0.00    +0.000 C 
BRANCH  21  32
ATOM     31  O   UNL     1      -1.309  12.647  18.414  0.00  0.00    +0.000 OA
ATOM     32  C   UNL     1      -1.622  11.768  19.192  0.00  0.00    +0.000 C 
BRANCH  32  33
ATOM     33  O   UNL     1      -1.758  10.496  18.765  0.00  0.00    +0.000 OA
ATOM     34  H   UNL     1      -2.695  10.282  18.948  0.00  0.00    +0.000 HD
ENDBRANCH  32  33
ENDBRANCH  21  32
ENDBRANCH  19  22
ENDBRANCH   1  19
TORSDOF 8
ENDMDL
MODEL 3
REMARK VINA RESULT:      -8.2      3.051      5.495
REMARK  Name = 
REMARK  8 active torsions:
REMARK  status: ('A' for Active; 'I' for Inactive)
REMARK    1  A    between atoms: C_2  and  O_3
REMARK    2  A    between atoms: C_2  and  C_4
REMARK    3  A    between atoms: C_5  and  N_6
REMARK    4  A    between atoms: N_6  and  S_7
REMARK    5  A    between atoms: S_7  and  C_10
REMARK    6  A    between atoms: C_15  and  N_16
REMARK    7  A    between atoms: N_16  and  C_17
REMARK    8  A    between atoms: C_17  and  C_18
REMARK                            x       y       z     vdW  Elec       q    Type
REMARK                         _______ _______ _______ _____ _____    ______ ____
ROOT
ATOM      1  S   UNL     1       0.318   9.231  21.451  0.00  0.00    +0.000 S 
ATOM      2  O   UNL     1       1.142   9.780  22.500  0.00  0.00    +0.000 OA
ATOM      3  O   UNL     1      -0.575   8.120  21.695  0.00  0.00    +0.000 OA
ENDROOT
BRANCH   1   4
ATOM      4  C   UNL     1       1.378   8.780  20.074  0.00  0.00    +0.000 A 
ATOM      5  C   UNL     1       1.414   9.723  19.018  0.00  0.00    +0.000 A 
ATOM      6  C   UNL     1       1.992   9.413  17.787  0.00  0.00    +0.000 A 
ATOM      7  C   UNL     1       2.509   8.146  17.584  0.00  0.00    +0.000 A 
ATOM      8  C   UNL     1       2.503   7.225  18.631  0.00  0.00    +0.000 A 
ATOM      9  C   UNL     1       1.994   7.515  19.923  0.00  0.00    +0.000 A 
BRANCH   9  10
ATOM     10  N   UNL     1       2.055   6.508  20.916  0.00  0.00    +0.000 N 
ATOM     11  H   UNL     1       2.989   6.357  21.298  0.00  0.00    +0.000 HD
BRANCH  10  12
ATOM     12  C   UNL     1       1.275   5.290  20.652  0.00  0.00    +0.000 C 
BRANCH  12  13
ATOM     13  C   UNL     1       1.975   4.139  19.972  0.00  0.00    +0.000 A 
ATOM     14  C   UNL     1       3.228   3.643  20.323  0.00  0.00    +0.000 A 
ATOM     15  C   UNL     1       3.737   2.567  19.604  0.00  0.00    +0.000 A 
ATOM     16  N   UNL     1       3.090   1.942  18.593  0.00  0.00    +0.000 NA
ATOM     17  C   UNL     1       1.870   2.417  18.282  0.00  0.00    +0.000 A 
ATOM     18  C   UNL     1       1.283   3.492  18.932  0.00  0.00    +0.000 A 
ENDBRANCH  12  13
ENDBRANCH  10  12
ENDBRANCH   9  10
ENDBRANCH   1   4
BRANCH   1  19
ATOM     19  N   UNL     1      -0.676  10.471  20.833  0.00  0.00    +0.000 N 
ATOM     20  H   UNL     1      -1.567  10.042  20.577  0.00  0.00    +0.000 HD
BRANCH  19  22
ATOM     21  C   UNL     1      -0.165  12.817  21.606  0.00  0.00    +0.000 A 
ATOM     22  C   UNL     1      -0.890  11.609  21.717  0.00  0.00    +0.000 A 
ATOM     23  C   UNL     1      -1.830  11.475  22.746  0.00  0.00    +0.000 A 
ATOM     24  C   UNL     1      -2.092  12.538  23.615  0.00  0.00    +0.000 A 
ATOM     25  C   UNL     1      -1.405  13.755  23.501  0.00  0.00    +0.000 A 
ATOM     26  C   UNL     1      -0.432  13.905  22.487  0.00  0.00    +0.000 A 
ATOM     27  C   UNL     1       0.340  15.210  22.382  0.00  0.00    +0.000 C 
ATOM     28  C   UNL     1      -0.297  16.394  23.112  0.00  0.00    +0.000 C 
ATOM     29  C   UNL     1      -0.729  15.991  24.511  0.00  0.00    +0.000 C 
ATOM     30  C   UNL     1      -1.784  14.891  24.429  0.00  0.00    +0.000 C 
BRANCH  21  32
ATOM     31  O   UNL     1       0.731  13.205  19.400  0.00  0.00    +0.000 OA
ATOM     32  C   UNL     1       0.896  12.959  20.579  0.00  0.00    +0.000 C 
BRANCH  32  33
ATOM     33  O   UNL     1       2.137  12.752  21.065  0.00  0.00    +0.000 OA
ATOM     34  H   UNL     1       2.565  12.186  20.391  0.00  0.00    +0.000 HD
ENDBRANCH  32  33
ENDBRANCH  21  32
ENDBRANCH  19  22
ENDBRANCH   1  19
TORSDOF 8
ENDMDL
MODEL 4
REMARK VINA RESULT:      -8.2      0.853      1.197
REMARK  Name = 
REMARK  8 active torsions:
REMARK  status: ('A' for Active; 'I' for Inactive)
REMARK    1  A    between atoms: C_2  and  O_3
REMARK    2  A    between atoms: C_2  and  C_4
REMARK    3  A    between atoms: C_5  and  N_6
REMARK    4  A    between atoms: N_6  and  S_7
REMARK    5  A    between atoms: S_7  and  C_10
REMARK    6  A    between atoms: C_15  and  N_16
REMARK    7  A    between atoms: N_16  and  C_17
REMARK    8  A    between atoms: C_17  and  C_18
REMARK                            x       y       z     vdW  Elec       q    Type
REMARK                         _______ _______ _______ _____ _____    ______ ____
ROOT
ATOM      1  S   UNL     1       2.638   6.482  19.266  0.00  0.00    +0.000 S 
ATOM      2  O   UNL     1       2.187   6.934  17.972  0.00  0.00    +0.000 OA
ATOM      3  O   UNL     1       4.035   6.528  19.638  0.00  0.00    +0.000 OA
ENDROOT
BRANCH   1   4
ATOM      4  C   UNL     1       2.070   4.796  19.507  0.00  0.00    +0.000 A 
ATOM      5  C   UNL     1       1.493   4.538  20.775  0.00  0.00    +0.000 A 
ATOM      6  C   UNL     1       1.228   3.237  21.201  0.00  0.00    +0.000 A 
ATOM      7  C   UNL     1       1.568   2.175  20.381  0.00  0.00    +0.000 A 
ATOM      8  C   UNL     1       2.108   2.426  19.120  0.00  0.00    +0.000 A 
ATOM      9  C   UNL     1       2.328   3.731  18.611  0.00  0.00    +0.000 A 
BRANCH   9  10
ATOM     10  N   UNL     1       2.866   3.868  17.308  0.00  0.00    +0.000 N 
ATOM     11  H   UNL     1       2.181   3.743  16.562  0.00  0.00    +0.000 HD
BRANCH  10  12
ATOM     12  C   UNL     1       4.174   3.240  17.079  0.00  0.00    +0.000 C 
BRANCH  12  13
ATOM     13  C   UNL     1       5.315   4.126  16.645  0.00  0.00    +0.000 A 
ATOM     14  C   UNL     1       6.078   4.925  17.494  0.00  0.00    +0.000 A 
ATOM     15  C   UNL     1       7.106   5.681  16.941  0.00  0.00    +0.000 A 
ATOM     16  N   UNL     1       7.441   5.684  15.630  0.00  0.00    +0.000 NA
ATOM     17  C   UNL     1       6.711   4.889  14.827  0.00  0.00    +0.000 A 
ATOM     18  C   UNL     1       5.660   4.106  15.280  0.00  0.00    +0.000 A 
ENDBRANCH  12  13
ENDBRANCH  10  12
ENDBRANCH   9  10
ENDBRANCH   1   4
BRANCH   1  19
ATOM     19  N   UNL     1       1.828   7.378  20.470  0.00  0.00    +0.000 N 
ATOM     20  H   UNL     1       2.451   7.425  21.278  0.00  0.00    +0.000 HD
BRANCH  19  22
ATOM     21  C   UNL     1       0.712   9.588  20.954  0.00  0.00    +0.000 A 
ATOM     22  C   UNL     1       1.392   8.712  20.078  0.00  0.00    +0.000 A 
ATOM     23  C   UNL     1       1.626   9.119  18.759  0.00  0.00    +0.000 A 
ATOM     24  C   UNL     1       1.246  10.394  18.329  0.00  0.00    +0.000 A 
ATOM     25  C   UNL     1       0.598  11.288  19.192  0.00  0.00    +0.000 A 
ATOM     26  C   UNL     1       0.328  10.890  20.522  0.00  0.00    +0.000 A 
ATOM     27  C   UNL     1      -0.406  11.844  21.451  0.00  0.00    +0.000 C 
ATOM     28  C   UNL     1      -0.411  13.305  20.998  0.00  0.00    +0.000 C 
ATOM     29  C   UNL     1      -0.770  13.408  19.526  0.00  0.00    +0.000 C 
ATOM     30  C   UNL     1       0.276  12.679  18.686  0.00  0.00    +0.000 C 
BRANCH  21  32
ATOM     31  O   UNL     1       0.960   9.468  23.351  0.00  0.00    +0.000 OA
ATOM     32  C   UNL     1       0.377   9.153  22.333  0.00  0.00    +0.000 C 
BRANCH  32  33
ATOM     33  O   UNL     1      -0.670   8.303  22.381  0.00  0.00    +0.000 OA
ATOM     34  H   UNL     1      -0.399   7.560  21.805  0.00  0.00    +0.000 HD
ENDBRANCH  32  33
ENDBRANCH  21  32
ENDBRANCH  19  22
ENDBRANCH   1  19
TORSDOF 8
ENDMDL
MODEL 5
REMARK VINA RESULT:      -8.1      3.240      5.887
REMARK  Name = 
REMARK  8 active torsions:
REMARK  status: ('A' for Active; 'I' for Inactive)
REMARK    1  A    between atoms: C_2  and  O_3
REMARK    2  A    between atoms: C_2  and  C_4
REMARK    3  A    between atoms: C_5  and  N_6
REMARK    4  A    between atoms: N_6  and  S_7
REMARK    5  A    between atoms: S_7  and  C_10
REMARK    6  A    between atoms: C_15  and  N_16
REMARK    7  A    between atoms: N_16  and  C_17
REMARK    8  A    between atoms: C_17  and  C_18
REMARK                            x       y       z     vdW  Elec       q    Type
REMARK                         _______ _______ _______ _____ _____    ______ ____
ROOT
ATOM      1  S   UNL     1       0.503   9.629  21.579  0.00  0.00    +0.000 S 
ATOM      2  O   UNL     1       1.364   9.435  22.720  0.00  0.00    +0.000 OA
ATOM      3  O   UNL     1      -0.803   9.011  21.504  0.00  0.00    +0.000 OA
ENDROOT
BRANCH   1   4
ATOM      4  C   UNL     1       1.408   9.160  20.101  0.00  0.00    +0.000 A 
ATOM      5  C   UNL     1       1.447  10.151  19.089  0.00  0.00    +0.000 A 
ATOM      6  C   UNL     1       1.897   9.857  17.802  0.00  0.00    +0.000 A 
ATOM      7  C   UNL     1       2.281   8.562  17.500  0.00  0.00    +0.000 A 
ATOM      8  C   UNL     1       2.272   7.591  18.501  0.00  0.00    +0.000 A 
ATOM      9  C   UNL     1       1.893   7.857  19.842  0.00  0.00    +0.000 A 
BRANCH   9  10
ATOM     10  N   UNL     1       1.940   6.797  20.780  0.00  0.00    +0.000 N 
ATOM     11  H   UNL     1       1.986   7.105  21.752  0.00  0.00    +0.000 HD
BRANCH  10  12
ATOM     12  C   UNL     1       2.807   5.663  20.434  0.00  0.00    +0.000 C 
BRANCH  12  13
ATOM     13  C   UNL     1       2.173   4.472  19.758  0.00  0.00    +0.000 A 
ATOM     14  C   UNL     1       0.998   3.848  20.169  0.00  0.00    +0.000 A 
ATOM     15  C   UNL     1       0.534   2.763  19.432  0.00  0.00    +0.000 A 
ATOM     16  N   UNL     1       1.132   2.276  18.320  0.00  0.00    +0.000 NA
ATOM     17  C   UNL     1       2.252   2.906  17.921  0.00  0.00    +0.000 A 
ATOM     18  C   UNL     1       2.799   3.987  18.594  0.00  0.00    +0.000 A 
ENDBRANCH  12  13
ENDBRANCH  10  12
ENDBRANCH   9  10
ENDBRANCH   1   4
BRANCH   1  19
ATOM     19  N   UNL     1       0.215  11.299  21.389  0.00  0.00    +0.000 N 
ATOM     20  H   UNL     1       0.431  11.531  20.418  0.00  0.00    +0.000 HD
BRANCH  19  22
ATOM     21  C   UNL     1      -2.096  12.104  20.776  0.00  0.00    +0.000 A 
ATOM     22  C   UNL     1      -1.124  11.753  21.740  0.00  0.00    +0.000 A 
ATOM     23  C   UNL     1      -1.438  11.883  23.098  0.00  0.00    +0.000 A 
ATOM     24  C   UNL     1      -2.712  12.297  23.498  0.00  0.00    +0.000 A 
ATOM     25  C   UNL     1      -3.699  12.620  22.556  0.00  0.00    +0.000 A 
ATOM     26  C   UNL     1      -3.397  12.522  21.179  0.00  0.00    +0.000 A 
ATOM     27  C   UNL     1      -4.453  12.904  20.155  0.00  0.00    +0.000 C 
ATOM     28  C   UNL     1      -5.883  12.956  20.695  0.00  0.00    +0.000 C 
ATOM     29  C   UNL     1      -5.931  13.715  22.010  0.00  0.00    +0.000 C 
ATOM     30  C   UNL     1      -5.081  12.994  23.054  0.00  0.00    +0.000 C 
BRANCH  21  32
ATOM     31  O   UNL     1      -1.941  11.117  18.581  0.00  0.00    +0.000 OA
ATOM     32  C   UNL     1      -1.764  12.056  19.331  0.00  0.00    +0.000 C 
BRANCH  32  33
ATOM     33  O   UNL     1      -1.186  13.188  18.881  0.00  0.00    +0.000 OA
ATOM     34  H   UNL     1      -1.936  13.729  18.564  0.00  0.00    +0.000 HD
ENDBRANCH  32  33
ENDBRANCH  21  32
ENDBRANCH  19  22
ENDBRANCH   1  19
TORSDOF 8
ENDMDL
MODEL 6
REMARK VINA RESULT:      -8.1      2.046      4.702
REMARK  Name = 
REMARK  8 active torsions:
REMARK  status: ('A' for Active; 'I' for Inactive)
REMARK    1  A    between atoms: C_2  and  O_3
REMARK    2  A    between atoms: C_2  and  C_4
REMARK    3  A    between atoms: C_5  and  N_6
REMARK    4  A    between atoms: N_6  and  S_7
REMARK    5  A    between atoms: S_7  and  C_10
REMARK    6  A    between atoms: C_15  and  N_16
REMARK    7  A    between atoms: N_16  and  C_17
REMARK    8  A    between atoms: C_17  and  C_18
REMARK                            x       y       z     vdW  Elec       q    Type
REMARK                         _______ _______ _______ _____ _____    ______ ____
ROOT
ATOM      1  S   UNL     1       2.634   6.011  18.724  0.00  0.00    +0.000 S 
ATOM      2  O   UNL     1       2.926   5.607  20.078  0.00  0.00    +0.000 OA
ATOM      3  O   UNL     1       1.448   5.549  18.037  0.00  0.00    +0.000 OA
ENDROOT
BRANCH   1   4
ATOM      4  C   UNL     1       4.047   5.604  17.694  0.00  0.00    +0.000 A 
ATOM      5  C   UNL     1       5.034   6.617  17.612  0.00  0.00    +0.000 A 
ATOM      6  C   UNL     1       6.063   6.554  16.672  0.00  0.00    +0.000 A 
ATOM      7  C   UNL     1       6.100   5.496  15.781  0.00  0.00    +0.000 A 
ATOM      8  C   UNL     1       5.147   4.481  15.878  0.00  0.00    +0.000 A 
ATOM      9  C   UNL     1       4.126   4.462  16.862  0.00  0.00    +0.000 A 
BRANCH   9  10
ATOM     10  N   UNL     1       3.223   3.372  16.878  0.00  0.00    +0.000 N 
ATOM     11  H   UNL     1       2.243   3.642  16.783  0.00  0.00    +0.000 HD
BRANCH  10  12
ATOM     12  C   UNL     1       3.495   2.320  17.867  0.00  0.00    +0.000 C 
BRANCH  12  13
ATOM     13  C   UNL     1       2.813   2.420  19.209  0.00  0.00    +0.000 A 
ATOM     14  C   UNL     1       1.437   2.508  19.404  0.00  0.00    +0.000 A 
ATOM     15  C   UNL     1       0.959   2.585  20.708  0.00  0.00    +0.000 A 
ATOM     16  N   UNL     1       1.736   2.558  21.815  0.00  0.00    +0.000 NA
ATOM     17  C   UNL     1       3.061   2.447  21.611  0.00  0.00    +0.000 A 
ATOM     18  C   UNL     1       3.634   2.375  20.351  0.00  0.00    +0.000 A 
ENDBRANCH  12  13
ENDBRANCH  10  12
ENDBRANCH   9  10
ENDBRANCH   1   4
BRANCH   1  19
ATOM     19  N   UNL     1       2.545   7.713  18.668  0.00  0.00    +0.000 N 
ATOM     20  H   UNL     1       2.189   7.964  17.745  0.00  0.00    +0.000 HD
BRANCH  19  22
ATOM     21  C   UNL     1       1.079   9.571  19.541  0.00  0.00    +0.000 A 
ATOM     22  C   UNL     1       1.746   8.338  19.715  0.00  0.00    +0.000 A 
ATOM     23  C   UNL     1       1.677   7.699  20.959  0.00  0.00    +0.000 A 
ATOM     24  C   UNL     1       0.912   8.240  21.996  0.00  0.00    +0.000 A 
ATOM     25  C   UNL     1       0.218   9.447  21.832  0.00  0.00    +0.000 A 
ATOM     26  C   UNL     1       0.294  10.124  20.594  0.00  0.00    +0.000 A 
ATOM     27  C   UNL     1      -0.429  11.451  20.424  0.00  0.00    +0.000 C 
ATOM     28  C   UNL     1      -1.517  11.727  21.462  0.00  0.00    +0.000 C 
ATOM     29  C   UNL     1      -1.011  11.424  22.861  0.00  0.00    +0.000 C 
ATOM     30  C   UNL     1      -0.649   9.945  22.971  0.00  0.00    +0.000 C 
BRANCH  21  32
ATOM     31  O   UNL     1       2.172  10.934  17.877  0.00  0.00    +0.000 OA
ATOM     32  C   UNL     1       1.202  10.312  18.261  0.00  0.00    +0.000 C 
BRANCH  32  33
ATOM     33  O   UNL     1       0.078  10.274  17.516  0.00  0.00    +0.000 OA
ATOM     34  H   UNL     1       0.362  10.601  16.639  0.00  0.00    +0.000 HD
ENDBRANCH  32  33
ENDBRANCH  21  32
ENDBRANCH  19  22
ENDBRANCH   1  19
TORSDOF 8
ENDMDL
MODEL 7
REMARK VINA RESULT:      -8.0      1.929      4.786
REMARK  Name = 
REMARK  8 active torsions:
REMARK  status: ('A' for Active; 'I' for Inactive)
REMARK    1  A    between atoms: C_2  and  O_3
REMARK    2  A    between atoms: C_2  and  C_4
REMARK    3  A    between atoms: C_5  and  N_6
REMARK    4  A    between atoms: N_6  and  S_7
REMARK    5  A    between atoms: S_7  and  C_10
REMARK    6  A    between atoms: C_15  and  N_16
REMARK    7  A    between atoms: N_16  and  C_17
REMARK    8  A    between atoms: C_17  and  C_18
REMARK                            x       y       z     vdW  Elec       q    Type
REMARK                         _______ _______ _______ _____ _____    ______ ____
ROOT
ATOM      1  S   UNL     1       4.922   6.373  17.810  0.00  0.00    +0.000 S 
ATOM      2  O   UNL     1       5.352   7.710  17.481  0.00  0.00    +0.000 OA
ATOM      3  O   UNL     1       5.276   5.753  19.068  0.00  0.00    +0.000 OA
ENDROOT
BRANCH   1   4
ATOM      4  C   UNL     1       5.451   5.268  16.497  0.00  0.00    +0.000 A 
ATOM      5  C   UNL     1       5.829   5.914  15.294  0.00  0.00    +0.000 A 
ATOM      6  C   UNL     1       6.030   5.194  14.116  0.00  0.00    +0.000 A 
ATOM      7  C   UNL     1       5.822   3.826  14.117  0.00  0.00    +0.000 A 
ATOM      8  C   UNL     1       5.480   3.183  15.306  0.00  0.00    +0.000 A 
ATOM      9  C   UNL     1       5.335   3.859  16.545  0.00  0.00    +0.000 A 
BRANCH   9  10
ATOM     10  N   UNL     1       5.002   3.102  17.694  0.00  0.00    +0.000 N 
ATOM     11  H   UNL     1       5.742   2.471  18.004  0.00  0.00    +0.000 HD
BRANCH  10  12
ATOM     12  C   UNL     1       3.641   2.548  17.732  0.00  0.00    +0.000 C 
BRANCH  12  13
ATOM     13  C   UNL     1       2.926   2.528  19.061  0.00  0.00    +0.000 A 
ATOM     14  C   UNL     1       3.549   2.479  20.305  0.00  0.00    +0.000 A 
ATOM     15  C   UNL     1       2.750   2.476  21.444  0.00  0.00    +0.000 A 
ATOM     16  N   UNL     1       1.398   2.539  21.435  0.00  0.00    +0.000 NA
ATOM     17  C   UNL     1       0.812   2.610  20.226  0.00  0.00    +0.000 A 
ATOM     18  C   UNL     1       1.522   2.609  19.035  0.00  0.00    +0.000 A 
ENDBRANCH  12  13
ENDBRANCH  10  12
ENDBRANCH   9  10
ENDBRANCH   1   4
BRANCH   1  19
ATOM     19  N   UNL     1       3.218   6.316  17.751  0.00  0.00    +0.000 N 
ATOM     20  H   UNL     1       2.930   5.462  18.230  0.00  0.00    +0.000 HD
BRANCH  19  22
ATOM     21  C   UNL     1       1.889   7.460  19.565  0.00  0.00    +0.000 A 
ATOM     22  C   UNL     1       2.529   7.474  18.304  0.00  0.00    +0.000 A 
ATOM     23  C   UNL     1       2.468   8.637  17.526  0.00  0.00    +0.000 A 
ATOM     24  C   UNL     1       1.835   9.786  18.010  0.00  0.00    +0.000 A 
ATOM     25  C   UNL     1       1.222   9.800  19.271  0.00  0.00    +0.000 A 
ATOM     26  C   UNL     1       1.248   8.630  20.064  0.00  0.00    +0.000 A 
ATOM     27  C   UNL     1       0.555   8.631  21.417  0.00  0.00    +0.000 C 
ATOM     28  C   UNL     1       0.255  10.019  21.984  0.00  0.00    +0.000 C 
ATOM     29  C   UNL     1      -0.365  10.910  20.922  0.00  0.00    +0.000 C 
ATOM     30  C   UNL     1       0.616  11.097  19.767  0.00  0.00    +0.000 C 
BRANCH  21  32
ATOM     31  O   UNL     1       0.880   5.650  20.799  0.00  0.00    +0.000 OA
ATOM     32  C   UNL     1       1.867   6.218  20.375  0.00  0.00    +0.000 C 
BRANCH  32  33
ATOM     33  O   UNL     1       3.098   5.746  20.657  0.00  0.00    +0.000 OA
ATOM     34  H   UNL     1       3.624   6.550  20.843  0.00  0.00    +0.000 HD
ENDBRANCH  32  33
ENDBRANCH  21  32
ENDBRANCH  19  22
ENDBRANCH   1  19
TORSDOF 8
ENDMDL
MODEL 8
REMARK VINA RESULT:      -8.0      1.967      2.828
REMARK  Name = 
REMARK  8 active torsions:
REMARK  status: ('A' for Active; 'I' for Inactive)
REMARK    1  A    between atoms: C_2  and  O_3
REMARK    2  A    between atoms: C_2  and  C_4
REMARK    3  A    between atoms: C_5  and  N_6
REMARK    4  A    between atoms: N_6  and  S_7
REMARK    5  A    between atoms: S_7  and  C_10
REMARK    6  A    between atoms: C_15  and  N_16
REMARK    7  A    between atoms: N_16  and  C_17
REMARK    8  A    between atoms: C_17  and  C_18
REMARK                            x       y       z     vdW  Elec       q    Type
REMARK                         _______ _______ _______ _____ _____    ______ ____
ROOT
ATOM      1  S   UNL     1       2.466   5.112  18.062  0.00  0.00    +0.000 S 
ATOM      2  O   UNL     1       1.095   5.428  17.742  0.00  0.00    +0.000 OA
ATOM      3  O   UNL     1       3.406   4.705  17.041  0.00  0.00    +0.000 OA
ENDROOT
BRANCH   1   4
ATOM      4  C   UNL     1       2.473   3.848  19.337  0.00  0.00    +0.000 A 
ATOM      5  C   UNL     1       1.273   3.750  20.084  0.00  0.00    +0.000 A 
ATOM      6  C   UNL     1       1.206   2.994  21.254  0.00  0.00    +0.000 A 
ATOM      7  C   UNL     1       2.344   2.354  21.710  0.00  0.00    +0.000 A 
ATOM      8  C   UNL     1       3.519   2.423  20.962  0.00  0.00    +0.000 A 
ATOM      9  C   UNL     1       3.619   3.118  19.729  0.00  0.00    +0.000 A 
BRANCH   9  10
ATOM     10  N   UNL     1       4.859   3.106  19.045  0.00  0.00    +0.000 N 
ATOM     11  H   UNL     1       5.256   2.174  18.920  0.00  0.00    +0.000 HD
BRANCH  10  12
ATOM     12  C   UNL     1       5.816   4.156  19.422  0.00  0.00    +0.000 C 
BRANCH  12  13
ATOM     13  C   UNL     1       6.438   4.972  18.315  0.00  0.00    +0.000 A 
ATOM     14  C   UNL     1       6.931   6.267  18.455  0.00  0.00    +0.000 A 
ATOM     15  C   UNL     1       7.485   6.886  17.339  0.00  0.00    +0.000 A 
ATOM     16  N   UNL     1       7.604   6.311  16.120  0.00  0.00    +0.000 NA
ATOM     17  C   UNL     1       7.145   5.051  16.008  0.00  0.00    +0.000 A 
ATOM     18  C   UNL     1       6.567   4.354  17.057  0.00  0.00    +0.000 A 
ENDBRANCH  12  13
ENDBRANCH  10  12
ENDBRANCH   9  10
ENDBRANCH   1   4
BRANCH   1  19
ATOM     19  N   UNL     1       3.179   6.470  18.806  0.00  0.00    +0.000 N 
ATOM     20  H   UNL     1       3.681   6.982  18.079  0.00  0.00    +0.000 HD
BRANCH  19  22
ATOM     21  C   UNL     1       1.806   8.579  18.986  0.00  0.00    +0.000 A 
ATOM     22  C   UNL     1       2.265   7.353  19.519  0.00  0.00    +0.000 A 
ATOM     23  C   UNL     1       1.860   6.980  20.807  0.00  0.00    +0.000 A 
ATOM     24  C   UNL     1       0.971   7.776  21.533  0.00  0.00    +0.000 A 
ATOM     25  C   UNL     1       0.480   8.981  21.008  0.00  0.00    +0.000 A 
ATOM     26  C   UNL     1       0.894   9.391  19.720  0.00  0.00    +0.000 A 
ATOM     27  C   UNL     1       0.393  10.713  19.162  0.00  0.00    +0.000 C 
ATOM     28  C   UNL     1      -0.845  11.277  19.861  0.00  0.00    +0.000 C 
ATOM     29  C   UNL     1      -0.682  11.216  21.370  0.00  0.00    +0.000 C 
ATOM     30  C   UNL     1      -0.536   9.763  21.815  0.00  0.00    +0.000 C 
BRANCH  21  32
ATOM     31  O   UNL     1       2.758   8.347  16.782  0.00  0.00    +0.000 OA
ATOM     32  C   UNL     1       2.282   9.040  17.659  0.00  0.00    +0.000 C 
BRANCH  32  33
ATOM     33  O   UNL     1       2.173  10.374  17.490  0.00  0.00    +0.000 OA
ATOM     34  H   UNL     1       2.440  10.519  16.560  0.00  0.00    +0.000 HD
ENDBRANCH  32  33
ENDBRANCH  21  32
ENDBRANCH  19  22
ENDBRANCH   1  19
TORSDOF 8
ENDMDL
MODEL 9
REMARK VINA RESULT:      -8.0      3.151      5.703
REMARK  Name = 
REMARK  8 active torsions:
REMARK  status: ('A' for Active; 'I' for Inactive)
REMARK    1  A    between atoms: C_2  and  O_3
REMARK    2  A    between atoms: C_2  and  C_4
REMARK    3  A    between atoms: C_5  and  N_6
REMARK    4  A    between atoms: N_6  and  S_7
REMARK    5  A    between atoms: S_7  and  C_10
REMARK    6  A    between atoms: C_15  and  N_16
REMARK    7  A    between atoms: N_16  and  C_17
REMARK    8  A    between atoms: C_17  and  C_18
REMARK                            x       y       z     vdW  Elec       q    Type
REMARK                         _______ _______ _______ _____ _____    ______ ____
ROOT
ATOM      1  S   UNL     1       0.226   9.433  21.488  0.00  0.00    +0.000 S 
ATOM      2  O   UNL     1       1.041   9.976  22.547  0.00  0.00    +0.000 OA
ATOM      3  O   UNL     1      -0.645   8.299  21.709  0.00  0.00    +0.000 OA
ENDROOT
BRANCH   1   4
ATOM      4  C   UNL     1       1.292   9.032  20.100  0.00  0.00    +0.000 A 
ATOM      5  C   UNL     1       1.354  10.024  19.091  0.00  0.00    +0.000 A 
ATOM      6  C   UNL     1       1.938   9.764  17.852  0.00  0.00    +0.000 A 
ATOM      7  C   UNL     1       2.438   8.500  17.593  0.00  0.00    +0.000 A 
ATOM      8  C   UNL     1       2.407   7.530  18.594  0.00  0.00    +0.000 A 
ATOM      9  C   UNL     1       1.890   7.766  19.894  0.00  0.00    +0.000 A 
BRANCH   9  10
ATOM     10  N   UNL     1       1.925   6.711  20.837  0.00  0.00    +0.000 N 
ATOM     11  H   UNL     1       1.967   7.024  21.808  0.00  0.00    +0.000 HD
BRANCH  10  12
ATOM     12  C   UNL     1       2.789   5.571  20.502  0.00  0.00    +0.000 C 
BRANCH  12  13
ATOM     13  C   UNL     1       2.164   4.401  19.783  0.00  0.00    +0.000 A 
ATOM     14  C   UNL     1       0.961   3.794  20.134  0.00  0.00    +0.000 A 
ATOM     15  C   UNL     1       0.510   2.728  19.363  0.00  0.00    +0.000 A 
ATOM     16  N   UNL     1       1.147   2.243  18.272  0.00  0.00    +0.000 NA
ATOM     17  C   UNL     1       2.296   2.856  17.931  0.00  0.00    +0.000 A 
ATOM     18  C   UNL     1       2.832   3.918  18.642  0.00  0.00    +0.000 A 
ENDBRANCH  12  13
ENDBRANCH  10  12
ENDBRANCH   9  10
ENDBRANCH   1   4
BRANCH   1  19
ATOM     19  N   UNL     1      -0.794  10.666  20.896  0.00  0.00    +0.000 N 
ATOM     20  H   UNL     1      -1.682  10.227  20.650  0.00  0.00    +0.000 HD
BRANCH  19  22
ATOM     21  C   UNL     1      -0.237  12.976  21.742  0.00  0.00    +0.000 A 
ATOM     22  C   UNL     1      -1.008  11.793  21.794  0.00  0.00    +0.000 A 
ATOM     23  C   UNL     1      -1.998  11.672  22.777  0.00  0.00    +0.000 A 
ATOM     24  C   UNL     1      -2.262  12.725  23.657  0.00  0.00    +0.000 A 
ATOM     25  C   UNL     1      -1.529  13.919  23.600  0.00  0.00    +0.000 A 
ATOM     26  C   UNL     1      -0.506  14.055  22.633  0.00  0.00    +0.000 A 
ATOM     27  C   UNL     1       0.315  15.334  22.592  0.00  0.00    +0.000 C 
ATOM     28  C   UNL     1      -0.314  16.524  23.317  0.00  0.00    +0.000 C 
ATOM     29  C   UNL     1      -0.823  16.109  24.687  0.00  0.00    +0.000 C 
ATOM     30  C   UNL     1      -1.911  15.049  24.534  0.00  0.00    +0.000 C 
BRANCH  21  32
ATOM     31  O   UNL     1       2.058  12.965  20.999  0.00  0.00    +0.000 OA
ATOM     32  C   UNL     1       0.873  13.101  20.766  0.00  0.00    +0.000 C 
BRANCH  32  33
ATOM     33  O   UNL     1       0.455  13.429  19.526  0.00  0.00    +0.000 OA
ATOM     34  H   UNL     1       1.181  13.128  18.943  0.00  0.00    +0.000 HD
ENDBRANCH  32  33
ENDBRANCH  21  32
ENDBRANCH  19  22
ENDBRANCH   1  19
TORSDOF 8
ENDMDL
