MODEL 1
REMARK VINA RESULT:      -8.3      0.000      0.000
REMARK  Name = 
REMARK  4 active torsions:
REMARK  status: ('A' for Active; 'I' for Inactive)
REMARK    1  A    between atoms: C_2  and  C_3
REMARK    2  A    between atoms: C_3  and  N_4
REMARK    3  A    between atoms: C_13  and  N_14
REMARK    4  A    between atoms: N_18  and  C_19
REMARK                            x       y       z     vdW  Elec       q    Type
REMARK                         _______ _______ _______ _____ _____    ______ ____
ROOT
ATOM      1  N   UNL     1       4.336   4.990  18.513  0.00  0.00    +0.000 N 
ATOM      2  C   UNL     1       3.978   6.318  18.313  0.00  0.00    +0.000 C 
ATOM      3  O   UNL     1       4.566   7.168  17.672  0.00  0.00    +0.000 OA
ATOM      4  C   UNL     1       2.692   6.535  19.123  0.00  0.00    +0.000 C 
ATOM      5  O   UNL     1       2.024   7.541  19.179  0.00  0.00    +0.000 OA
ATOM      6  C   UNL     1       2.456   5.275  19.814  0.00  0.00    +0.000 A 
ATOM      7  C   UNL     1       1.439   4.998  20.718  0.00  0.00    +0.000 A 
ATOM      8  C   UNL     1       1.395   3.725  21.274  0.00  0.00    +0.000 A 
ATOM      9  C   UNL     1       2.348   2.765  20.896  0.00  0.00    +0.000 A 
ATOM     10  C   UNL     1       3.358   3.079  19.958  0.00  0.00    +0.000 A 
ATOM     11  C   UNL     1       3.441   4.356  19.416  0.00  0.00    +0.000 A 
ENDROOT
BRANCH  10  12
ATOM     12  N   UNL     1       4.168   1.974  19.497  0.00  0.00    +0.000 N 
ATOM     13  O   UNL     1       5.127   1.636  20.202  0.00  0.00    +0.000 OA
ATOM     14  O   UNL     1       3.778   1.386  18.480  0.00  0.00    +0.000 OA
ENDBRANCH  10  12
BRANCH   1  15
ATOM     15  C   UNL     1       5.621   4.522  18.047  0.00  0.00    +0.000 C 
BRANCH  15  17
ATOM     16  O   UNL     1       4.541   3.686  16.077  0.00  0.00    +0.000 OA
ATOM     17  C   UNL     1       5.546   4.213  16.550  0.00  0.00    +0.000 C 
ATOM     18  N   UNL     1       6.695   4.548  15.851  0.00  0.00    +0.000 N 
ATOM     19  H   UNL     1       7.396   5.105  16.327  0.00  0.00    +0.000 HD
BRANCH  18  20
ATOM     20  C   UNL     1       6.837   4.442  14.453  0.00  0.00    +0.000 A 
ATOM     21  C   UNL     1       7.722   5.322  13.822  0.00  0.00    +0.000 A 
ATOM     22  C   UNL     1       7.839   5.325  12.430  0.00  0.00    +0.000 A 
ATOM     23  C   UNL     1       7.123   4.404  11.668  0.00  0.00    +0.000 A 
ATOM     24  C   UNL     1       6.287   3.484  12.297  0.00  0.00    +0.000 A 
ATOM     25  C   UNL     1       6.131   3.513  13.686  0.00  0.00    +0.000 A 
ENDBRANCH  18  20
ENDBRANCH  15  17
ENDBRANCH   1  15
TORSDOF 4
ENDMDL
MODEL 2
REMARK VINA RESULT:      -8.1      1.007      1.403
REMARK  Name = 
REMARK  4 active torsions:
REMARK  status: ('A' for Active; 'I' for Inactive)
REMARK    1  A    between atoms: C_2  and  C_3
REMARK    2  A    between atoms: C_3  and  N_4
REMARK    3  A    between atoms: C_13  and  N_14
REMARK    4  A    between atoms: N_18  and  C_19
REMARK                            x       y       z     vdW  Elec       q    Type
REMARK                         _______ _______ _______ _____ _____    ______ ____
ROOT
ATOM      1  N   UNL     1       4.731   4.901  18.385  0.00  0.00    +0.000 N 
ATOM      2  C   UNL     1       4.476   6.198  17.957  0.00  0.00    +0.000 C 
ATOM      3  O   UNL     1       5.238   6.979  17.419  0.00  0.00    +0.000 OA
ATOM      4  C   UNL     1       3.022   6.493  18.352  0.00  0.00    +0.000 C 
ATOM      5  O   UNL     1       2.389   7.497  18.117  0.00  0.00    +0.000 OA
ATOM      6  C   UNL     1       2.573   5.313  19.077  0.00  0.00    +0.000 A 
ATOM      7  C   UNL     1       1.340   5.128  19.688  0.00  0.00    +0.000 A 
ATOM      8  C   UNL     1       1.113   3.921  20.338  0.00  0.00    +0.000 A 
ATOM      9  C   UNL     1       2.110   2.931  20.340  0.00  0.00    +0.000 A 
ATOM     10  C   UNL     1       3.347   3.149  19.692  0.00  0.00    +0.000 A 
ATOM     11  C   UNL     1       3.607   4.361  19.065  0.00  0.00    +0.000 A 
ENDROOT
BRANCH  10  12
ATOM     12  N   UNL     1       4.224   2.005  19.590  0.00  0.00    +0.000 N 
ATOM     13  O   UNL     1       5.042   1.831  20.502  0.00  0.00    +0.000 OA
ATOM     14  O   UNL     1       4.022   1.232  18.645  0.00  0.00    +0.000 OA
ENDBRANCH  10  12
BRANCH   1  15
ATOM     15  C   UNL     1       6.084   4.392  18.343  0.00  0.00    +0.000 C 
BRANCH  15  17
ATOM     16  O   UNL     1       7.779   5.180  16.844  0.00  0.00    +0.000 OA
ATOM     17  C   UNL     1       6.684   4.633  16.957  0.00  0.00    +0.000 C 
ATOM     18  N   UNL     1       5.872   4.215  15.914  0.00  0.00    +0.000 N 
ATOM     19  H   UNL     1       5.060   3.652  16.141  0.00  0.00    +0.000 HD
BRANCH  18  20
ATOM     20  C   UNL     1       6.239   4.249  14.555  0.00  0.00    +0.000 A 
ATOM     21  C   UNL     1       5.500   3.465  13.663  0.00  0.00    +0.000 A 
ATOM     22  C   UNL     1       5.871   3.388  12.319  0.00  0.00    +0.000 A 
ATOM     23  C   UNL     1       6.941   4.145  11.846  0.00  0.00    +0.000 A 
ATOM     24  C   UNL     1       7.642   4.974  12.718  0.00  0.00    +0.000 A 
ATOM     25  C   UNL     1       7.303   5.015  14.074  0.00  0.00    +0.000 A 
ENDBRANCH  18  20
ENDBRANCH  15  17
ENDBRANCH   1  15
TORSDOF 4
ENDMDL
MODEL 3
REMARK VINA RESULT:      -8.0      0.442      1.247
REMARK  Name = 
REMARK  4 active torsions:
REMARK  status: ('A' for Active; 'I' for Inactive)
REMARK    1  A    between atoms: C_2  and  C_3
REMARK    2  A    between atoms: C_3  and  N_4
REMARK    3  A    between atoms: C_13  and  N_14
REMARK    4  A    between atoms: N_18  and  C_19
REMARK                            x       y       z     vdW  Elec       q    Type
REMARK                         _______ _______ _______ _____ _____    ______ ____
ROOT
ATOM      1  N   UNL     1       4.570   4.975  18.396  0.00  0.00    +0.000 N 
ATOM      2  C   UNL     1       4.277   6.284  18.032  0.00  0.00    +0.000 C 
ATOM      3  O   UNL     1       4.959   7.059  17.390  0.00  0.00    +0.000 OA
ATOM      4  C   UNL     1       2.912   6.599  18.660  0.00  0.00    +0.000 C 
ATOM      5  O   UNL     1       2.270   7.618  18.543  0.00  0.00    +0.000 OA
ATOM      6  C   UNL     1       2.560   5.415  19.432  0.00  0.00    +0.000 A 
ATOM      7  C   UNL     1       1.437   5.244  20.230  0.00  0.00    +0.000 A 
ATOM      8  C   UNL     1       1.293   4.030  20.892  0.00  0.00    +0.000 A 
ATOM      9  C   UNL     1       2.255   3.022  20.721  0.00  0.00    +0.000 A 
ATOM     10  C   UNL     1       3.377   3.227  19.885  0.00  0.00    +0.000 A 
ATOM     11  C   UNL     1       3.559   4.445  19.241  0.00  0.00    +0.000 A 
ENDROOT
BRANCH  10  12
ATOM     12  N   UNL     1       4.203   2.070  19.628  0.00  0.00    +0.000 N 
ATOM     13  O   UNL     1       3.888   1.344  18.676  0.00  0.00    +0.000 OA
ATOM     14  O   UNL     1       5.221   1.949  20.321  0.00  0.00    +0.000 OA
ENDBRANCH  10  12
BRANCH   1  15
ATOM     15  C   UNL     1       5.887   4.442  18.131  0.00  0.00    +0.000 C 
BRANCH  15  17
ATOM     16  O   UNL     1       5.490   2.900  16.340  0.00  0.00    +0.000 OA
ATOM     17  C   UNL     1       5.974   3.979  16.675  0.00  0.00    +0.000 C 
ATOM     18  N   UNL     1       6.654   4.858  15.847  0.00  0.00    +0.000 N 
ATOM     19  H   UNL     1       6.880   5.776  16.212  0.00  0.00    +0.000 HD
BRANCH  18  20
ATOM     20  C   UNL     1       6.791   4.698  14.454  0.00  0.00    +0.000 A 
ATOM     21  C   UNL     1       5.971   3.755  13.826  0.00  0.00    +0.000 A 
ATOM     22  C   UNL     1       6.121   3.487  12.464  0.00  0.00    +0.000 A 
ATOM     23  C   UNL     1       7.044   4.208  11.709  0.00  0.00    +0.000 A 
ATOM     24  C   UNL     1       7.821   5.192  12.318  0.00  0.00    +0.000 A 
ATOM     25  C   UNL     1       7.706   5.426  13.692  0.00  0.00    +0.000 A 
ENDBRANCH  18  20
ENDBRANCH  15  17
ENDBRANCH   1  15
TORSDOF 4
ENDMDL
MODEL 4
REMARK VINA RESULT:      -7.9      1.049      1.220
REMARK  Name = 
REMARK  4 active torsions:
REMARK  status: ('A' for Active; 'I' for Inactive)
REMARK    1  A    between atoms: C_2  and  C_3
REMARK    2  A    between atoms: C_3  and  N_4
REMARK    3  A    between atoms: C_13  and  N_14
REMARK    4  A    between atoms: N_18  and  C_19
REMARK                            x       y       z     vdW  Elec       q    Type
REMARK                         _______ _______ _______ _____ _____    ______ ____
ROOT
ATOM      1  N   UNL     1       4.705   4.853  18.393  0.00  0.00    +0.000 N 
ATOM      2  C   UNL     1       4.475   6.153  17.955  0.00  0.00    +0.000 C 
ATOM      3  O   UNL     1       5.266   6.934  17.463  0.00  0.00    +0.000 OA
ATOM      4  C   UNL     1       3.001   6.448  18.269  0.00  0.00    +0.000 C 
ATOM      5  O   UNL     1       2.383   7.453  18.001  0.00  0.00    +0.000 OA
ATOM      6  C   UNL     1       2.511   5.266  18.964  0.00  0.00    +0.000 A 
ATOM      7  C   UNL     1       1.246   5.081  19.504  0.00  0.00    +0.000 A 
ATOM      8  C   UNL     1       0.982   3.872  20.138  0.00  0.00    +0.000 A 
ATOM      9  C   UNL     1       1.976   2.881  20.193  0.00  0.00    +0.000 A 
ATOM     10  C   UNL     1       3.247   3.099  19.615  0.00  0.00    +0.000 A 
ATOM     11  C   UNL     1       3.544   4.313  19.008  0.00  0.00    +0.000 A 
ENDROOT
BRANCH  10  12
ATOM     12  N   UNL     1       4.129   1.956  19.560  0.00  0.00    +0.000 N 
ATOM     13  O   UNL     1       4.012   1.192  18.593  0.00  0.00    +0.000 OA
ATOM     14  O   UNL     1       5.001   1.883  20.435  0.00  0.00    +0.000 OA
ENDBRANCH  10  12
BRANCH   1  15
ATOM     15  C   UNL     1       6.056   4.344  18.426  0.00  0.00    +0.000 C 
BRANCH  15  17
ATOM     16  O   UNL     1       7.865   4.821  16.928  0.00  0.00    +0.000 OA
ATOM     17  C   UNL     1       6.692   4.473  17.040  0.00  0.00    +0.000 C 
ATOM     18  N   UNL     1       5.821   4.200  15.997  0.00  0.00    +0.000 N 
ATOM     19  H   UNL     1       4.923   3.787  16.223  0.00  0.00    +0.000 HD
BRANCH  18  20
ATOM     20  C   UNL     1       6.190   4.166  14.638  0.00  0.00    +0.000 A 
ATOM     21  C   UNL     1       7.249   4.984  14.233  0.00  0.00    +0.000 A 
ATOM     22  C   UNL     1       7.604   5.061  12.884  0.00  0.00    +0.000 A 
ATOM     23  C   UNL     1       6.946   4.270  11.944  0.00  0.00    +0.000 A 
ATOM     24  C   UNL     1       5.931   3.408  12.352  0.00  0.00    +0.000 A 
ATOM     25  C   UNL     1       5.542   3.367  13.694  0.00  0.00    +0.000 A 
ENDBRANCH  18  20
ENDBRANCH  15  17
ENDBRANCH   1  15
TORSDOF 4
ENDMDL
MODEL 5
REMARK VINA RESULT:      -7.3      5.162      8.013
REMARK  Name = 
REMARK  4 active torsions:
REMARK  status: ('A' for Active; 'I' for Inactive)
REMARK    1  A    between atoms: C_2  and  C_3
REMARK    2  A    between atoms: C_3  and  N_4
REMARK    3  A    between atoms: C_13  and  N_14
REMARK    4  A    between atoms: N_18  and  C_19
REMARK                            x       y       z     vdW  Elec       q    Type
REMARK                         _______ _______ _______ _____ _____    ______ ____
ROOT
ATOM      1  N   UNL     1       0.691  10.029  21.501  0.00  0.00    +0.000 N 
ATOM      2  C   UNL     1       0.065  10.231  22.726  0.00  0.00    +0.000 C 
ATOM      3  O   UNL     1       0.371   9.777  23.812  0.00  0.00    +0.000 OA
ATOM      4  C   UNL     1      -1.154  11.116  22.435  0.00  0.00    +0.000 C 
ATOM      5  O   UNL     1      -1.940  11.567  23.238  0.00  0.00    +0.000 OA
ATOM      6  C   UNL     1      -1.170  11.288  20.989  0.00  0.00    +0.000 A 
ATOM      7  C   UNL     1      -2.123  11.965  20.240  0.00  0.00    +0.000 A 
ATOM      8  C   UNL     1      -1.953  12.007  18.861  0.00  0.00    +0.000 A 
ATOM      9  C   UNL     1      -0.832  11.395  18.277  0.00  0.00    +0.000 A 
ATOM     10  C   UNL     1       0.127  10.730  19.075  0.00  0.00    +0.000 A 
ATOM     11  C   UNL     1      -0.041  10.646  20.451  0.00  0.00    +0.000 A 
ENDROOT
BRANCH  10  12
ATOM     12  N   UNL     1       1.331  10.301  18.401  0.00  0.00    +0.000 N 
ATOM     13  O   UNL     1       2.250  11.122  18.297  0.00  0.00    +0.000 OA
ATOM     14  O   UNL     1       1.387   9.110  18.068  0.00  0.00    +0.000 OA
ENDBRANCH  10  12
BRANCH   1  15
ATOM     15  C   UNL     1       1.763   9.065  21.401  0.00  0.00    +0.000 C 
BRANCH  15  17
ATOM     16  O   UNL     1       0.012   7.447  21.160  0.00  0.00    +0.000 OA
ATOM     17  C   UNL     1       1.199   7.708  20.976  0.00  0.00    +0.000 C 
ATOM     18  N   UNL     1       2.144   6.856  20.427  0.00  0.00    +0.000 N 
ATOM     19  H   UNL     1       3.055   7.239  20.199  0.00  0.00    +0.000 HD
BRANCH  18  20
ATOM     20  C   UNL     1       1.855   5.589  19.882  0.00  0.00    +0.000 A 
ATOM     21  C   UNL     1       2.044   5.415  18.508  0.00  0.00    +0.000 A 
ATOM     22  C   UNL     1       1.691   4.211  17.895  0.00  0.00    +0.000 A 
ATOM     23  C   UNL     1       1.211   3.153  18.663  0.00  0.00    +0.000 A 
ATOM     24  C   UNL     1       1.079   3.300  20.042  0.00  0.00    +0.000 A 
ATOM     25  C   UNL     1       1.385   4.522  20.650  0.00  0.00    +0.000 A 
ENDBRANCH  18  20
ENDBRANCH  15  17
ENDBRANCH   1  15
TORSDOF 4
ENDMDL
MODEL 6
REMARK VINA RESULT:      -7.3      1.503      3.319
REMARK  Name = 
REMARK  4 active torsions:
REMARK  status: ('A' for Active; 'I' for Inactive)
REMARK    1  A    between atoms: C_2  and  C_3
REMARK    2  A    between atoms: C_3  and  N_4
REMARK    3  A    between atoms: C_13  and  N_14
REMARK    4  A    between atoms: N_18  and  C_19
REMARK                            x       y       z     vdW  Elec       q    Type
REMARK                         _______ _______ _______ _____ _____    ______ ____
ROOT
ATOM      1  N   UNL     1       4.978   5.514  18.602  0.00  0.00    +0.000 N 
ATOM      2  C   UNL     1       5.810   4.422  18.822  0.00  0.00    +0.000 C 
ATOM      3  O   UNL     1       6.992   4.310  18.560  0.00  0.00    +0.000 OA
ATOM      4  C   UNL     1       4.917   3.328  19.426  0.00  0.00    +0.000 C 
ATOM      5  O   UNL     1       5.260   2.234  19.811  0.00  0.00    +0.000 OA
ATOM      6  C   UNL     1       3.572   3.885  19.426  0.00  0.00    +0.000 A 
ATOM      7  C   UNL     1       2.405   3.247  19.824  0.00  0.00    +0.000 A 
ATOM      8  C   UNL     1       1.215   3.960  19.739  0.00  0.00    +0.000 A 
ATOM      9  C   UNL     1       1.228   5.288  19.283  0.00  0.00    +0.000 A 
ATOM     10  C   UNL     1       2.439   5.911  18.904  0.00  0.00    +0.000 A 
ATOM     11  C   UNL     1       3.635   5.205  18.948  0.00  0.00    +0.000 A 
ENDROOT
BRANCH  10  12
ATOM     12  N   UNL     1       2.371   7.329  18.633  0.00  0.00    +0.000 N 
ATOM     13  O   UNL     1       2.368   7.683  17.447  0.00  0.00    +0.000 OA
ATOM     14  O   UNL     1       2.220   8.075  19.609  0.00  0.00    +0.000 OA
ENDBRANCH  10  12
BRANCH   1  15
ATOM     15  C   UNL     1       5.473   6.644  17.850  0.00  0.00    +0.000 C 
BRANCH  15  17
ATOM     16  O   UNL     1       4.783   6.986  15.580  0.00  0.00    +0.000 OA
ATOM     17  C   UNL     1       5.461   6.315  16.356  0.00  0.00    +0.000 C 
ATOM     18  N   UNL     1       6.234   5.215  16.018  0.00  0.00    +0.000 N 
ATOM     19  H   UNL     1       6.855   4.836  16.724  0.00  0.00    +0.000 HD
BRANCH  18  20
ATOM     20  C   UNL     1       6.453   4.769  14.700  0.00  0.00    +0.000 A 
ATOM     21  C   UNL     1       7.546   5.301  14.008  0.00  0.00    +0.000 A 
ATOM     22  C   UNL     1       7.763   4.965  12.670  0.00  0.00    +0.000 A 
ATOM     23  C   UNL     1       6.930   4.045  12.038  0.00  0.00    +0.000 A 
ATOM     24  C   UNL     1       5.876   3.465  12.741  0.00  0.00    +0.000 A 
ATOM     25  C   UNL     1       5.628   3.838  14.066  0.00  0.00    +0.000 A 
ENDBRANCH  18  20
ENDBRANCH  15  17
ENDBRANCH   1  15
TORSDOF 4
ENDMDL
MODEL 7
REMARK VINA RESULT:      -7.3      1.420      3.428
REMARK  Name = 
REMARK  4 active torsions:
REMARK  status: ('A' for Active; 'I' for Inactive)
REMARK    1  A    between atoms: C_2  and  C_3
REMARK    2  A    between atoms: C_3  and  N_4
REMARK    3  A    between atoms: C_13  and  N_14
REMARK    4  A    between atoms: N_18  and  C_19
REMARK                            x       y       z     vdW  Elec       q    Type
REMARK                         _______ _______ _______ _____ _____    ______ ____
ROOT
ATOM      1  N   UNL     1       4.847   5.419  18.846  0.00  0.00    +0.000 N 
ATOM      2  C   UNL     1       5.667   4.306  18.988  0.00  0.00    +0.000 C 
ATOM      3  O   UNL     1       6.830   4.179  18.657  0.00  0.00    +0.000 OA
ATOM      4  C   UNL     1       4.788   3.212  19.610  0.00  0.00    +0.000 C 
ATOM      5  O   UNL     1       5.129   2.101  19.945  0.00  0.00    +0.000 OA
ATOM      6  C   UNL     1       3.456   3.794  19.701  0.00  0.00    +0.000 A 
ATOM      7  C   UNL     1       2.300   3.166  20.145  0.00  0.00    +0.000 A 
ATOM      8  C   UNL     1       1.122   3.904  20.147  0.00  0.00    +0.000 A 
ATOM      9  C   UNL     1       1.137   5.245  19.729  0.00  0.00    +0.000 A 
ATOM     10  C   UNL     1       2.337   5.855  19.300  0.00  0.00    +0.000 A 
ATOM     11  C   UNL     1       3.519   5.126  19.258  0.00  0.00    +0.000 A 
ENDROOT
BRANCH  10  12
ATOM     12  N   UNL     1       2.283   7.281  19.073  0.00  0.00    +0.000 N 
ATOM     13  O   UNL     1       2.220   7.670  17.900  0.00  0.00    +0.000 OA
ATOM     14  O   UNL     1       2.204   8.001  20.076  0.00  0.00    +0.000 OA
ENDBRANCH  10  12
BRANCH   1  15
ATOM     15  C   UNL     1       5.323   6.561  18.098  0.00  0.00    +0.000 C 
BRANCH  15  17
ATOM     16  O   UNL     1       4.441   6.800  15.883  0.00  0.00    +0.000 OA
ATOM     17  C   UNL     1       5.277   6.254  16.600  0.00  0.00    +0.000 C 
ATOM     18  N   UNL     1       6.214   5.318  16.192  0.00  0.00    +0.000 N 
ATOM     19  H   UNL     1       6.936   5.050  16.850  0.00  0.00    +0.000 HD
BRANCH  18  20
ATOM     20  C   UNL     1       6.427   4.935  14.853  0.00  0.00    +0.000 A 
ATOM     21  C   UNL     1       5.522   4.033  14.284  0.00  0.00    +0.000 A 
ATOM     22  C   UNL     1       5.731   3.548  12.990  0.00  0.00    +0.000 A 
ATOM     23  C   UNL     1       6.806   4.014  12.236  0.00  0.00    +0.000 A 
ATOM     24  C   UNL     1       7.675   4.959  12.776  0.00  0.00    +0.000 A 
ATOM     25  C   UNL     1       7.496   5.408  14.089  0.00  0.00    +0.000 A 
ENDBRANCH  18  20
ENDBRANCH  15  17
ENDBRANCH   1  15
TORSDOF 4
ENDMDL
MODEL 8
REMARK VINA RESULT:      -7.2      5.187      8.168
REMARK  Name = 
REMARK  4 active torsions:
REMARK  status: ('A' for Active; 'I' for Inactive)
REMARK    1  A    between atoms: C_2  and  C_3
REMARK    2  A    between atoms: C_3  and  N_4
REMARK    3  A    between atoms: C_13  and  N_14
REMARK    4  A    between atoms: N_18  and  C_19
REMARK                            x       y       z     vdW  Elec       q    Type
REMARK                         _______ _______ _______ _____ _____    ______ ____
ROOT
ATOM      1  N   UNL     1       0.622  10.159  21.579  0.00  0.00    +0.000 N 
ATOM      2  C   UNL     1      -0.046  10.279  22.792  0.00  0.00    +0.000 C 
ATOM      3  O   UNL     1       0.233   9.767  23.860  0.00  0.00    +0.000 OA
ATOM      4  C   UNL     1      -1.271  11.160  22.513  0.00  0.00    +0.000 C 
ATOM      5  O   UNL     1      -2.090  11.551  23.314  0.00  0.00    +0.000 OA
ATOM      6  C   UNL     1      -1.243  11.417  21.080  0.00  0.00    +0.000 A 
ATOM      7  C   UNL     1      -2.182  12.122  20.340  0.00  0.00    +0.000 A 
ATOM      8  C   UNL     1      -1.969  12.247  18.972  0.00  0.00    +0.000 A 
ATOM      9  C   UNL     1      -0.819  11.687  18.391  0.00  0.00    +0.000 A 
ATOM     10  C   UNL     1       0.125  10.992  19.180  0.00  0.00    +0.000 A 
ATOM     11  C   UNL     1      -0.086  10.825  20.543  0.00  0.00    +0.000 A 
ENDROOT
BRANCH  10  12
ATOM     12  N   UNL     1       1.358  10.622  18.523  0.00  0.00    +0.000 N 
ATOM     13  O   UNL     1       1.403   9.514  17.976  0.00  0.00    +0.000 OA
ATOM     14  O   UNL     1       2.243  11.487  18.475  0.00  0.00    +0.000 OA
ENDBRANCH  10  12
BRANCH   1  15
ATOM     15  C   UNL     1       1.714   9.220  21.458  0.00  0.00    +0.000 C 
BRANCH  15  17
ATOM     16  O   UNL     1       0.001   7.573  21.149  0.00  0.00    +0.000 OA
ATOM     17  C   UNL     1       1.182   7.868  20.980  0.00  0.00    +0.000 C 
ATOM     18  N   UNL     1       2.147   7.059  20.401  0.00  0.00    +0.000 N 
ATOM     19  H   UNL     1       3.049   7.472  20.191  0.00  0.00    +0.000 HD
BRANCH  18  20
ATOM     20  C   UNL     1       1.888   5.809  19.806  0.00  0.00    +0.000 A 
ATOM     21  C   UNL     1       1.470   4.768  20.641  0.00  0.00    +0.000 A 
ATOM     22  C   UNL     1       1.284   3.483  20.125  0.00  0.00    +0.000 A 
ATOM     23  C   UNL     1       1.448   3.249  18.761  0.00  0.00    +0.000 A 
ATOM     24  C   UNL     1       1.804   4.296  17.915  0.00  0.00    +0.000 A 
ATOM     25  C   UNL     1       2.040   5.572  18.438  0.00  0.00    +0.000 A 
ENDBRANCH  18  20
ENDBRANCH  15  17
ENDBRANCH   1  15
TORSDOF 4
ENDMDL
MODEL 9
REMARK VINA RESULT:      -7.1      1.449      1.874
REMARK  Name = 
REMARK  4 active torsions:
REMARK  status: ('A' for Active; 'I' for Inactive)
REMARK    1  A    between atoms: C_2  and  C_3
REMARK    2  A    between atoms: C_3  and  N_4
REMARK    3  A    between atoms: C_13  and  N_14
REMARK    4  A    between atoms: N_18  and  C_19
REMARK                            x       y       z     vdW  Elec       q    Type
REMARK                         _______ _______ _______ _____ _____    ______ ____
ROOT
ATOM      1  N   UNL     1       4.095   6.899  17.991  0.00  0.00    +0.000 N 
ATOM      2  C   UNL     1       3.290   8.033  17.972  0.00  0.00    +0.000 C 
ATOM      3  O   UNL     1       3.498   9.095  17.419  0.00  0.00    +0.000 OA
ATOM      4  C   UNL     1       2.078   7.703  18.853  0.00  0.00    +0.000 C 
ATOM      5  O   UNL     1       1.112   8.402  19.062  0.00  0.00    +0.000 OA
ATOM      6  C   UNL     1       2.342   6.376  19.392  0.00  0.00    +0.000 A 
ATOM      7  C   UNL     1       1.558   5.670  20.294  0.00  0.00    +0.000 A 
ATOM      8  C   UNL     1       1.996   4.412  20.689  0.00  0.00    +0.000 A 
ATOM      9  C   UNL     1       3.186   3.888  20.156  0.00  0.00    +0.000 A 
ATOM     10  C   UNL     1       3.949   4.629  19.225  0.00  0.00    +0.000 A 
ATOM     11  C   UNL     1       3.547   5.903  18.844  0.00  0.00    +0.000 A 
ENDROOT
BRANCH  10  12
ATOM     12  N   UNL     1       5.047   3.929  18.598  0.00  0.00    +0.000 N 
ATOM     13  O   UNL     1       4.811   3.324  17.545  0.00  0.00    +0.000 OA
ATOM     14  O   UNL     1       6.163   4.073  19.113  0.00  0.00    +0.000 OA
ENDBRANCH  10  12
BRANCH   1  15
ATOM     15  C   UNL     1       5.420   6.959  17.419  0.00  0.00    +0.000 C 
BRANCH  15  17
ATOM     16  O   UNL     1       4.695   7.086  15.138  0.00  0.00    +0.000 OA
ATOM     17  C   UNL     1       5.377   6.484  15.965  0.00  0.00    +0.000 C 
ATOM     18  N   UNL     1       6.128   5.344  15.725  0.00  0.00    +0.000 N 
ATOM     19  H   UNL     1       6.756   5.026  16.455  0.00  0.00    +0.000 HD
BRANCH  18  20
ATOM     20  C   UNL     1       6.317   4.766  14.455  0.00  0.00    +0.000 A 
ATOM     21  C   UNL     1       7.445   5.156  13.726  0.00  0.00    +0.000 A 
ATOM     22  C   UNL     1       7.640   4.686  12.425  0.00  0.00    +0.000 A 
ATOM     23  C   UNL     1       6.745   3.773  11.872  0.00  0.00    +0.000 A 
ATOM     24  C   UNL     1       5.653   3.334  12.617  0.00  0.00    +0.000 A 
ATOM     25  C   UNL     1       5.429   3.842  13.901  0.00  0.00    +0.000 A 
ENDBRANCH  18  20
ENDBRANCH  15  17
ENDBRANCH   1  15
TORSDOF 4
ENDMDL
