MODEL 1
REMARK VINA RESULT:      -7.2      0.000      0.000
REMARK  Name = 
REMARK  8 active torsions:
REMARK  status: ('A' for Active; 'I' for Inactive)
REMARK    1  A    between atoms: C_1  and  C_2
REMARK    2  A    between atoms: C_2  and  O_3
REMARK    3  A    between atoms: O_3  and  C_4
REMARK    4  A    between atoms: C_8  and  C_9
REMARK    5  A    between atoms: N_11  and  C_12
REMARK    6  A    between atoms: C_12  and  C_13
REMARK    7  A    between atoms: C_13  and  C_14
REMARK    8  A    between atoms: N_16  and  C_17
REMARK                            x       y       z     vdW  Elec       q    Type
REMARK                         _______ _______ _______ _____ _____    ______ ____
ROOT
ATOM      1  C   UNL     1       5.549   4.922  15.664  0.00  0.00    +0.000 C 
ATOM      2  O   UNL     1       4.936   4.139  16.388  0.00  0.00    +0.000 OA
ATOM      3  N   UNL     1       5.852   6.213  16.052  0.00  0.00    +0.000 N 
ATOM      4  H   UNL     1       6.268   6.859  15.395  0.00  0.00    +0.000 HD
ENDROOT
BRANCH   1   9
ATOM      5  C   UNL     1       5.584   3.336  12.211  0.00  0.00    +0.000 A 
ATOM      6  C   UNL     1       6.814   3.803  11.735  0.00  0.00    +0.000 A 
ATOM      7  C   UNL     1       7.618   4.621  12.528  0.00  0.00    +0.000 A 
ATOM      8  C   UNL     1       7.197   4.978  13.809  0.00  0.00    +0.000 A 
ATOM      9  C   UNL     1       5.972   4.511  14.300  0.00  0.00    +0.000 A 
ATOM     10  C   UNL     1       5.162   3.699  13.496  0.00  0.00    +0.000 A 
BRANCH   5  11
ATOM     11  O   UNL     1       4.886   2.543  11.342  0.00  0.00    +0.000 OA
BRANCH  11  13
ATOM     12  C   UNL     1       3.464   4.006  10.087  0.00  0.00    +0.000 C 
ATOM     13  C   UNL     1       3.520   2.896  11.118  0.00  0.00    +0.000 C 
ENDBRANCH  11  13
ENDBRANCH   5  11
ENDBRANCH   1   9
BRANCH   3  14
ATOM     14  C   UNL     1       5.424   6.726  17.338  0.00  0.00    +0.000 C 
BRANCH  14  15
ATOM     15  C   UNL     1       4.036   7.338  17.270  0.00  0.00    +0.000 C 
BRANCH  15  16
ATOM     16  C   UNL     1       3.109   6.667  18.255  0.00  0.00    +0.000 C 
ATOM     17  O   UNL     1       2.260   7.332  18.842  0.00  0.00    +0.000 OA
ATOM     18  N   UNL     1       3.340   5.309  18.419  0.00  0.00    +0.000 N 
ATOM     19  H   UNL     1       4.200   4.932  18.033  0.00  0.00    +0.000 HD
BRANCH  18  20
ATOM     20  C   UNL     1       2.582   4.453  19.250  0.00  0.00    +0.000 A 
ATOM     21  C   UNL     1       1.568   3.633  18.764  0.00  0.00    +0.000 A 
ATOM     22  C   UNL     1       0.826   2.885  19.661  0.00  0.00    +0.000 A 
ATOM     23  N   UNL     1       1.039   2.884  20.993  0.00  0.00    +0.000 NA
ATOM     24  C   UNL     1       2.048   3.661  21.439  0.00  0.00    +0.000 A 
ATOM     25  C   UNL     1       2.855   4.440  20.620  0.00  0.00    +0.000 A 
ENDBRANCH  18  20
ENDBRANCH  15  16
ENDBRANCH  14  15
ENDBRANCH   3  14
TORSDOF 7
ENDMDL
MODEL 2
REMARK VINA RESULT:      -7.1      3.101      8.042
REMARK  Name = 
REMARK  8 active torsions:
REMARK  status: ('A' for Active; 'I' for Inactive)
REMARK    1  A    between atoms: C_1  and  C_2
REMARK    2  A    between atoms: C_2  and  O_3
REMARK    3  A    between atoms: O_3  and  C_4
REMARK    4  A    between atoms: C_8  and  C_9
REMARK    5  A    between atoms: N_11  and  C_12
REMARK    6  A    between atoms: C_12  and  C_13
REMARK    7  A    between atoms: C_13  and  C_14
REMARK    8  A    between atoms: N_16  and  C_17
REMARK                            x       y       z     vdW  Elec       q    Type
REMARK                         _______ _______ _______ _____ _____    ______ ____
ROOT
ATOM      1  C   UNL     1       2.097   4.805  20.326  0.00  0.00    +0.000 C 
ATOM      2  O   UNL     1       2.364   4.525  21.493  0.00  0.00    +0.000 OA
ATOM      3  N   UNL     1       1.937   3.844  19.348  0.00  0.00    +0.000 N 
ATOM      4  H   UNL     1       1.818   4.114  18.380  0.00  0.00    +0.000 HD
ENDROOT
BRANCH   1   9
ATOM      5  C   UNL     1       1.366   8.534  20.350  0.00  0.00    +0.000 A 
ATOM      6  C   UNL     1       1.773   8.876  19.057  0.00  0.00    +0.000 A 
ATOM      7  C   UNL     1       2.278   7.907  18.192  0.00  0.00    +0.000 A 
ATOM      8  C   UNL     1       2.377   6.581  18.615  0.00  0.00    +0.000 A 
ATOM      9  C   UNL     1       1.965   6.224  19.904  0.00  0.00    +0.000 A 
ATOM     10  C   UNL     1       1.470   7.204  20.774  0.00  0.00    +0.000 A 
BRANCH   5  11
ATOM     11  O   UNL     1       0.889   9.572  21.105  0.00  0.00    +0.000 OA
BRANCH  11  13
ATOM     12  C   UNL     1      -0.437   9.761  23.091  0.00  0.00    +0.000 C 
ATOM     13  C   UNL     1       0.918   9.391  22.522  0.00  0.00    +0.000 C 
ENDBRANCH  11  13
ENDBRANCH   5  11
ENDBRANCH   1   9
BRANCH   3  14
ATOM     14  C   UNL     1       2.112   2.437  19.648  0.00  0.00    +0.000 C 
BRANCH  14  15
ATOM     15  C   UNL     1       3.187   1.803  18.784  0.00  0.00    +0.000 C 
BRANCH  15  16
ATOM     16  C   UNL     1       4.297   2.788  18.507  0.00  0.00    +0.000 C 
ATOM     17  O   UNL     1       5.037   3.144  19.420  0.00  0.00    +0.000 OA
ATOM     18  N   UNL     1       4.353   3.227  17.192  0.00  0.00    +0.000 N 
ATOM     19  H   UNL     1       3.560   3.014  16.595  0.00  0.00    +0.000 HD
BRANCH  18  20
ATOM     20  C   UNL     1       5.324   4.114  16.675  0.00  0.00    +0.000 A 
ATOM     21  C   UNL     1       6.085   3.825  15.546  0.00  0.00    +0.000 A 
ATOM     22  C   UNL     1       7.067   4.719  15.156  0.00  0.00    +0.000 A 
ATOM     23  N   UNL     1       7.323   5.878  15.796  0.00  0.00    +0.000 NA
ATOM     24  C   UNL     1       6.551   6.154  16.868  0.00  0.00    +0.000 A 
ATOM     25  C   UNL     1       5.537   5.328  17.333  0.00  0.00    +0.000 A 
ENDBRANCH  18  20
ENDBRANCH  15  16
ENDBRANCH  14  15
ENDBRANCH   3  14
TORSDOF 7
ENDMDL
MODEL 3
REMARK VINA RESULT:      -7.1      3.278      5.422
REMARK  Name = 
REMARK  8 active torsions:
REMARK  status: ('A' for Active; 'I' for Inactive)
REMARK    1  A    between atoms: C_1  and  C_2
REMARK    2  A    between atoms: C_2  and  O_3
REMARK    3  A    between atoms: O_3  and  C_4
REMARK    4  A    between atoms: C_8  and  C_9
REMARK    5  A    between atoms: N_11  and  C_12
REMARK    6  A    between atoms: C_12  and  C_13
REMARK    7  A    between atoms: C_13  and  C_14
REMARK    8  A    between atoms: N_16  and  C_17
REMARK                            x       y       z     vdW  Elec       q    Type
REMARK                         _______ _______ _______ _____ _____    ______ ____
ROOT
ATOM      1  C   UNL     1       4.609   3.589  19.050  0.00  0.00    +0.000 C 
ATOM      2  O   UNL     1       5.368   3.394  19.998  0.00  0.00    +0.000 OA
ATOM      3  N   UNL     1       3.294   3.164  19.050  0.00  0.00    +0.000 N 
ATOM      4  H   UNL     1       2.729   3.253  18.216  0.00  0.00    +0.000 HD
ENDROOT
BRANCH   1   9
ATOM      5  C   UNL     1       6.374   6.023  16.727  0.00  0.00    +0.000 A 
ATOM      6  C   UNL     1       5.998   5.500  15.486  0.00  0.00    +0.000 A 
ATOM      7  C   UNL     1       5.182   4.373  15.408  0.00  0.00    +0.000 A 
ATOM      8  C   UNL     1       4.732   3.758  16.577  0.00  0.00    +0.000 A 
ATOM      9  C   UNL     1       5.095   4.276  17.826  0.00  0.00    +0.000 A 
ATOM     10  C   UNL     1       5.925   5.402  17.899  0.00  0.00    +0.000 A 
BRANCH   5  11
ATOM     11  O   UNL     1       7.177   7.130  16.674  0.00  0.00    +0.000 OA
BRANCH  11  13
ATOM     12  C   UNL     1       8.123   8.995  17.841  0.00  0.00    +0.000 C 
ATOM     13  C   UNL     1       7.810   7.513  17.896  0.00  0.00    +0.000 C 
ENDBRANCH  11  13
ENDBRANCH   5  11
ENDBRANCH   1   9
BRANCH   3  14
ATOM     14  C   UNL     1       2.748   2.427  20.172  0.00  0.00    +0.000 C 
BRANCH  14  15
ATOM     15  C   UNL     1       2.073   3.343  21.177  0.00  0.00    +0.000 C 
BRANCH  15  16
ATOM     16  C   UNL     1       1.556   4.589  20.499  0.00  0.00    +0.000 C 
ATOM     17  O   UNL     1       0.633   4.505  19.694  0.00  0.00    +0.000 OA
ATOM     18  N   UNL     1       2.226   5.750  20.855  0.00  0.00    +0.000 N 
ATOM     19  H   UNL     1       3.096   5.648  21.367  0.00  0.00    +0.000 HD
BRANCH  18  20
ATOM     20  C   UNL     1       1.903   7.046  20.392  0.00  0.00    +0.000 A 
ATOM     21  C   UNL     1       1.250   7.989  21.181  0.00  0.00    +0.000 A 
ATOM     22  C   UNL     1       0.906   9.206  20.619  0.00  0.00    +0.000 A 
ATOM     23  N   UNL     1       1.184   9.550  19.345  0.00  0.00    +0.000 NA
ATOM     24  C   UNL     1       1.847   8.634  18.609  0.00  0.00    +0.000 A 
ATOM     25  C   UNL     1       2.244   7.390  19.082  0.00  0.00    +0.000 A 
ENDBRANCH  18  20
ENDBRANCH  15  16
ENDBRANCH  14  15
ENDBRANCH   3  14
TORSDOF 7
ENDMDL
MODEL 4
REMARK VINA RESULT:      -7.1      2.495      4.396
REMARK  Name = 
REMARK  8 active torsions:
REMARK  status: ('A' for Active; 'I' for Inactive)
REMARK    1  A    between atoms: C_1  and  C_2
REMARK    2  A    between atoms: C_2  and  O_3
REMARK    3  A    between atoms: O_3  and  C_4
REMARK    4  A    between atoms: C_8  and  C_9
REMARK    5  A    between atoms: N_11  and  C_12
REMARK    6  A    between atoms: C_12  and  C_13
REMARK    7  A    between atoms: C_13  and  C_14
REMARK    8  A    between atoms: N_16  and  C_17
REMARK                            x       y       z     vdW  Elec       q    Type
REMARK                         _______ _______ _______ _____ _____    ______ ____
ROOT
ATOM      1  C   UNL     1       4.639   3.835  18.864  0.00  0.00    +0.000 C 
ATOM      2  O   UNL     1       5.519   3.563  19.679  0.00  0.00    +0.000 OA
ATOM      3  N   UNL     1       3.308   3.530  19.077  0.00  0.00    +0.000 N 
ATOM      4  H   UNL     1       2.627   3.678  18.344  0.00  0.00    +0.000 HD
ENDROOT
BRANCH   1   9
ATOM      5  C   UNL     1       5.949   4.435  15.349  0.00  0.00    +0.000 A 
ATOM      6  C   UNL     1       5.572   5.769  15.167  0.00  0.00    +0.000 A 
ATOM      7  C   UNL     1       4.901   6.461  16.174  0.00  0.00    +0.000 A 
ATOM      8  C   UNL     1       4.604   5.821  17.377  0.00  0.00    +0.000 A 
ATOM      9  C   UNL     1       4.983   4.488  17.575  0.00  0.00    +0.000 A 
ATOM     10  C   UNL     1       5.646   3.794  16.555  0.00  0.00    +0.000 A 
BRANCH   5  11
ATOM     11  O   UNL     1       6.600   3.864  14.289  0.00  0.00    +0.000 OA
BRANCH  11  13
ATOM     12  C   UNL     1       6.750   3.555  11.918  0.00  0.00    +0.000 C 
ATOM     13  C   UNL     1       5.821   3.639  13.113  0.00  0.00    +0.000 C 
ENDBRANCH  11  13
ENDBRANCH   5  11
ENDBRANCH   1   9
BRANCH   3  14
ATOM     14  C   UNL     1       2.884   2.833  20.274  0.00  0.00    +0.000 C 
BRANCH  14  15
ATOM     15  C   UNL     1       2.359   3.790  21.330  0.00  0.00    +0.000 C 
BRANCH  15  16
ATOM     16  C   UNL     1       1.641   4.952  20.686  0.00  0.00    +0.000 C 
ATOM     17  O   UNL     1       0.576   4.762  20.104  0.00  0.00    +0.000 OA
ATOM     18  N   UNL     1       2.303   6.165  20.804  0.00  0.00    +0.000 N 
ATOM     19  H   UNL     1       3.266   6.142  21.125  0.00  0.00    +0.000 HD
BRANCH  18  20
ATOM     20  C   UNL     1       1.817   7.403  20.324  0.00  0.00    +0.000 A 
ATOM     21  C   UNL     1       2.065   7.862  19.034  0.00  0.00    +0.000 A 
ATOM     22  C   UNL     1       1.615   9.121  18.675  0.00  0.00    +0.000 A 
ATOM     23  N   UNL     1       0.925   9.933  19.500  0.00  0.00    +0.000 NA
ATOM     24  C   UNL     1       0.667   9.455  20.735  0.00  0.00    +0.000 A 
ATOM     25  C   UNL     1       1.066   8.204  21.187  0.00  0.00    +0.000 A 
ENDBRANCH  18  20
ENDBRANCH  15  16
ENDBRANCH  14  15
ENDBRANCH   3  14
TORSDOF 7
ENDMDL
MODEL 5
REMARK VINA RESULT:      -6.9      3.478      5.511
REMARK  Name = 
REMARK  8 active torsions:
REMARK  status: ('A' for Active; 'I' for Inactive)
REMARK    1  A    between atoms: C_1  and  C_2
REMARK    2  A    between atoms: C_2  and  O_3
REMARK    3  A    between atoms: O_3  and  C_4
REMARK    4  A    between atoms: C_8  and  C_9
REMARK    5  A    between atoms: N_11  and  C_12
REMARK    6  A    between atoms: C_12  and  C_13
REMARK    7  A    between atoms: C_13  and  C_14
REMARK    8  A    between atoms: N_16  and  C_17
REMARK                            x       y       z     vdW  Elec       q    Type
REMARK                         _______ _______ _______ _____ _____    ______ ____
ROOT
ATOM      1  C   UNL     1       4.965   3.359  18.602  0.00  0.00    +0.000 C 
ATOM      2  O   UNL     1       5.173   3.152  19.796  0.00  0.00    +0.000 OA
ATOM      3  N   UNL     1       4.023   2.656  17.877  0.00  0.00    +0.000 N 
ATOM      4  H   UNL     1       3.949   2.783  16.877  0.00  0.00    +0.000 HD
ENDROOT
BRANCH   1   9
ATOM      5  C   UNL     1       7.248   6.294  17.818  0.00  0.00    +0.000 A 
ATOM      6  C   UNL     1       7.257   6.236  16.420  0.00  0.00    +0.000 A 
ATOM      7  C   UNL     1       6.530   5.257  15.745  0.00  0.00    +0.000 A 
ATOM      8  C   UNL     1       5.784   4.324  16.467  0.00  0.00    +0.000 A 
ATOM      9  C   UNL     1       5.760   4.376  17.866  0.00  0.00    +0.000 A 
ATOM     10  C   UNL     1       6.502   5.355  18.539  0.00  0.00    +0.000 A 
BRANCH   5  11
ATOM     11  O   UNL     1       7.999   7.299  18.365  0.00  0.00    +0.000 OA
BRANCH  11  13
ATOM     12  C   UNL     1       8.726   9.576  18.521  0.00  0.00    +0.000 C 
ATOM     13  C   UNL     1       7.926   8.570  17.717  0.00  0.00    +0.000 C 
ENDBRANCH  11  13
ENDBRANCH   5  11
ENDBRANCH   1   9
BRANCH   3  14
ATOM     14  C   UNL     1       3.244   1.599  18.492  0.00  0.00    +0.000 C 
BRANCH  14  15
ATOM     15  C   UNL     1       1.965   2.128  19.115  0.00  0.00    +0.000 C 
BRANCH  15  16
ATOM     16  C   UNL     1       1.752   3.577  18.748  0.00  0.00    +0.000 C 
ATOM     17  O   UNL     1       1.175   3.861  17.702  0.00  0.00    +0.000 OA
ATOM     18  N   UNL     1       2.278   4.478  19.662  0.00  0.00    +0.000 N 
ATOM     19  H   UNL     1       2.906   4.111  20.370  0.00  0.00    +0.000 HD
BRANCH  18  20
ATOM     20  C   UNL     1       2.172   5.884  19.566  0.00  0.00    +0.000 A 
ATOM     21  C   UNL     1       1.629   6.671  20.577  0.00  0.00    +0.000 A 
ATOM     22  C   UNL     1       1.494   8.032  20.365  0.00  0.00    +0.000 A 
ATOM     23  N   UNL     1       1.880   8.656  19.234  0.00  0.00    +0.000 NA
ATOM     24  C   UNL     1       2.434   7.879  18.280  0.00  0.00    +0.000 A 
ATOM     25  C   UNL     1       2.621   6.509  18.400  0.00  0.00    +0.000 A 
ENDBRANCH  18  20
ENDBRANCH  15  16
ENDBRANCH  14  15
ENDBRANCH   3  14
TORSDOF 7
ENDMDL
MODEL 6
REMARK VINA RESULT:      -6.9      1.388      1.646
REMARK  Name = 
REMARK  8 active torsions:
REMARK  status: ('A' for Active; 'I' for Inactive)
REMARK    1  A    between atoms: C_1  and  C_2
REMARK    2  A    between atoms: C_2  and  O_3
REMARK    3  A    between atoms: O_3  and  C_4
REMARK    4  A    between atoms: C_8  and  C_9
REMARK    5  A    between atoms: N_11  and  C_12
REMARK    6  A    between atoms: C_12  and  C_13
REMARK    7  A    between atoms: C_13  and  C_14
REMARK    8  A    between atoms: N_16  and  C_17
REMARK                            x       y       z     vdW  Elec       q    Type
REMARK                         _______ _______ _______ _____ _____    ______ ____
ROOT
ATOM      1  C   UNL     1       6.715   4.681  15.587  0.00  0.00    +0.000 C 
ATOM      2  O   UNL     1       6.247   3.838  16.350  0.00  0.00    +0.000 OA
ATOM      3  N   UNL     1       7.233   5.881  16.033  0.00  0.00    +0.000 N 
ATOM      4  H   UNL     1       7.517   6.592  15.372  0.00  0.00    +0.000 HD
ENDROOT
BRANCH   1   9
ATOM      5  C   UNL     1       5.784   3.434  12.121  0.00  0.00    +0.000 A 
ATOM      6  C   UNL     1       6.753   4.087  11.353  0.00  0.00    +0.000 A 
ATOM      7  C   UNL     1       7.695   4.920  11.956  0.00  0.00    +0.000 A 
ATOM      8  C   UNL     1       7.675   5.105  13.338  0.00  0.00    +0.000 A 
ATOM      9  C   UNL     1       6.715   4.451  14.120  0.00  0.00    +0.000 A 
ATOM     10  C   UNL     1       5.764   3.624  13.507  0.00  0.00    +0.000 A 
BRANCH   5  11
ATOM     11  O   UNL     1       4.916   2.646  11.416  0.00  0.00    +0.000 OA
BRANCH  11  13
ATOM     12  C   UNL     1       3.401   3.795   9.960  0.00  0.00    +0.000 C 
ATOM     13  C   UNL     1       3.573   3.121  11.306  0.00  0.00    +0.000 C 
ENDBRANCH  11  13
ENDBRANCH   5  11
ENDBRANCH   1   9
BRANCH   3  14
ATOM     14  C   UNL     1       7.216   6.224  17.441  0.00  0.00    +0.000 C 
BRANCH  14  15
ATOM     15  C   UNL     1       5.879   6.803  17.868  0.00  0.00    +0.000 C 
BRANCH  15  16
ATOM     16  C   UNL     1       5.046   5.758  18.569  0.00  0.00    +0.000 C 
ATOM     17  O   UNL     1       5.419   5.306  19.649  0.00  0.00    +0.000 OA
ATOM     18  N   UNL     1       3.904   5.382  17.877  0.00  0.00    +0.000 N 
ATOM     19  H   UNL     1       3.826   5.679  16.910  0.00  0.00    +0.000 HD
BRANCH  18  20
ATOM     20  C   UNL     1       2.943   4.456  18.343  0.00  0.00    +0.000 A 
ATOM     21  C   UNL     1       1.955   4.792  19.263  0.00  0.00    +0.000 A 
ATOM     22  C   UNL     1       1.104   3.801  19.721  0.00  0.00    +0.000 A 
ATOM     23  N   UNL     1       1.158   2.518  19.311  0.00  0.00    +0.000 NA
ATOM     24  C   UNL     1       2.102   2.221  18.393  0.00  0.00    +0.000 A 
ATOM     25  C   UNL     1       2.996   3.144  17.866  0.00  0.00    +0.000 A 
ENDBRANCH  18  20
ENDBRANCH  15  16
ENDBRANCH  14  15
ENDBRANCH   3  14
TORSDOF 7
ENDMDL
MODEL 7
REMARK VINA RESULT:      -6.9      2.770      7.749
REMARK  Name = 
REMARK  8 active torsions:
REMARK  status: ('A' for Active; 'I' for Inactive)
REMARK    1  A    between atoms: C_1  and  C_2
REMARK    2  A    between atoms: C_2  and  O_3
REMARK    3  A    between atoms: O_3  and  C_4
REMARK    4  A    between atoms: C_8  and  C_9
REMARK    5  A    between atoms: N_11  and  C_12
REMARK    6  A    between atoms: C_12  and  C_13
REMARK    7  A    between atoms: C_13  and  C_14
REMARK    8  A    between atoms: N_16  and  C_17
REMARK                            x       y       z     vdW  Elec       q    Type
REMARK                         _______ _______ _______ _____ _____    ______ ____
ROOT
ATOM      1  C   UNL     1       2.726   5.166  19.742  0.00  0.00    +0.000 C 
ATOM      2  O   UNL     1       3.841   4.945  20.213  0.00  0.00    +0.000 OA
ATOM      3  N   UNL     1       1.831   4.157  19.445  0.00  0.00    +0.000 N 
ATOM      4  H   UNL     1       0.965   4.368  18.967  0.00  0.00    +0.000 HD
ENDROOT
BRANCH   1   9
ATOM      5  C   UNL     1       1.358   8.692  20.109  0.00  0.00    +0.000 A 
ATOM      6  C   UNL     1       1.550   9.170  18.808  0.00  0.00    +0.000 A 
ATOM      7  C   UNL     1       2.117   8.356  17.829  0.00  0.00    +0.000 A 
ATOM      8  C   UNL     1       2.495   7.050  18.144  0.00  0.00    +0.000 A 
ATOM      9  C   UNL     1       2.300   6.557  19.439  0.00  0.00    +0.000 A 
ATOM     10  C   UNL     1       1.741   7.383  20.423  0.00  0.00    +0.000 A 
BRANCH   5  11
ATOM     11  O   UNL     1       0.795   9.584  20.980  0.00  0.00    +0.000 OA
BRANCH  11  13
ATOM     12  C   UNL     1       0.029  11.851  20.867  0.00  0.00    +0.000 C 
ATOM     13  C   UNL     1      -0.240  10.417  20.455  0.00  0.00    +0.000 C 
ENDBRANCH  11  13
ENDBRANCH   5  11
ENDBRANCH   1   9
BRANCH   3  14
ATOM     14  C   UNL     1       2.181   2.765  19.643  0.00  0.00    +0.000 C 
BRANCH  14  15
ATOM     15  C   UNL     1       2.534   2.078  18.336  0.00  0.00    +0.000 C 
BRANCH  15  16
ATOM     16  C   UNL     1       3.203   3.045  17.389  0.00  0.00    +0.000 C 
ATOM     17  O   UNL     1       2.532   3.631  16.544  0.00  0.00    +0.000 OA
ATOM     18  N   UNL     1       4.574   3.157  17.566  0.00  0.00    +0.000 N 
ATOM     19  H   UNL     1       5.026   2.466  18.156  0.00  0.00    +0.000 HD
BRANCH  18  20
ATOM     20  C   UNL     1       5.417   4.025  16.835  0.00  0.00    +0.000 A 
ATOM     21  C   UNL     1       5.913   3.710  15.574  0.00  0.00    +0.000 A 
ATOM     22  C   UNL     1       6.794   4.587  14.965  0.00  0.00    +0.000 A 
ATOM     23  N   UNL     1       7.191   5.753  15.514  0.00  0.00    +0.000 NA
ATOM     24  C   UNL     1       6.671   6.054  16.722  0.00  0.00    +0.000 A 
ATOM     25  C   UNL     1       5.775   5.247  17.410  0.00  0.00    +0.000 A 
ENDBRANCH  18  20
ENDBRANCH  15  16
ENDBRANCH  14  15
ENDBRANCH   3  14
TORSDOF 7
ENDMDL
MODEL 8
REMARK VINA RESULT:      -6.8      2.759      8.005
REMARK  Name = 
REMARK  8 active torsions:
REMARK  status: ('A' for Active; 'I' for Inactive)
REMARK    1  A    between atoms: C_1  and  C_2
REMARK    2  A    between atoms: C_2  and  O_3
REMARK    3  A    between atoms: O_3  and  C_4
REMARK    4  A    between atoms: C_8  and  C_9
REMARK    5  A    between atoms: N_11  and  C_12
REMARK    6  A    between atoms: C_12  and  C_13
REMARK    7  A    between atoms: C_13  and  C_14
REMARK    8  A    between atoms: N_16  and  C_17
REMARK                            x       y       z     vdW  Elec       q    Type
REMARK                         _______ _______ _______ _____ _____    ______ ____
ROOT
ATOM      1  C   UNL     1       2.034   4.831  20.256  0.00  0.00    +0.000 C 
ATOM      2  O   UNL     1       2.571   4.510  21.315  0.00  0.00    +0.000 OA
ATOM      3  N   UNL     1       1.523   3.903  19.370  0.00  0.00    +0.000 N 
ATOM      4  H   UNL     1       1.179   4.196  18.465  0.00  0.00    +0.000 HD
ENDROOT
BRANCH   1   9
ATOM      5  C   UNL     1       1.416   8.579  20.363  0.00  0.00    +0.000 A 
ATOM      6  C   UNL     1       1.817   8.934  19.071  0.00  0.00    +0.000 A 
ATOM      7  C   UNL     1       2.281   7.967  18.181  0.00  0.00    +0.000 A 
ATOM      8  C   UNL     1       2.346   6.631  18.577  0.00  0.00    +0.000 A 
ATOM      9  C   UNL     1       1.940   6.261  19.864  0.00  0.00    +0.000 A 
ATOM     10  C   UNL     1       1.485   7.238  20.759  0.00  0.00    +0.000 A 
BRANCH   5  11
ATOM     11  O   UNL     1       0.981   9.615  21.144  0.00  0.00    +0.000 OA
BRANCH  11  13
ATOM     12  C   UNL     1      -0.079   9.504  23.289  0.00  0.00    +0.000 C 
ATOM     13  C   UNL     1      -0.281   9.437  21.789  0.00  0.00    +0.000 C 
ENDBRANCH  11  13
ENDBRANCH   5  11
ENDBRANCH   1   9
BRANCH   3  14
ATOM     14  C   UNL     1       1.628   2.482  19.634  0.00  0.00    +0.000 C 
BRANCH  14  15
ATOM     15  C   UNL     1       2.576   1.795  18.667  0.00  0.00    +0.000 C 
BRANCH  15  16
ATOM     16  C   UNL     1       3.140   2.787  17.679  0.00  0.00    +0.000 C 
ATOM     17  O   UNL     1       2.411   3.266  16.814  0.00  0.00    +0.000 OA
ATOM     18  N   UNL     1       4.492   3.048  17.844  0.00  0.00    +0.000 N 
ATOM     19  H   UNL     1       5.014   2.432  18.459  0.00  0.00    +0.000 HD
BRANCH  18  20
ATOM     20  C   UNL     1       5.240   3.969  17.075  0.00  0.00    +0.000 A 
ATOM     21  C   UNL     1       5.992   4.992  17.644  0.00  0.00    +0.000 A 
ATOM     22  C   UNL     1       6.630   5.894  16.811  0.00  0.00    +0.000 A 
ATOM     23  N   UNL     1       6.586   5.832  15.465  0.00  0.00    +0.000 NA
ATOM     24  C   UNL     1       5.879   4.813  14.934  0.00  0.00    +0.000 A 
ATOM     25  C   UNL     1       5.212   3.853  15.683  0.00  0.00    +0.000 A 
ENDBRANCH  18  20
ENDBRANCH  15  16
ENDBRANCH  14  15
ENDBRANCH   3  14
TORSDOF 7
ENDMDL
MODEL 9
REMARK VINA RESULT:      -6.8      3.144      7.866
REMARK  Name = 
REMARK  8 active torsions:
REMARK  status: ('A' for Active; 'I' for Inactive)
REMARK    1  A    between atoms: C_1  and  C_2
REMARK    2  A    between atoms: C_2  and  O_3
REMARK    3  A    between atoms: O_3  and  C_4
REMARK    4  A    between atoms: C_8  and  C_9
REMARK    5  A    between atoms: N_11  and  C_12
REMARK    6  A    between atoms: C_12  and  C_13
REMARK    7  A    between atoms: C_13  and  C_14
REMARK    8  A    between atoms: N_16  and  C_17
REMARK                            x       y       z     vdW  Elec       q    Type
REMARK                         _______ _______ _______ _____ _____    ______ ____
ROOT
ATOM      1  C   UNL     1       2.070   4.968  20.221  0.00  0.00    +0.000 C 
ATOM      2  O   UNL     1       2.435   4.669  21.357  0.00  0.00    +0.000 OA
ATOM      3  N   UNL     1       1.785   4.020  19.258  0.00  0.00    +0.000 N 
ATOM      4  H   UNL     1       1.585   4.302  18.307  0.00  0.00    +0.000 HD
ENDROOT
BRANCH   1   9
ATOM      5  C   UNL     1       1.372   8.702  20.303  0.00  0.00    +0.000 A 
ATOM      6  C   UNL     1       1.777   9.059  19.013  0.00  0.00    +0.000 A 
ATOM      7  C   UNL     1       2.268   8.098  18.131  0.00  0.00    +0.000 A 
ATOM      8  C   UNL     1       2.358   6.765  18.535  0.00  0.00    +0.000 A 
ATOM      9  C   UNL     1       1.949   6.393  19.821  0.00  0.00    +0.000 A 
ATOM     10  C   UNL     1       1.467   7.366  20.707  0.00  0.00    +0.000 A 
BRANCH   5  11
ATOM     11  O   UNL     1       0.909   9.733  21.075  0.00  0.00    +0.000 OA
BRANCH  11  13
ATOM     12  C   UNL     1      -0.837  11.230  20.407  0.00  0.00    +0.000 C 
ATOM     13  C   UNL     1       0.656  10.966  20.401  0.00  0.00    +0.000 C 
ENDBRANCH  11  13
ENDBRANCH   5  11
ENDBRANCH   1   9
BRANCH   3  14
ATOM     14  C   UNL     1       1.938   2.606  19.534  0.00  0.00    +0.000 C 
BRANCH  14  15
ATOM     15  C   UNL     1       3.087   1.996  18.750  0.00  0.00    +0.000 C 
BRANCH  15  16
ATOM     16  C   UNL     1       3.741   3.035  17.870  0.00  0.00    +0.000 C 
ATOM     17  O   UNL     1       3.148   3.454  16.879  0.00  0.00    +0.000 OA
ATOM     18  N   UNL     1       5.012   3.407  18.279  0.00  0.00    +0.000 N 
ATOM     19  H   UNL     1       5.460   2.836  18.988  0.00  0.00    +0.000 HD
BRANCH  18  20
ATOM     20  C   UNL     1       5.811   4.390  17.649  0.00  0.00    +0.000 A 
ATOM     21  C   UNL     1       6.087   5.623  18.230  0.00  0.00    +0.000 A 
ATOM     22  C   UNL     1       6.814   6.554  17.508  0.00  0.00    +0.000 A 
ATOM     23  N   UNL     1       7.297   6.330  16.269  0.00  0.00    +0.000 NA
ATOM     24  C   UNL     1       7.045   5.115  15.738  0.00  0.00    +0.000 A 
ATOM     25  C   UNL     1       6.335   4.113  16.385  0.00  0.00    +0.000 A 
ENDBRANCH  18  20
ENDBRANCH  15  16
ENDBRANCH  14  15
ENDBRANCH   3  14
TORSDOF 7
ENDMDL
