MODEL 1
REMARK VINA RESULT:      -8.7      0.000      0.000
REMARK  Name = 
REMARK  6 active torsions:
REMARK  status: ('A' for Active; 'I' for Inactive)
REMARK    1  A    between atoms: C_1  and  O_2
REMARK    2  A    between atoms: O_2  and  C_3
REMARK    3  A    between atoms: C_8  and  N_9
REMARK    4  A    between atoms: N_9  and  C_10
REMARK    5  A    between atoms: C_16  and  C_17
REMARK    6  A    between atoms: C_25  and  C_26
REMARK                            x       y       z     vdW  Elec       q    Type
REMARK                         _______ _______ _______ _____ _____    ______ ____
ROOT
ATOM      1  C   UNL     1       1.854   5.569  19.177  0.00  0.00    +0.000 C 
ATOM      2  C   UNL     1       1.693   4.328  20.027  0.00  0.00    +0.000 C 
ATOM      3  C   UNL     1       3.051   3.610  19.960  0.00  0.00    +0.000 C 
ATOM      4  C   UNL     1       2.703   2.177  19.484  0.00  0.00    +0.000 C 
ATOM      5  N   UNL     1       3.845   1.674  18.761  0.00  0.00    +0.000 NA
ATOM      6  C   UNL     1       4.666   2.838  18.502  0.00  0.00    +0.000 C 
ATOM      7  C   UNL     1       3.931   4.188  18.818  0.00  0.00    +0.000 C 
ATOM      8  C   UNL     1       2.855   5.066  18.107  0.00  0.00    +0.000 C 
ATOM      9  H   UNL     1       3.571   1.218  17.894  0.00  0.00    +0.000 HD
ENDROOT
BRANCH   7  10
ATOM     10  C   UNL     1       5.201   5.072  18.720  0.00  0.00    +0.000 C 
ATOM     11  O   UNL     1       5.931   5.316  19.677  0.00  0.00    +0.000 OA
ATOM     12  N   UNL     1       5.514   5.492  17.379  0.00  0.00    +0.000 N 
ATOM     13  C   UNL     1       6.797   6.116  17.064  0.00  0.00    +0.000 C 
ATOM     14  C   UNL     1       7.598   5.216  16.103  0.00  0.00    +0.000 C 
ATOM     15  C   UNL     1       6.772   4.768  14.919  0.00  0.00    +0.000 A 
ATOM     16  N   UNL     1       7.443   4.283  13.841  0.00  0.00    +0.000 NA
ATOM     17  C   UNL     1       6.718   3.804  12.798  0.00  0.00    +0.000 A 
ATOM     18  C   UNL     1       5.338   3.761  12.768  0.00  0.00    +0.000 A 
ATOM     19  C   UNL     1       4.659   4.267  13.892  0.00  0.00    +0.000 A 
ATOM     20  C   UNL     1       5.383   4.773  14.983  0.00  0.00    +0.000 A 
ATOM     21  C   UNL     1       4.656   5.320  16.186  0.00  0.00    +0.000 C 
BRANCH  18  22
ATOM     22  C   UNL     1       4.592   3.206  11.601  0.00  0.00    +0.000 C 
ATOM     23  F   UNL     1       3.313   2.835  11.899  0.00  0.00    +0.000 F 
ATOM     24  F   UNL     1       4.490   4.100  10.582  0.00  0.00    +0.000 F 
ATOM     25  F   UNL     1       5.187   2.102  11.077  0.00  0.00    +0.000 F 
ENDBRANCH  18  22
ENDBRANCH   7  10
BRANCH   1  26
ATOM     26  N   UNL     1       2.249   6.622  20.099  0.00  0.00    +0.000 NA
ATOM     27  H   UNL     1       1.773   6.494  20.996  0.00  0.00    +0.000 HD
BRANCH  26  33
ATOM     28  C   UNL     1       0.909   8.668  20.514  0.00  0.00    +0.000 C 
ATOM     29  C   UNL     1       0.646  10.118  20.081  0.00  0.00    +0.000 C 
ATOM     30  O   UNL     1       0.463  10.220  18.670  0.00  0.00    +0.000 OA
ATOM     31  C   UNL     1       1.609   9.765  17.955  0.00  0.00    +0.000 C 
ATOM     32  C   UNL     1       1.846   8.277  18.209  0.00  0.00    +0.000 C 
ATOM     33  C   UNL     1       2.092   8.028  19.716  0.00  0.00    +0.000 C 
BRANCH  28  35
ATOM     34  C   UNL     1       0.219   9.415  22.708  0.00  0.00    +0.000 C 
ATOM     35  O   UNL     1       1.021   8.532  21.936  0.00  0.00    +0.000 OA
ENDBRANCH  28  35
ENDBRANCH  26  33
ENDBRANCH   1  26
TORSDOF 5
ENDMDL
MODEL 2
REMARK VINA RESULT:      -8.2      0.804      1.824
REMARK  Name = 
REMARK  6 active torsions:
REMARK  status: ('A' for Active; 'I' for Inactive)
REMARK    1  A    between atoms: C_1  and  O_2
REMARK    2  A    between atoms: O_2  and  C_3
REMARK    3  A    between atoms: C_8  and  N_9
REMARK    4  A    between atoms: N_9  and  C_10
REMARK    5  A    between atoms: C_16  and  C_17
REMARK    6  A    between atoms: C_25  and  C_26
REMARK                            x       y       z     vdW  Elec       q    Type
REMARK                         _______ _______ _______ _____ _____    ______ ____
ROOT
ATOM      1  C   UNL     1       1.785   5.600  19.474  0.00  0.00    +0.000 C 
ATOM      2  C   UNL     1       1.710   4.335  20.301  0.00  0.00    +0.000 C 
ATOM      3  C   UNL     1       3.111   3.708  20.215  0.00  0.00    +0.000 C 
ATOM      4  C   UNL     1       2.854   2.265  19.712  0.00  0.00    +0.000 C 
ATOM      5  N   UNL     1       4.022   1.851  18.975  0.00  0.00    +0.000 NA
ATOM      6  C   UNL     1       4.764   3.070  18.735  0.00  0.00    +0.000 C 
ATOM      7  C   UNL     1       3.945   4.364  19.080  0.00  0.00    +0.000 C 
ATOM      8  C   UNL     1       2.811   5.183  18.391  0.00  0.00    +0.000 C 
ATOM      9  H   UNL     1       3.773   1.394  18.101  0.00  0.00    +0.000 HD
ENDROOT
BRANCH   7  10
ATOM     10  C   UNL     1       5.155   5.330  18.993  0.00  0.00    +0.000 C 
ATOM     11  O   UNL     1       5.836   5.649  19.964  0.00  0.00    +0.000 OA
ATOM     12  N   UNL     1       5.480   5.734  17.651  0.00  0.00    +0.000 N 
ATOM     13  C   UNL     1       6.726   6.436  17.356  0.00  0.00    +0.000 C 
ATOM     14  C   UNL     1       7.617   5.568  16.444  0.00  0.00    +0.000 C 
ATOM     15  C   UNL     1       6.861   5.032  15.250  0.00  0.00    +0.000 A 
ATOM     16  N   UNL     1       7.596   4.566  14.207  0.00  0.00    +0.000 NA
ATOM     17  C   UNL     1       6.938   4.010  13.158  0.00  0.00    +0.000 A 
ATOM     18  C   UNL     1       5.566   3.872  13.089  0.00  0.00    +0.000 A 
ATOM     19  C   UNL     1       4.820   4.360  14.177  0.00  0.00    +0.000 A 
ATOM     20  C   UNL     1       5.472   4.944  15.274  0.00  0.00    +0.000 A 
ATOM     21  C   UNL     1       4.673   5.471  16.438  0.00  0.00    +0.000 C 
BRANCH  18  22
ATOM     22  C   UNL     1       4.896   3.235  11.917  0.00  0.00    +0.000 C 
ATOM     23  F   UNL     1       4.907   4.013  10.795  0.00  0.00    +0.000 F 
ATOM     24  F   UNL     1       5.485   2.063  11.560  0.00  0.00    +0.000 F 
ATOM     25  F   UNL     1       3.590   2.944  12.155  0.00  0.00    +0.000 F 
ENDBRANCH  18  22
ENDBRANCH   7  10
BRANCH   1  26
ATOM     26  N   UNL     1       2.116   6.658  20.415  0.00  0.00    +0.000 NA
ATOM     27  H   UNL     1       2.266   6.261  21.345  0.00  0.00    +0.000 HD
BRANCH  26  33
ATOM     28  C   UNL     1       1.607   8.924  19.543  0.00  0.00    +0.000 C 
ATOM     29  C   UNL     1       0.752  10.188  19.724  0.00  0.00    +0.000 C 
ATOM     30  O   UNL     1       0.788  10.656  21.072  0.00  0.00    +0.000 OA
ATOM     31  C   UNL     1       0.297   9.678  21.984  0.00  0.00    +0.000 C 
ATOM     32  C   UNL     1       1.193   8.441  21.979  0.00  0.00    +0.000 C 
ATOM     33  C   UNL     1       1.219   7.808  20.568  0.00  0.00    +0.000 C 
BRANCH  28  35
ATOM     34  C   UNL     1       2.902   8.590  17.528  0.00  0.00    +0.000 C 
ATOM     35  O   UNL     1       1.645   8.479  18.181  0.00  0.00    +0.000 OA
ENDBRANCH  28  35
ENDBRANCH  26  33
ENDBRANCH   1  26
TORSDOF 5
ENDMDL
MODEL 3
REMARK VINA RESULT:      -8.1      4.920      8.059
REMARK  Name = 
REMARK  6 active torsions:
REMARK  status: ('A' for Active; 'I' for Inactive)
REMARK    1  A    between atoms: C_1  and  O_2
REMARK    2  A    between atoms: O_2  and  C_3
REMARK    3  A    between atoms: C_8  and  N_9
REMARK    4  A    between atoms: N_9  and  C_10
REMARK    5  A    between atoms: C_16  and  C_17
REMARK    6  A    between atoms: C_25  and  C_26
REMARK                            x       y       z     vdW  Elec       q    Type
REMARK                         _______ _______ _______ _____ _____    ______ ____
ROOT
ATOM      1  C   UNL     1       4.774   3.568  19.824  0.00  0.00    +0.000 C 
ATOM      2  C   UNL     1       4.001   2.350  19.369  0.00  0.00    +0.000 C 
ATOM      3  C   UNL     1       2.965   2.878  18.362  0.00  0.00    +0.000 C 
ATOM      4  C   UNL     1       1.608   2.365  18.905  0.00  0.00    +0.000 C 
ATOM      5  N   UNL     1       0.596   3.305  18.492  0.00  0.00    +0.000 NA
ATOM      6  C   UNL     1       1.327   4.477  18.060  0.00  0.00    +0.000 C 
ATOM      7  C   UNL     1       2.848   4.425  18.445  0.00  0.00    +0.000 C 
ATOM      8  C   UNL     1       3.679   4.660  19.743  0.00  0.00    +0.000 C 
ATOM      9  H   UNL     1      -0.042   3.530  19.252  0.00  0.00    +0.000 HD
ENDROOT
BRANCH   7  10
ATOM     10  C   UNL     1       3.264   5.630  17.560  0.00  0.00    +0.000 C 
ATOM     11  O   UNL     1       3.567   5.525  16.375  0.00  0.00    +0.000 OA
ATOM     12  N   UNL     1       3.153   6.902  18.223  0.00  0.00    +0.000 N 
ATOM     13  C   UNL     1       3.263   8.153  17.477  0.00  0.00    +0.000 C 
ATOM     14  C   UNL     1       1.927   8.920  17.535  0.00  0.00    +0.000 C 
ATOM     15  C   UNL     1       1.396   9.035  18.946  0.00  0.00    +0.000 A 
ATOM     16  N   UNL     1       0.440   9.973  19.175  0.00  0.00    +0.000 NA
ATOM     17  C   UNL     1      -0.106  10.042  20.417  0.00  0.00    +0.000 A 
ATOM     18  C   UNL     1       0.238   9.206  21.461  0.00  0.00    +0.000 A 
ATOM     19  C   UNL     1       1.230   8.240  21.207  0.00  0.00    +0.000 A 
ATOM     20  C   UNL     1       1.814   8.150  19.934  0.00  0.00    +0.000 A 
ATOM     21  C   UNL     1       2.880   7.118  19.661  0.00  0.00    +0.000 C 
BRANCH  18  22
ATOM     22  C   UNL     1      -0.408   9.314  22.802  0.00  0.00    +0.000 C 
ATOM     23  F   UNL     1      -1.146  10.451  22.960  0.00  0.00    +0.000 F 
ATOM     24  F   UNL     1      -1.259   8.283  23.049  0.00  0.00    +0.000 F 
ATOM     25  F   UNL     1       0.494   9.311  23.819  0.00  0.00    +0.000 F 
ENDBRANCH  18  22
ENDBRANCH   7  10
BRANCH   1  26
ATOM     26  N   UNL     1       5.934   3.639  18.950  0.00  0.00    +0.000 NA
ATOM     27  H   UNL     1       6.783   3.437  19.482  0.00  0.00    +0.000 HD
BRANCH  26  33
ATOM     28  C   UNL     1       6.761   4.466  16.762  0.00  0.00    +0.000 C 
ATOM     29  C   UNL     1       7.126   5.708  15.935  0.00  0.00    +0.000 C 
ATOM     30  O   UNL     1       7.995   6.582  16.654  0.00  0.00    +0.000 OA
ATOM     31  C   UNL     1       7.400   7.039  17.865  0.00  0.00    +0.000 C 
ATOM     32  C   UNL     1       7.149   5.871  18.816  0.00  0.00    +0.000 C 
ATOM     33  C   UNL     1       6.186   4.852  18.165  0.00  0.00    +0.000 C 
BRANCH  28  35
ATOM     34  C   UNL     1       5.969   3.680  14.617  0.00  0.00    +0.000 C 
ATOM     35  O   UNL     1       5.949   3.540  16.031  0.00  0.00    +0.000 OA
ENDBRANCH  28  35
ENDBRANCH  26  33
ENDBRANCH   1  26
TORSDOF 5
ENDMDL
MODEL 4
REMARK VINA RESULT:      -8.0      0.752      1.654
REMARK  Name = 
REMARK  6 active torsions:
REMARK  status: ('A' for Active; 'I' for Inactive)
REMARK    1  A    between atoms: C_1  and  O_2
REMARK    2  A    between atoms: O_2  and  C_3
REMARK    3  A    between atoms: C_8  and  N_9
REMARK    4  A    between atoms: N_9  and  C_10
REMARK    5  A    between atoms: C_16  and  C_17
REMARK    6  A    between atoms: C_25  and  C_26
REMARK                            x       y       z     vdW  Elec       q    Type
REMARK                         _______ _______ _______ _____ _____    ______ ____
ROOT
ATOM      1  C   UNL     1       1.929   6.129  19.103  0.00  0.00    +0.000 C 
ATOM      2  C   UNL     1       1.663   4.976  20.045  0.00  0.00    +0.000 C 
ATOM      3  C   UNL     1       2.969   4.164  20.075  0.00  0.00    +0.000 C 
ATOM      4  C   UNL     1       2.533   2.724  19.705  0.00  0.00    +0.000 C 
ATOM      5  N   UNL     1       3.654   2.088  19.058  0.00  0.00    +0.000 NA
ATOM      6  C   UNL     1       4.559   3.169  18.730  0.00  0.00    +0.000 C 
ATOM      7  C   UNL     1       3.913   4.587  18.916  0.00  0.00    +0.000 C 
ATOM      8  C   UNL     1       2.917   5.474  18.106  0.00  0.00    +0.000 C 
ATOM      9  H   UNL     1       3.369   1.582  18.223  0.00  0.00    +0.000 HD
ENDROOT
BRANCH   7  10
ATOM     10  C   UNL     1       5.243   5.372  18.783  0.00  0.00    +0.000 C 
ATOM     11  O   UNL     1       5.989   5.604  19.731  0.00  0.00    +0.000 OA
ATOM     12  N   UNL     1       5.586   5.709  17.427  0.00  0.00    +0.000 N 
ATOM     13  C   UNL     1       6.910   6.226  17.089  0.00  0.00    +0.000 C 
ATOM     14  C   UNL     1       7.645   5.230  16.170  0.00  0.00    +0.000 C 
ATOM     15  C   UNL     1       6.789   4.791  15.004  0.00  0.00    +0.000 A 
ATOM     16  N   UNL     1       7.423   4.214  13.951  0.00  0.00    +0.000 NA
ATOM     17  C   UNL     1       6.666   3.743  12.927  0.00  0.00    +0.000 A 
ATOM     18  C   UNL     1       5.286   3.798  12.894  0.00  0.00    +0.000 A 
ATOM     19  C   UNL     1       4.645   4.400  13.993  0.00  0.00    +0.000 A 
ATOM     20  C   UNL     1       5.403   4.900  15.063  0.00  0.00    +0.000 A 
ATOM     21  C   UNL     1       4.717   5.548  16.239  0.00  0.00    +0.000 C 
BRANCH  18  22
ATOM     22  C   UNL     1       4.502   3.248  11.750  0.00  0.00    +0.000 C 
ATOM     23  F   UNL     1       3.227   2.893  12.084  0.00  0.00    +0.000 F 
ATOM     24  F   UNL     1       4.383   4.140  10.731  0.00  0.00    +0.000 F 
ATOM     25  F   UNL     1       5.070   2.136  11.213  0.00  0.00    +0.000 F 
ENDBRANCH  18  22
ENDBRANCH   7  10
BRANCH   1  26
ATOM     26  N   UNL     1       2.374   7.225  19.949  0.00  0.00    +0.000 NA
ATOM     27  H   UNL     1       2.972   6.865  20.697  0.00  0.00    +0.000 HD
BRANCH  26  33
ATOM     28  C   UNL     1       1.325   9.465  19.770  0.00  0.00    +0.000 C 
ATOM     29  C   UNL     1       0.372  10.473  20.431  0.00  0.00    +0.000 C 
ATOM     30  O   UNL     1       0.692  10.674  21.807  0.00  0.00    +0.000 OA
ATOM     31  C   UNL     1       0.609   9.462  22.550  0.00  0.00    +0.000 C 
ATOM     32  C   UNL     1       1.644   8.454  22.054  0.00  0.00    +0.000 C 
ATOM     33  C   UNL     1       1.391   8.120  20.566  0.00  0.00    +0.000 C 
BRANCH  28  35
ATOM     34  C   UNL     1      -0.120   9.915  17.884  0.00  0.00    +0.000 C 
ATOM     35  O   UNL     1       1.069   9.305  18.370  0.00  0.00    +0.000 OA
ENDBRANCH  28  35
ENDBRANCH  26  33
ENDBRANCH   1  26
TORSDOF 5
ENDMDL
MODEL 5
REMARK VINA RESULT:      -7.8      9.114     11.041
REMARK  Name = 
REMARK  6 active torsions:
REMARK  status: ('A' for Active; 'I' for Inactive)
REMARK    1  A    between atoms: C_1  and  O_2
REMARK    2  A    between atoms: O_2  and  C_3
REMARK    3  A    between atoms: C_8  and  N_9
REMARK    4  A    between atoms: N_9  and  C_10
REMARK    5  A    between atoms: C_16  and  C_17
REMARK    6  A    between atoms: C_25  and  C_26
REMARK                            x       y       z     vdW  Elec       q    Type
REMARK                         _______ _______ _______ _____ _____    ______ ____
ROOT
ATOM      1  C   UNL     1       4.537  15.268  22.091  0.00  0.00    +0.000 C 
ATOM      2  C   UNL     1       4.174  14.181  21.103  0.00  0.00    +0.000 C 
ATOM      3  C   UNL     1       4.386  14.805  19.714  0.00  0.00    +0.000 C 
ATOM      4  C   UNL     1       3.030  14.600  18.992  0.00  0.00    +0.000 C 
ATOM      5  N   UNL     1       2.883  15.673  18.040  0.00  0.00    +0.000 NA
ATOM      6  C   UNL     1       3.884  16.649  18.418  0.00  0.00    +0.000 C 
ATOM      7  C   UNL     1       4.534  16.348  19.815  0.00  0.00    +0.000 C 
ATOM      8  C   UNL     1       4.113  16.533  21.305  0.00  0.00    +0.000 C 
ATOM      9  H   UNL     1       1.949  16.076  18.069  0.00  0.00    +0.000 HD
ENDROOT
BRANCH   7  10
ATOM     10  C   UNL     1       5.686  17.376  19.663  0.00  0.00    +0.000 C 
ATOM     11  O   UNL     1       5.658  18.500  20.157  0.00  0.00    +0.000 OA
ATOM     12  N   UNL     1       6.844  16.855  18.987  0.00  0.00    +0.000 N 
ATOM     13  C   UNL     1       8.104  17.593  18.972  0.00  0.00    +0.000 C 
ATOM     14  C   UNL     1       9.190  16.797  19.723  0.00  0.00    +0.000 C 
ATOM     15  C   UNL     1       9.261  15.358  19.267  0.00  0.00    +0.000 A 
ATOM     16  N   UNL     1      10.384  14.661  19.582  0.00  0.00    +0.000 NA
ATOM     17  C   UNL     1      10.436  13.346  19.249  0.00  0.00    +0.000 A 
ATOM     18  C   UNL     1       9.411  12.663  18.624  0.00  0.00    +0.000 A 
ATOM     19  C   UNL     1       8.255  13.400  18.306  0.00  0.00    +0.000 A 
ATOM     20  C   UNL     1       8.175  14.762  18.634  0.00  0.00    +0.000 A 
ATOM     21  C   UNL     1       6.938  15.553  18.289  0.00  0.00    +0.000 C 
BRANCH  18  22
ATOM     22  C   UNL     1       9.515  11.211  18.297  0.00  0.00    +0.000 C 
ATOM     23  F   UNL     1      10.505  10.924  17.402  0.00  0.00    +0.000 F 
ATOM     24  F   UNL     1       9.778  10.454  19.395  0.00  0.00    +0.000 F 
ATOM     25  F   UNL     1       8.371  10.712  17.759  0.00  0.00    +0.000 F 
ENDBRANCH  18  22
ENDBRANCH   7  10
BRANCH   1  26
ATOM     26  N   UNL     1       5.939  15.049  22.410  0.00  0.00    +0.000 NA
ATOM     27  H   UNL     1       6.528  15.485  21.697  0.00  0.00    +0.000 HD
BRANCH  26  33
ATOM     28  C   UNL     1       6.494  13.371  24.150  0.00  0.00    +0.000 C 
ATOM     29  C   UNL     1       7.096  11.984  24.426  0.00  0.00    +0.000 C 
ATOM     30  O   UNL     1       8.366  11.829  23.795  0.00  0.00    +0.000 OA
ATOM     31  C   UNL     1       8.275  11.979  22.381  0.00  0.00    +0.000 C 
ATOM     32  C   UNL     1       7.832  13.394  22.017  0.00  0.00    +0.000 C 
ATOM     33  C   UNL     1       6.437  13.686  22.619  0.00  0.00    +0.000 C 
BRANCH  28  35
ATOM     34  C   UNL     1       5.349  14.123  26.143  0.00  0.00    +0.000 C 
ATOM     35  O   UNL     1       5.252  13.575  24.835  0.00  0.00    +0.000 OA
ENDBRANCH  28  35
ENDBRANCH  26  33
ENDBRANCH   1  26
TORSDOF 5
ENDMDL
MODEL 6
REMARK VINA RESULT:      -7.5      8.843     11.069
REMARK  Name = 
REMARK  6 active torsions:
REMARK  status: ('A' for Active; 'I' for Inactive)
REMARK    1  A    between atoms: C_1  and  O_2
REMARK    2  A    between atoms: O_2  and  C_3
REMARK    3  A    between atoms: C_8  and  N_9
REMARK    4  A    between atoms: N_9  and  C_10
REMARK    5  A    between atoms: C_16  and  C_17
REMARK    6  A    between atoms: C_25  and  C_26
REMARK                            x       y       z     vdW  Elec       q    Type
REMARK                         _______ _______ _______ _____ _____    ______ ____
ROOT
ATOM      1  C   UNL     1      -1.569  16.370  20.507  0.00  0.00    +0.000 C 
ATOM      2  C   UNL     1      -1.562  16.751  19.043  0.00  0.00    +0.000 C 
ATOM      3  C   UNL     1      -0.093  16.646  18.601  0.00  0.00    +0.000 C 
ATOM      4  C   UNL     1       0.223  18.033  17.988  0.00  0.00    +0.000 C 
ATOM      5  N   UNL     1       1.631  18.277  18.177  0.00  0.00    +0.000 NA
ATOM      6  C   UNL     1       2.055  17.292  19.149  0.00  0.00    +0.000 C 
ATOM      7  C   UNL     1       0.851  16.548  19.830  0.00  0.00    +0.000 C 
ATOM      8  C   UNL     1      -0.178  16.886  20.952  0.00  0.00    +0.000 C 
ATOM      9  H   UNL     1       1.809  19.221  18.510  0.00  0.00    +0.000 HD
ENDROOT
BRANCH   7  10
ATOM     10  C   UNL     1       1.718  15.446  20.494  0.00  0.00    +0.000 C 
ATOM     11  O   UNL     1       2.389  15.631  21.505  0.00  0.00    +0.000 OA
ATOM     12  N   UNL     1       1.577  14.150  19.884  0.00  0.00    +0.000 N 
ATOM     13  C   UNL     1       2.120  12.953  20.521  0.00  0.00    +0.000 C 
ATOM     14  C   UNL     1       0.974  11.997  20.908  0.00  0.00    +0.000 C 
ATOM     15  C   UNL     1       0.016  11.761  19.763  0.00  0.00    +0.000 A 
ATOM     16  N   UNL     1      -0.810  10.686  19.856  0.00  0.00    +0.000 NA
ATOM     17  C   UNL     1      -1.730  10.499  18.876  0.00  0.00    +0.000 A 
ATOM     18  C   UNL     1      -1.893  11.343  17.794  0.00  0.00    +0.000 A 
ATOM     19  C   UNL     1      -1.029  12.450  17.713  0.00  0.00    +0.000 A 
ATOM     20  C   UNL     1      -0.065  12.666  18.710  0.00  0.00    +0.000 A 
ATOM     21  C   UNL     1       0.864  13.850  18.622  0.00  0.00    +0.000 C 
BRANCH  18  22
ATOM     22  C   UNL     1      -2.934  11.098  16.754  0.00  0.00    +0.000 C 
ATOM     23  F   UNL     1      -2.479  11.268  15.478  0.00  0.00    +0.000 F 
ATOM     24  F   UNL     1      -3.427   9.832  16.805  0.00  0.00    +0.000 F 
ATOM     25  F   UNL     1      -4.005  11.926  16.880  0.00  0.00    +0.000 F 
ENDBRANCH  18  22
ENDBRANCH   7  10
BRANCH   1  26
ATOM     26  N   UNL     1      -1.856  14.945  20.534  0.00  0.00    +0.000 NA
ATOM     27  H   UNL     1      -2.181  14.639  19.614  0.00  0.00    +0.000 HD
BRANCH  26  33
ATOM     28  C   UNL     1      -2.002  13.533  22.568  0.00  0.00    +0.000 C 
ATOM     29  C   UNL     1      -2.946  12.870  23.583  0.00  0.00    +0.000 C 
ATOM     30  O   UNL     1      -3.983  12.135  22.934  0.00  0.00    +0.000 OA
ATOM     31  C   UNL     1      -4.778  12.971  22.099  0.00  0.00    +0.000 C 
ATOM     32  C   UNL     1      -3.940  13.549  20.960  0.00  0.00    +0.000 C 
ATOM     33  C   UNL     1      -2.785  14.404  21.531  0.00  0.00    +0.000 C 
BRANCH  28  35
ATOM     34  C   UNL     1      -1.264  15.136  24.222  0.00  0.00    +0.000 C 
ATOM     35  O   UNL     1      -0.911  14.215  23.199  0.00  0.00    +0.000 OA
ENDBRANCH  28  35
ENDBRANCH  26  33
ENDBRANCH   1  26
TORSDOF 5
ENDMDL
MODEL 7
REMARK VINA RESULT:      -7.4      8.624     11.047
REMARK  Name = 
REMARK  6 active torsions:
REMARK  status: ('A' for Active; 'I' for Inactive)
REMARK    1  A    between atoms: C_1  and  O_2
REMARK    2  A    between atoms: O_2  and  C_3
REMARK    3  A    between atoms: C_8  and  N_9
REMARK    4  A    between atoms: N_9  and  C_10
REMARK    5  A    between atoms: C_16  and  C_17
REMARK    6  A    between atoms: C_25  and  C_26
REMARK                            x       y       z     vdW  Elec       q    Type
REMARK                         _______ _______ _______ _____ _____    ______ ____
ROOT
ATOM      1  C   UNL     1      -1.954  15.842  21.838  0.00  0.00    +0.000 C 
ATOM      2  C   UNL     1      -2.177  16.301  20.414  0.00  0.00    +0.000 C 
ATOM      3  C   UNL     1      -0.809  16.171  19.724  0.00  0.00    +0.000 C 
ATOM      4  C   UNL     1      -0.543  17.578  19.133  0.00  0.00    +0.000 C 
ATOM      5  N   UNL     1       0.886  17.764  19.091  0.00  0.00    +0.000 NA
ATOM      6  C   UNL     1       1.425  16.714  19.929  0.00  0.00    +0.000 C 
ATOM      7  C   UNL     1       0.324  15.975  20.769  0.00  0.00    +0.000 C 
ATOM      8  C   UNL     1      -0.487  16.286  22.064  0.00  0.00    +0.000 C 
ATOM      9  H   UNL     1       1.157  18.682  19.434  0.00  0.00    +0.000 HD
ENDROOT
BRANCH   7  10
ATOM     10  C   UNL     1       1.242  14.810  21.222  0.00  0.00    +0.000 C 
ATOM     11  O   UNL     1       1.883  14.824  22.269  0.00  0.00    +0.000 OA
ATOM     12  N   UNL     1       1.190  13.659  20.360  0.00  0.00    +0.000 N 
ATOM     13  C   UNL     1       1.791  12.390  20.758  0.00  0.00    +0.000 C 
ATOM     14  C   UNL     1       0.698  11.314  20.912  0.00  0.00    +0.000 C 
ATOM     15  C   UNL     1      -0.224  11.262  19.715  0.00  0.00    +0.000 A 
ATOM     16  N   UNL     1      -0.986  10.148  19.566  0.00  0.00    +0.000 NA
ATOM     17  C   UNL     1      -1.876  10.113  18.541  0.00  0.00    +0.000 A 
ATOM     18  C   UNL     1      -2.070  11.148  17.647  0.00  0.00    +0.000 A 
ATOM     19  C   UNL     1      -1.272  12.294  17.816  0.00  0.00    +0.000 A 
ATOM     20  C   UNL     1      -0.340  12.356  18.864  0.00  0.00    +0.000 A 
ATOM     21  C   UNL     1       0.519  13.583  19.043  0.00  0.00    +0.000 C 
BRANCH  18  22
ATOM     22  C   UNL     1      -3.076  11.063  16.549  0.00  0.00    +0.000 C 
ATOM     23  F   UNL     1      -2.566  11.361  15.319  0.00  0.00    +0.000 F 
ATOM     24  F   UNL     1      -3.611   9.818  16.435  0.00  0.00    +0.000 F 
ATOM     25  F   UNL     1      -4.124  11.909  16.732  0.00  0.00    +0.000 F 
ENDBRANCH  18  22
ENDBRANCH   7  10
BRANCH   1  26
ATOM     26  N   UNL     1      -2.291  14.427  21.846  0.00  0.00    +0.000 NA
ATOM     27  H   UNL     1      -1.663  13.917  21.221  0.00  0.00    +0.000 HD
BRANCH  26  33
ATOM     28  C   UNL     1      -4.361  13.491  22.841  0.00  0.00    +0.000 C 
ATOM     29  C   UNL     1      -5.769  12.946  22.554  0.00  0.00    +0.000 C 
ATOM     30  O   UNL     1      -5.750  11.955  21.528  0.00  0.00    +0.000 OA
ATOM     31  C   UNL     1      -5.239  12.473  20.304  0.00  0.00    +0.000 C 
ATOM     32  C   UNL     1      -3.779  12.893  20.465  0.00  0.00    +0.000 C 
ATOM     33  C   UNL     1      -3.659  13.999  21.539  0.00  0.00    +0.000 C 
BRANCH  28  35
ATOM     34  C   UNL     1      -5.233  15.537  23.789  0.00  0.00    +0.000 C 
ATOM     35  O   UNL     1      -4.347  14.434  23.919  0.00  0.00    +0.000 OA
ENDBRANCH  28  35
ENDBRANCH  26  33
ENDBRANCH   1  26
TORSDOF 5
ENDMDL
MODEL 8
REMARK VINA RESULT:      -7.4     10.261     13.331
REMARK  Name = 
REMARK  6 active torsions:
REMARK  status: ('A' for Active; 'I' for Inactive)
REMARK    1  A    between atoms: C_1  and  O_2
REMARK    2  A    between atoms: O_2  and  C_3
REMARK    3  A    between atoms: C_8  and  N_9
REMARK    4  A    between atoms: N_9  and  C_10
REMARK    5  A    between atoms: C_16  and  C_17
REMARK    6  A    between atoms: C_25  and  C_26
REMARK                            x       y       z     vdW  Elec       q    Type
REMARK                         _______ _______ _______ _____ _____    ______ ____
ROOT
ATOM      1  C   UNL     1      -2.078  12.071  18.808  0.00  0.00    +0.000 C 
ATOM      2  C   UNL     1      -1.686  11.344  20.075  0.00  0.00    +0.000 C 
ATOM      3  C   UNL     1      -0.811  12.336  20.859  0.00  0.00    +0.000 C 
ATOM      4  C   UNL     1       0.500  11.557  21.133  0.00  0.00    +0.000 C 
ATOM      5  N   UNL     1       1.566  12.524  21.220  0.00  0.00    +0.000 NA
ATOM      6  C   UNL     1       1.010  13.744  20.674  0.00  0.00    +0.000 C 
ATOM      7  C   UNL     1      -0.369  13.521  19.957  0.00  0.00    +0.000 C 
ATOM      8  C   UNL     1      -0.830  12.958  18.577  0.00  0.00    +0.000 C 
ATOM      9  H   UNL     1       2.386  12.228  20.696  0.00  0.00    +0.000 HD
ENDROOT
BRANCH   7  10
ATOM     10  C   UNL     1      -0.715  15.028  19.835  0.00  0.00    +0.000 C 
ATOM     11  O   UNL     1      -0.296  15.747  18.932  0.00  0.00    +0.000 OA
ATOM     12  N   UNL     1      -1.667  15.486  20.813  0.00  0.00    +0.000 N 
ATOM     13  C   UNL     1      -2.292  16.801  20.698  0.00  0.00    +0.000 C 
ATOM     14  C   UNL     1      -3.810  16.645  20.484  0.00  0.00    +0.000 C 
ATOM     15  C   UNL     1      -4.435  15.701  21.485  0.00  0.00    +0.000 A 
ATOM     16  N   UNL     1      -5.784  15.754  21.632  0.00  0.00    +0.000 NA
ATOM     17  C   UNL     1      -6.373  14.862  22.469  0.00  0.00    +0.000 A 
ATOM     18  C   UNL     1      -5.688  13.890  23.172  0.00  0.00    +0.000 A 
ATOM     19  C   UNL     1      -4.291  13.849  23.009  0.00  0.00    +0.000 A 
ATOM     20  C   UNL     1      -3.655  14.761  22.153  0.00  0.00    +0.000 A 
ATOM     21  C   UNL     1      -2.158  14.721  21.981  0.00  0.00    +0.000 C 
BRANCH  18  22
ATOM     22  C   UNL     1      -6.390  12.923  24.066  0.00  0.00    +0.000 C 
ATOM     23  F   UNL     1      -5.552  12.260  24.915  0.00  0.00    +0.000 F 
ATOM     24  F   UNL     1      -7.314  13.529  24.857  0.00  0.00    +0.000 F 
ATOM     25  F   UNL     1      -7.057  11.961  23.375  0.00  0.00    +0.000 F 
ENDBRANCH  18  22
ENDBRANCH   7  10
BRANCH   1  26
ATOM     26  N   UNL     1      -3.363  12.689  19.098  0.00  0.00    +0.000 NA
ATOM     27  H   UNL     1      -3.321  13.167  20.001  0.00  0.00    +0.000 HD
BRANCH  26  33
ATOM     28  C   UNL     1      -5.443  12.230  17.827  0.00  0.00    +0.000 C 
ATOM     29  C   UNL     1      -6.778  11.471  17.817  0.00  0.00    +0.000 C 
ATOM     30  O   UNL     1      -7.500  11.661  19.033  0.00  0.00    +0.000 OA
ATOM     31  C   UNL     1      -6.761  11.204  20.162  0.00  0.00    +0.000 C 
ATOM     32  C   UNL     1      -5.483  12.023  20.337  0.00  0.00    +0.000 C 
ATOM     33  C   UNL     1      -4.584  11.879  19.087  0.00  0.00    +0.000 C 
BRANCH  28  35
ATOM     34  C   UNL     1      -4.252  10.815  16.269  0.00  0.00    +0.000 C 
ATOM     35  O   UNL     1      -4.736  12.113  16.586  0.00  0.00    +0.000 OA
ENDBRANCH  28  35
ENDBRANCH  26  33
ENDBRANCH   1  26
TORSDOF 5
ENDMDL
MODEL 9
REMARK VINA RESULT:      -7.4      8.926     11.866
REMARK  Name = 
REMARK  6 active torsions:
REMARK  status: ('A' for Active; 'I' for Inactive)
REMARK    1  A    between atoms: C_1  and  O_2
REMARK    2  A    between atoms: O_2  and  C_3
REMARK    3  A    between atoms: C_8  and  N_9
REMARK    4  A    between atoms: N_9  and  C_10
REMARK    5  A    between atoms: C_16  and  C_17
REMARK    6  A    between atoms: C_25  and  C_26
REMARK                            x       y       z     vdW  Elec       q    Type
REMARK                         _______ _______ _______ _____ _____    ______ ____
ROOT
ATOM      1  C   UNL     1      -4.866  14.479  21.295  0.00  0.00    +0.000 C 
ATOM      2  C   UNL     1      -3.981  15.705  21.361  0.00  0.00    +0.000 C 
ATOM      3  C   UNL     1      -2.992  15.431  22.506  0.00  0.00    +0.000 C 
ATOM      4  C   UNL     1      -3.144  16.655  23.444  0.00  0.00    +0.000 C 
ATOM      5  N   UNL     1      -2.831  16.215  24.781  0.00  0.00    +0.000 NA
ATOM      6  C   UNL     1      -2.854  14.769  24.714  0.00  0.00    +0.000 C 
ATOM      7  C   UNL     1      -3.460  14.229  23.370  0.00  0.00    +0.000 C 
ATOM      8  C   UNL     1      -4.895  14.055  22.784  0.00  0.00    +0.000 C 
ATOM      9  H   UNL     1      -3.506  16.562  25.458  0.00  0.00    +0.000 HD
ENDROOT
BRANCH   7  10
ATOM     10  C   UNL     1      -3.010  12.760  23.588  0.00  0.00    +0.000 C 
ATOM     11  O   UNL     1      -3.755  11.881  24.011  0.00  0.00    +0.000 OA
ATOM     12  N   UNL     1      -1.669  12.492  23.141  0.00  0.00    +0.000 N 
ATOM     13  C   UNL     1      -1.167  11.124  23.039  0.00  0.00    +0.000 C 
ATOM     14  C   UNL     1      -0.858  10.785  21.567  0.00  0.00    +0.000 C 
ATOM     15  C   UNL     1      -0.017  11.850  20.901  0.00  0.00    +0.000 A 
ATOM     16  N   UNL     1       0.613  11.511  19.745  0.00  0.00    +0.000 NA
ATOM     17  C   UNL     1       1.310  12.474  19.090  0.00  0.00    +0.000 A 
ATOM     18  C   UNL     1       1.408  13.784  19.514  0.00  0.00    +0.000 A 
ATOM     19  C   UNL     1       0.751  14.118  20.713  0.00  0.00    +0.000 A 
ATOM     20  C   UNL     1       0.026  13.142  21.414  0.00  0.00    +0.000 A 
ATOM     21  C   UNL     1      -0.676  13.497  22.700  0.00  0.00    +0.000 C 
BRANCH  18  22
ATOM     22  C   UNL     1       2.175  14.807  18.744  0.00  0.00    +0.000 C 
ATOM     23  F   UNL     1       1.390  15.785  18.207  0.00  0.00    +0.000 F 
ATOM     24  F   UNL     1       3.093  15.450  19.513  0.00  0.00    +0.000 F 
ATOM     25  F   UNL     1       2.864  14.269  17.703  0.00  0.00    +0.000 F 
ENDBRANCH  18  22
ENDBRANCH   7  10
BRANCH   1  26
ATOM     26  N   UNL     1      -4.248  13.609  20.306  0.00  0.00    +0.000 NA
ATOM     27  H   UNL     1      -4.090  14.127  19.439  0.00  0.00    +0.000 HD
BRANCH  26  33
ATOM     28  C   UNL     1      -4.485  11.934  18.492  0.00  0.00    +0.000 C 
ATOM     29  C   UNL     1      -5.201  10.653  18.038  0.00  0.00    +0.000 C 
ATOM     30  O   UNL     1      -6.615  10.756  18.200  0.00  0.00    +0.000 OA
ATOM     31  C   UNL     1      -6.975  10.983  19.559  0.00  0.00    +0.000 C 
ATOM     32  C   UNL     1      -6.430  12.326  20.043  0.00  0.00    +0.000 C 
ATOM     33  C   UNL     1      -4.886  12.339  19.949  0.00  0.00    +0.000 C 
BRANCH  28  35
ATOM     34  C   UNL     1      -2.512  10.579  18.143  0.00  0.00    +0.000 C 
ATOM     35  O   UNL     1      -3.071  11.880  18.269  0.00  0.00    +0.000 OA
ENDBRANCH  28  35
ENDBRANCH  26  33
ENDBRANCH   1  26
TORSDOF 5
ENDMDL
