MODEL 1
REMARK VINA RESULT:      -8.3      0.000      0.000
REMARK  Name = 
REMARK  7 active torsions:
REMARK  status: ('A' for Active; 'I' for Inactive)
REMARK    1  A    between atoms: C_1  and  C_2
REMARK    2  A    between atoms: C_2  and  N_3
REMARK    3  A    between atoms: N_6  and  C_7
REMARK    4  A    between atoms: C_7  and  C_8
REMARK    5  A    between atoms: C_7  and  C_14
REMARK    6  A    between atoms: N_18  and  C_19
REMARK    7  A    between atoms: C_19  and  C_20
REMARK                            x       y       z     vdW  Elec       q    Type
REMARK                         _______ _______ _______ _____ _____    ______ ____
ROOT
ATOM      1  C   UNL     1       2.605   6.555  19.088  0.00  0.00    +0.000 C 
ENDROOT
BRANCH   1   5
ATOM      2  N   UNL     1       5.652   4.521  16.986  0.00  0.00    +0.000 NA
ATOM      3  C   UNL     1       5.380   4.144  18.394  0.00  0.00    +0.000 C 
ATOM      4  C   UNL     1       5.028   5.341  19.369  0.00  0.00    +0.000 C 
ATOM      5  N   UNL     1       4.108   6.391  18.846  0.00  0.00    +0.000 NA
ATOM      6  C   UNL     1       4.539   6.749  17.453  0.00  0.00    +0.000 C 
ATOM      7  C   UNL     1       4.708   5.535  16.492  0.00  0.00    +0.000 C 
BRANCH   2   9
ATOM      8  C   UNL     1       7.035   4.799  14.808  0.00  0.00    +0.000 C 
ATOM      9  C   UNL     1       6.995   4.525  16.328  0.00  0.00    +0.000 C 
ENDBRANCH   2   9
ENDBRANCH   1   5
BRANCH   1  10
ATOM     10  C   UNL     1       1.944   5.236  19.257  0.00  0.00    +0.000 A 
ATOM     11  C   UNL     1       1.669   4.758  20.534  0.00  0.00    +0.000 A 
ATOM     12  C   UNL     1       1.164   3.474  20.698  0.00  0.00    +0.000 A 
ATOM     13  C   UNL     1       0.913   2.662  19.587  0.00  0.00    +0.000 A 
ATOM     14  C   UNL     1       1.152   3.154  18.295  0.00  0.00    +0.000 A 
ATOM     15  C   UNL     1       1.665   4.438  18.129  0.00  0.00    +0.000 A 
ENDBRANCH   1  10
BRANCH   1  16
ATOM     16  C   UNL     1       1.839   7.715  19.861  0.00  0.00    +0.000 A 
ATOM     17  N   UNL     1       1.805   7.662  21.218  0.00  0.00    +0.000 NA
ATOM     18  N   UNL     1       1.287   8.806  21.646  0.00  0.00    +0.000 NA
ATOM     19  N   UNL     1       1.003   9.566  20.619  0.00  0.00    +0.000 NA
ATOM     20  N   UNL     1       1.334   8.943  19.489  0.00  0.00    +0.000 N 
BRANCH  20  21
ATOM     21  C   UNL     1       1.046   9.566  18.199  0.00  0.00    +0.000 C 
BRANCH  21  22
ATOM     22  C   UNL     1      -0.311  10.237  18.025  0.00  0.00    +0.000 A 
ATOM     23  C   UNL     1      -1.448   9.663  17.411  0.00  0.00    +0.000 A 
ATOM     24  C   UNL     1      -2.685  10.336  17.469  0.00  0.00    +0.000 A 
ATOM     25  C   UNL     1      -2.789  11.578  18.107  0.00  0.00    +0.000 A 
ATOM     26  C   UNL     1      -1.655  12.176  18.648  0.00  0.00    +0.000 A 
ATOM     27  C   UNL     1      -0.429  11.516  18.599  0.00  0.00    +0.000 A 
ENDBRANCH  21  22
ENDBRANCH  20  21
ENDBRANCH   1  16
TORSDOF 6
ENDMDL
MODEL 2
REMARK VINA RESULT:      -8.3      0.224      1.334
REMARK  Name = 
REMARK  7 active torsions:
REMARK  status: ('A' for Active; 'I' for Inactive)
REMARK    1  A    between atoms: C_1  and  C_2
REMARK    2  A    between atoms: C_2  and  N_3
REMARK    3  A    between atoms: N_6  and  C_7
REMARK    4  A    between atoms: C_7  and  C_8
REMARK    5  A    between atoms: C_7  and  C_14
REMARK    6  A    between atoms: N_18  and  C_19
REMARK    7  A    between atoms: C_19  and  C_20
REMARK                            x       y       z     vdW  Elec       q    Type
REMARK                         _______ _______ _______ _____ _____    ______ ____
ROOT
ATOM      1  C   UNL     1       2.688   6.473  19.101  0.00  0.00    +0.000 C 
ENDROOT
BRANCH   1   5
ATOM      2  N   UNL     1       5.750   4.523  16.943  0.00  0.00    +0.000 NA
ATOM      3  C   UNL     1       5.557   4.185  18.374  0.00  0.00    +0.000 C 
ATOM      4  C   UNL     1       5.182   5.399  19.320  0.00  0.00    +0.000 C 
ATOM      5  N   UNL     1       4.187   6.378  18.800  0.00  0.00    +0.000 NA
ATOM      6  C   UNL     1       4.540   6.706  17.378  0.00  0.00    +0.000 C 
ATOM      7  C   UNL     1       4.734   5.467  16.455  0.00  0.00    +0.000 C 
BRANCH   2   9
ATOM      8  C   UNL     1       7.027   4.828  14.704  0.00  0.00    +0.000 C 
ATOM      9  C   UNL     1       7.062   4.572  16.227  0.00  0.00    +0.000 C 
ENDBRANCH   2   9
ENDBRANCH   1   5
BRANCH   1  10
ATOM     10  C   UNL     1       2.093   5.123  19.276  0.00  0.00    +0.000 A 
ATOM     11  C   UNL     1       1.758   4.364  18.159  0.00  0.00    +0.000 A 
ATOM     12  C   UNL     1       1.090   3.156  18.320  0.00  0.00    +0.000 A 
ATOM     13  C   UNL     1       0.765   2.688  19.597  0.00  0.00    +0.000 A 
ATOM     14  C   UNL     1       1.136   3.431  20.728  0.00  0.00    +0.000 A 
ATOM     15  C   UNL     1       1.798   4.645  20.569  0.00  0.00    +0.000 A 
ENDBRANCH   1  10
BRANCH   1  16
ATOM     16  C   UNL     1       1.903   7.587  19.921  0.00  0.00    +0.000 A 
ATOM     17  N   UNL     1       1.831   7.454  21.270  0.00  0.00    +0.000 NA
ATOM     18  N   UNL     1       1.302   8.573  21.750  0.00  0.00    +0.000 NA
ATOM     19  N   UNL     1       1.049   9.393  20.763  0.00  0.00    +0.000 NA
ATOM     20  N   UNL     1       1.411   8.837  19.608  0.00  0.00    +0.000 N 
BRANCH  20  21
ATOM     21  C   UNL     1       1.160   9.536  18.350  0.00  0.00    +0.000 C 
BRANCH  21  22
ATOM     22  C   UNL     1      -0.163  10.279  18.204  0.00  0.00    +0.000 A 
ATOM     23  C   UNL     1      -0.417  11.609  18.611  0.00  0.00    +0.000 A 
ATOM     24  C   UNL     1      -1.637  12.223  18.264  0.00  0.00    +0.000 A 
ATOM     25  C   UNL     1      -2.607  11.517  17.541  0.00  0.00    +0.000 A 
ATOM     26  C   UNL     1      -2.386  10.185  17.203  0.00  0.00    +0.000 A 
ATOM     27  C   UNL     1      -1.181   9.572  17.540  0.00  0.00    +0.000 A 
ENDBRANCH  21  22
ENDBRANCH  20  21
ENDBRANCH   1  16
TORSDOF 6
ENDMDL
MODEL 3
REMARK VINA RESULT:      -7.9      0.827      1.725
REMARK  Name = 
REMARK  7 active torsions:
REMARK  status: ('A' for Active; 'I' for Inactive)
REMARK    1  A    between atoms: C_1  and  C_2
REMARK    2  A    between atoms: C_2  and  N_3
REMARK    3  A    between atoms: N_6  and  C_7
REMARK    4  A    between atoms: C_7  and  C_8
REMARK    5  A    between atoms: C_7  and  C_14
REMARK    6  A    between atoms: N_18  and  C_19
REMARK    7  A    between atoms: C_19  and  C_20
REMARK                            x       y       z     vdW  Elec       q    Type
REMARK                         _______ _______ _______ _____ _____    ______ ____
ROOT
ATOM      1  C   UNL     1       2.682   6.411  19.107  0.00  0.00    +0.000 C 
ENDROOT
BRANCH   1   5
ATOM      2  N   UNL     1       5.755   4.557  16.882  0.00  0.00    +0.000 NA
ATOM      3  C   UNL     1       5.567   4.170  18.300  0.00  0.00    +0.000 C 
ATOM      4  C   UNL     1       5.184   5.349  19.287  0.00  0.00    +0.000 C 
ATOM      5  N   UNL     1       4.180   6.338  18.802  0.00  0.00    +0.000 NA
ATOM      6  C   UNL     1       4.529   6.715  17.391  0.00  0.00    +0.000 C 
ATOM      7  C   UNL     1       4.731   5.510  16.426  0.00  0.00    +0.000 C 
BRANCH   2   9
ATOM      8  C   UNL     1       7.025   4.759  14.627  0.00  0.00    +0.000 C 
ATOM      9  C   UNL     1       7.066   4.640  16.167  0.00  0.00    +0.000 C 
ENDBRANCH   2   9
ENDBRANCH   1   5
BRANCH   1  10
ATOM     10  C   UNL     1       2.110   5.054  19.302  0.00  0.00    +0.000 A 
ATOM     11  C   UNL     1       1.733   4.296  18.199  0.00  0.00    +0.000 A 
ATOM     12  C   UNL     1       1.086   3.080  18.383  0.00  0.00    +0.000 A 
ATOM     13  C   UNL     1       0.825   2.602  19.672  0.00  0.00    +0.000 A 
ATOM     14  C   UNL     1       1.239   3.345  20.788  0.00  0.00    +0.000 A 
ATOM     15  C   UNL     1       1.880   4.567  20.605  0.00  0.00    +0.000 A 
ENDBRANCH   1  10
BRANCH   1  16
ATOM     16  C   UNL     1       1.881   7.523  19.914  0.00  0.00    +0.000 A 
ATOM     17  N   UNL     1       1.643   7.306  21.234  0.00  0.00    +0.000 NA
ATOM     18  N   UNL     1       1.136   8.426  21.734  0.00  0.00    +0.000 NA
ATOM     19  N   UNL     1       1.054   9.326  20.788  0.00  0.00    +0.000 NA
ATOM     20  N   UNL     1       1.511   8.824  19.643  0.00  0.00    +0.000 N 
BRANCH  20  21
ATOM     21  C   UNL     1       1.455   9.621  18.420  0.00  0.00    +0.000 C 
BRANCH  21  22
ATOM     22  C   UNL     1       0.907  11.039  18.525  0.00  0.00    +0.000 A 
ATOM     23  C   UNL     1       1.676  12.221  18.637  0.00  0.00    +0.000 A 
ATOM     24  C   UNL     1       1.041  13.476  18.557  0.00  0.00    +0.000 A 
ATOM     25  C   UNL     1      -0.347  13.561  18.393  0.00  0.00    +0.000 A 
ATOM     26  C   UNL     1      -1.113  12.399  18.355  0.00  0.00    +0.000 A 
ATOM     27  C   UNL     1      -0.491  11.154  18.429  0.00  0.00    +0.000 A 
ENDBRANCH  21  22
ENDBRANCH  20  21
ENDBRANCH   1  16
TORSDOF 6
ENDMDL
MODEL 4
REMARK VINA RESULT:      -7.9      1.049      1.575
REMARK  Name = 
REMARK  7 active torsions:
REMARK  status: ('A' for Active; 'I' for Inactive)
REMARK    1  A    between atoms: C_1  and  C_2
REMARK    2  A    between atoms: C_2  and  N_3
REMARK    3  A    between atoms: N_6  and  C_7
REMARK    4  A    between atoms: C_7  and  C_8
REMARK    5  A    between atoms: C_7  and  C_14
REMARK    6  A    between atoms: N_18  and  C_19
REMARK    7  A    between atoms: C_19  and  C_20
REMARK                            x       y       z     vdW  Elec       q    Type
REMARK                         _______ _______ _______ _____ _____    ______ ____
ROOT
ATOM      1  C   UNL     1       2.612   6.489  19.111  0.00  0.00    +0.000 C 
ENDROOT
BRANCH   1   5
ATOM      2  N   UNL     1       5.669   4.510  16.972  0.00  0.00    +0.000 NA
ATOM      3  C   UNL     1       5.410   4.117  18.378  0.00  0.00    +0.000 C 
ATOM      4  C   UNL     1       5.050   5.301  19.366  0.00  0.00    +0.000 C 
ATOM      5  N   UNL     1       4.115   6.345  18.859  0.00  0.00    +0.000 NA
ATOM      6  C   UNL     1       4.533   6.720  17.466  0.00  0.00    +0.000 C 
ATOM      7  C   UNL     1       4.710   5.517  16.493  0.00  0.00    +0.000 C 
BRANCH   2   9
ATOM      8  C   UNL     1       7.030   4.754  14.776  0.00  0.00    +0.000 C 
ATOM      9  C   UNL     1       7.007   4.536  16.306  0.00  0.00    +0.000 C 
ENDBRANCH   2   9
ENDBRANCH   1   5
BRANCH   1  10
ATOM     10  C   UNL     1       1.970   5.161  19.288  0.00  0.00    +0.000 A 
ATOM     11  C   UNL     1       1.715   4.680  20.568  0.00  0.00    +0.000 A 
ATOM     12  C   UNL     1       1.228   3.390  20.738  0.00  0.00    +0.000 A 
ATOM     13  C   UNL     1       0.976   2.574  19.630  0.00  0.00    +0.000 A 
ATOM     14  C   UNL     1       1.195   3.069  18.336  0.00  0.00    +0.000 A 
ATOM     15  C   UNL     1       1.689   4.359  18.164  0.00  0.00    +0.000 A 
ENDBRANCH   1  10
BRANCH   1  16
ATOM     16  C   UNL     1       1.836   7.640  19.888  0.00  0.00    +0.000 A 
ATOM     17  N   UNL     1       1.652   7.494  21.226  0.00  0.00    +0.000 NA
ATOM     18  N   UNL     1       1.158   8.637  21.684  0.00  0.00    +0.000 NA
ATOM     19  N   UNL     1       1.033   9.485  20.695  0.00  0.00    +0.000 NA
ATOM     20  N   UNL     1       1.448   8.922  19.561  0.00  0.00    +0.000 N 
BRANCH  20  21
ATOM     21  C   UNL     1       1.339   9.652  18.300  0.00  0.00    +0.000 C 
BRANCH  21  22
ATOM     22  C   UNL     1       1.051  11.147  18.371  0.00  0.00    +0.000 A 
ATOM     23  C   UNL     1      -0.219  11.740  18.558  0.00  0.00    +0.000 A 
ATOM     24  C   UNL     1      -0.315  13.130  18.770  0.00  0.00    +0.000 A 
ATOM     25  C   UNL     1       0.835  13.929  18.772  0.00  0.00    +0.000 A 
ATOM     26  C   UNL     1       2.078  13.356  18.516  0.00  0.00    +0.000 A 
ATOM     27  C   UNL     1       2.181  11.982  18.309  0.00  0.00    +0.000 A 
ENDBRANCH  21  22
ENDBRANCH  20  21
ENDBRANCH   1  16
TORSDOF 6
ENDMDL
MODEL 5
REMARK VINA RESULT:      -7.8      0.491      1.052
REMARK  Name = 
REMARK  7 active torsions:
REMARK  status: ('A' for Active; 'I' for Inactive)
REMARK    1  A    between atoms: C_1  and  C_2
REMARK    2  A    between atoms: C_2  and  N_3
REMARK    3  A    between atoms: N_6  and  C_7
REMARK    4  A    between atoms: C_7  and  C_8
REMARK    5  A    between atoms: C_7  and  C_14
REMARK    6  A    between atoms: N_18  and  C_19
REMARK    7  A    between atoms: C_19  and  C_20
REMARK                            x       y       z     vdW  Elec       q    Type
REMARK                         _______ _______ _______ _____ _____    ______ ____
ROOT
ATOM      1  C   UNL     1       2.546   6.404  19.289  0.00  0.00    +0.000 C 
ENDROOT
BRANCH   1   5
ATOM      2  N   UNL     1       5.438   4.199  17.142  0.00  0.00    +0.000 NA
ATOM      3  C   UNL     1       5.412   4.094  18.620  0.00  0.00    +0.000 C 
ATOM      4  C   UNL     1       5.091   5.437  19.397  0.00  0.00    +0.000 C 
ATOM      5  N   UNL     1       4.007   6.296  18.842  0.00  0.00    +0.000 NA
ATOM      6  C   UNL     1       4.193   6.395  17.355  0.00  0.00    +0.000 C 
ATOM      7  C   UNL     1       4.338   5.027  16.625  0.00  0.00    +0.000 C 
BRANCH   2   9
ATOM      8  C   UNL     1       6.979   5.419  15.446  0.00  0.00    +0.000 C 
ATOM      9  C   UNL     1       6.663   4.160  16.285  0.00  0.00    +0.000 C 
ENDBRANCH   2   9
ENDBRANCH   1   5
BRANCH   1  10
ATOM     10  C   UNL     1       2.007   5.075  19.677  0.00  0.00    +0.000 A 
ATOM     11  C   UNL     1       2.118   4.641  20.994  0.00  0.00    +0.000 A 
ATOM     12  C   UNL     1       1.725   3.352  21.332  0.00  0.00    +0.000 A 
ATOM     13  C   UNL     1       1.202   2.491  20.361  0.00  0.00    +0.000 A 
ATOM     14  C   UNL     1       1.052   2.938  19.040  0.00  0.00    +0.000 A 
ATOM     15  C   UNL     1       1.452   4.227  18.698  0.00  0.00    +0.000 A 
ENDBRANCH   1  10
BRANCH   1  16
ATOM     16  C   UNL     1       1.823   7.594  20.057  0.00  0.00    +0.000 A 
ATOM     17  N   UNL     1       1.747   7.527  21.411  0.00  0.00    +0.000 NA
ATOM     18  N   UNL     1       1.280   8.692  21.840  0.00  0.00    +0.000 NA
ATOM     19  N   UNL     1       1.068   9.479  20.816  0.00  0.00    +0.000 NA
ATOM     20  N   UNL     1       1.397   8.853  19.687  0.00  0.00    +0.000 N 
BRANCH  20  21
ATOM     21  C   UNL     1       1.181   9.506  18.399  0.00  0.00    +0.000 C 
BRANCH  21  22
ATOM     22  C   UNL     1      -0.132  10.253  18.196  0.00  0.00    +0.000 A 
ATOM     23  C   UNL     1      -0.408  11.576  18.611  0.00  0.00    +0.000 A 
ATOM     24  C   UNL     1      -1.607  12.197  18.209  0.00  0.00    +0.000 A 
ATOM     25  C   UNL     1      -2.537  11.505  17.423  0.00  0.00    +0.000 A 
ATOM     26  C   UNL     1      -2.299  10.178  17.075  0.00  0.00    +0.000 A 
ATOM     27  C   UNL     1      -1.114   9.559  17.465  0.00  0.00    +0.000 A 
ENDBRANCH  21  22
ENDBRANCH  20  21
ENDBRANCH   1  16
TORSDOF 6
ENDMDL
MODEL 6
REMARK VINA RESULT:      -7.7      2.067      2.824
REMARK  Name = 
REMARK  7 active torsions:
REMARK  status: ('A' for Active; 'I' for Inactive)
REMARK    1  A    between atoms: C_1  and  C_2
REMARK    2  A    between atoms: C_2  and  N_3
REMARK    3  A    between atoms: N_6  and  C_7
REMARK    4  A    between atoms: C_7  and  C_8
REMARK    5  A    between atoms: C_7  and  C_14
REMARK    6  A    between atoms: N_18  and  C_19
REMARK    7  A    between atoms: C_19  and  C_20
REMARK                            x       y       z     vdW  Elec       q    Type
REMARK                         _______ _______ _______ _____ _____    ______ ____
ROOT
ATOM      1  C   UNL     1       3.055   6.138  18.179  0.00  0.00    +0.000 C 
ENDROOT
BRANCH   1   5
ATOM      2  N   UNL     1       5.785   4.916  15.198  0.00  0.00    +0.000 NA
ATOM      3  C   UNL     1       5.113   3.881  16.019  0.00  0.00    +0.000 C 
ATOM      4  C   UNL     1       4.909   4.245  17.547  0.00  0.00    +0.000 C 
ATOM      5  N   UNL     1       4.464   5.632  17.858  0.00  0.00    +0.000 NA
ATOM      6  C   UNL     1       5.276   6.588  17.032  0.00  0.00    +0.000 C 
ATOM      7  C   UNL     1       5.302   6.270  15.508  0.00  0.00    +0.000 C 
BRANCH   2   9
ATOM      8  C   UNL     1       7.364   4.772  13.143  0.00  0.00    +0.000 C 
ATOM      9  C   UNL     1       7.185   4.842  14.676  0.00  0.00    +0.000 C 
ENDBRANCH   2   9
ENDBRANCH   1   5
BRANCH   1  10
ATOM     10  C   UNL     1       2.371   5.239  19.143  0.00  0.00    +0.000 A 
ATOM     11  C   UNL     1       2.787   5.200  20.470  0.00  0.00    +0.000 A 
ATOM     12  C   UNL     1       2.231   4.272  21.342  0.00  0.00    +0.000 A 
ATOM     13  C   UNL     1       1.243   3.387  20.902  0.00  0.00    +0.000 A 
ATOM     14  C   UNL     1       0.792   3.449  19.575  0.00  0.00    +0.000 A 
ATOM     15  C   UNL     1       1.353   4.372  18.697  0.00  0.00    +0.000 A 
ENDBRANCH   1  10
BRANCH   1  16
ATOM     16  C   UNL     1       2.532   7.637  18.280  0.00  0.00    +0.000 A 
ATOM     17  N   UNL     1       2.598   8.412  17.167  0.00  0.00    +0.000 NA
ATOM     18  N   UNL     1       1.947   9.538  17.429  0.00  0.00    +0.000 NA
ATOM     19  N   UNL     1       1.477   9.495  18.649  0.00  0.00    +0.000 NA
ATOM     20  N   UNL     1       1.801   8.335  19.219  0.00  0.00    +0.000 N 
BRANCH  20  21
ATOM     21  C   UNL     1       1.446   8.080  20.613  0.00  0.00    +0.000 C 
BRANCH  21  22
ATOM     22  C   UNL     1       0.651   9.152  21.348  0.00  0.00    +0.000 A 
ATOM     23  C   UNL     1       0.004  10.260  20.753  0.00  0.00    +0.000 A 
ATOM     24  C   UNL     1      -0.834  11.080  21.534  0.00  0.00    +0.000 A 
ATOM     25  C   UNL     1      -1.012  10.819  22.899  0.00  0.00    +0.000 A 
ATOM     26  C   UNL     1      -0.319   9.771  23.500  0.00  0.00    +0.000 A 
ATOM     27  C   UNL     1       0.510   8.955  22.733  0.00  0.00    +0.000 A 
ENDBRANCH  21  22
ENDBRANCH  20  21
ENDBRANCH   1  16
TORSDOF 6
ENDMDL
MODEL 7
REMARK VINA RESULT:      -7.6      2.548      7.682
REMARK  Name = 
REMARK  7 active torsions:
REMARK  status: ('A' for Active; 'I' for Inactive)
REMARK    1  A    between atoms: C_1  and  C_2
REMARK    2  A    between atoms: C_2  and  N_3
REMARK    3  A    between atoms: N_6  and  C_7
REMARK    4  A    between atoms: C_7  and  C_8
REMARK    5  A    between atoms: C_7  and  C_14
REMARK    6  A    between atoms: N_18  and  C_19
REMARK    7  A    between atoms: C_19  and  C_20
REMARK                            x       y       z     vdW  Elec       q    Type
REMARK                         _______ _______ _______ _____ _____    ______ ____
ROOT
ATOM      1  C   UNL     1      -0.043  11.369  19.204  0.00  0.00    +0.000 C 
ENDROOT
BRANCH   1   5
ATOM      2  N   UNL     1       2.245  14.895  19.616  0.00  0.00    +0.000 NA
ATOM      3  C   UNL     1       0.776  15.011  19.459  0.00  0.00    +0.000 C 
ATOM      4  C   UNL     1       0.111  13.983  18.453  0.00  0.00    +0.000 C 
ATOM      5  N   UNL     1       0.594  12.575  18.508  0.00  0.00    +0.000 NA
ATOM      6  C   UNL     1       2.094  12.589  18.576  0.00  0.00    +0.000 C 
ATOM      7  C   UNL     1       2.685  13.494  19.698  0.00  0.00    +0.000 C 
BRANCH   2   9
ATOM      8  C   UNL     1       3.326  16.013  17.539  0.00  0.00    +0.000 C 
ATOM      9  C   UNL     1       3.259  15.850  19.073  0.00  0.00    +0.000 C 
ENDBRANCH   2   9
ENDBRANCH   1   5
BRANCH   1  10
ATOM     10  C   UNL     1      -1.322  10.989  18.550  0.00  0.00    +0.000 A 
ATOM     11  C   UNL     1      -1.320  10.065  17.510  0.00  0.00    +0.000 A 
ATOM     12  C   UNL     1      -2.495   9.801  16.818  0.00  0.00    +0.000 A 
ATOM     13  C   UNL     1      -3.687  10.444  17.169  0.00  0.00    +0.000 A 
ATOM     14  C   UNL     1      -3.702  11.347  18.244  0.00  0.00    +0.000 A 
ATOM     15  C   UNL     1      -2.523  11.618  18.933  0.00  0.00    +0.000 A 
ENDBRANCH   1  10
BRANCH   1  16
ATOM     16  C   UNL     1       0.667  10.129  19.902  0.00  0.00    +0.000 A 
ATOM     17  N   UNL     1       0.404   9.898  21.214  0.00  0.00    +0.000 NA
ATOM     18  N   UNL     1       0.947   8.729  21.527  0.00  0.00    +0.000 NA
ATOM     19  N   UNL     1       1.530   8.223  20.471  0.00  0.00    +0.000 NA
ATOM     20  N   UNL     1       1.379   9.044  19.433  0.00  0.00    +0.000 N 
BRANCH  20  21
ATOM     21  C   UNL     1       2.006   8.728  18.152  0.00  0.00    +0.000 C 
BRANCH  21  22
ATOM     22  C   UNL     1       2.636   7.350  17.994  0.00  0.00    +0.000 A 
ATOM     23  C   UNL     1       1.990   6.111  18.214  0.00  0.00    +0.000 A 
ATOM     24  C   UNL     1       2.644   4.912  17.869  0.00  0.00    +0.000 A 
ATOM     25  C   UNL     1       3.938   4.938  17.333  0.00  0.00    +0.000 A 
ATOM     26  C   UNL     1       4.602   6.153  17.183  0.00  0.00    +0.000 A 
ATOM     27  C   UNL     1       3.960   7.342  17.519  0.00  0.00    +0.000 A 
ENDBRANCH  21  22
ENDBRANCH  20  21
ENDBRANCH   1  16
TORSDOF 6
ENDMDL
MODEL 8
REMARK VINA RESULT:      -7.5      1.968      7.451
REMARK  Name = 
REMARK  7 active torsions:
REMARK  status: ('A' for Active; 'I' for Inactive)
REMARK    1  A    between atoms: C_1  and  C_2
REMARK    2  A    between atoms: C_2  and  N_3
REMARK    3  A    between atoms: N_6  and  C_7
REMARK    4  A    between atoms: C_7  and  C_8
REMARK    5  A    between atoms: C_7  and  C_14
REMARK    6  A    between atoms: N_18  and  C_19
REMARK    7  A    between atoms: C_19  and  C_20
REMARK                            x       y       z     vdW  Elec       q    Type
REMARK                         _______ _______ _______ _____ _____    ______ ____
ROOT
ATOM      1  C   UNL     1       3.829   5.656  18.384  0.00  0.00    +0.000 C 
ENDROOT
BRANCH   1   5
ATOM      2  N   UNL     1       1.677   9.193  19.221  0.00  0.00    +0.000 NA
ATOM      3  C   UNL     1       1.834   8.181  20.293  0.00  0.00    +0.000 C 
ATOM      4  C   UNL     1       1.751   6.670  19.826  0.00  0.00    +0.000 C 
ATOM      5  N   UNL     1       2.457   6.312  18.563  0.00  0.00    +0.000 NA
ATOM      6  C   UNL     1       2.149   7.362  17.534  0.00  0.00    +0.000 C 
ATOM      7  C   UNL     1       2.410   8.825  18.000  0.00  0.00    +0.000 C 
BRANCH   2   9
ATOM      8  C   UNL     1      -0.579  10.094  20.135  0.00  0.00    +0.000 C 
ATOM      9  C   UNL     1       0.476  10.059  19.007  0.00  0.00    +0.000 C 
ENDBRANCH   2   9
ENDBRANCH   1   5
BRANCH   1  10
ATOM     10  C   UNL     1       3.724   4.176  18.443  0.00  0.00    +0.000 A 
ATOM     11  C   UNL     1       2.828   3.511  17.613  0.00  0.00    +0.000 A 
ATOM     12  C   UNL     1       2.641   2.141  17.752  0.00  0.00    +0.000 A 
ATOM     13  C   UNL     1       3.362   1.420  18.710  0.00  0.00    +0.000 A 
ATOM     14  C   UNL     1       4.296   2.080  19.522  0.00  0.00    +0.000 A 
ATOM     15  C   UNL     1       4.479   3.453  19.389  0.00  0.00    +0.000 A 
ENDBRANCH   1  10
BRANCH   1  16
ATOM     16  C   UNL     1       5.057   6.138  17.496  0.00  0.00    +0.000 A 
ATOM     17  N   UNL     1       5.665   7.306  17.828  0.00  0.00    +0.000 NA
ATOM     18  N   UNL     1       6.757   7.410  17.080  0.00  0.00    +0.000 NA
ATOM     19  N   UNL     1       6.855   6.360  16.306  0.00  0.00    +0.000 NA
ATOM     20  N   UNL     1       5.834   5.535  16.528  0.00  0.00    +0.000 N 
BRANCH  20  21
ATOM     21  C   UNL     1       5.686   4.321  15.729  0.00  0.00    +0.000 C 
BRANCH  21  22
ATOM     22  C   UNL     1       6.200   4.352  14.295  0.00  0.00    +0.000 A 
ATOM     23  C   UNL     1       7.288   5.119  13.819  0.00  0.00    +0.000 A 
ATOM     24  C   UNL     1       7.758   4.923  12.505  0.00  0.00    +0.000 A 
ATOM     25  C   UNL     1       7.139   3.993  11.661  0.00  0.00    +0.000 A 
ATOM     26  C   UNL     1       6.022   3.289  12.105  0.00  0.00    +0.000 A 
ATOM     27  C   UNL     1       5.555   3.475  13.404  0.00  0.00    +0.000 A 
ENDBRANCH  21  22
ENDBRANCH  20  21
ENDBRANCH   1  16
TORSDOF 6
ENDMDL
MODEL 9
REMARK VINA RESULT:      -7.5      1.612      2.375
REMARK  Name = 
REMARK  7 active torsions:
REMARK  status: ('A' for Active; 'I' for Inactive)
REMARK    1  A    between atoms: C_1  and  C_2
REMARK    2  A    between atoms: C_2  and  N_3
REMARK    3  A    between atoms: N_6  and  C_7
REMARK    4  A    between atoms: C_7  and  C_8
REMARK    5  A    between atoms: C_7  and  C_14
REMARK    6  A    between atoms: N_18  and  C_19
REMARK    7  A    between atoms: C_19  and  C_20
REMARK                            x       y       z     vdW  Elec       q    Type
REMARK                         _______ _______ _______ _____ _____    ______ ____
ROOT
ATOM      1  C   UNL     1       3.614   5.803  17.916  0.00  0.00    +0.000 C 
ENDROOT
BRANCH   1   5
ATOM      2  N   UNL     1       6.777   4.844  15.286  0.00  0.00    +0.000 NA
ATOM      3  C   UNL     1       6.967   4.630  16.741  0.00  0.00    +0.000 C 
ATOM      4  C   UNL     1       6.328   5.730  17.684  0.00  0.00    +0.000 C 
ATOM      5  N   UNL     1       4.966   6.218  17.328  0.00  0.00    +0.000 NA
ATOM      6  C   UNL     1       4.927   6.481  15.850  0.00  0.00    +0.000 C 
ATOM      7  C   UNL     1       5.414   5.296  14.966  0.00  0.00    +0.000 C 
BRANCH   2   9
ATOM      8  C   UNL     1       7.575   5.014  12.822  0.00  0.00    +0.000 C 
ATOM      9  C   UNL     1       7.835   5.277  14.322  0.00  0.00    +0.000 C 
ENDBRANCH   2   9
ENDBRANCH   1   5
BRANCH   1  10
ATOM     10  C   UNL     1       3.553   4.333  18.126  0.00  0.00    +0.000 A 
ATOM     11  C   UNL     1       2.702   3.557  17.347  0.00  0.00    +0.000 A 
ATOM     12  C   UNL     1       2.552   2.204  17.624  0.00  0.00    +0.000 A 
ATOM     13  C   UNL     1       3.264   1.610  18.671  0.00  0.00    +0.000 A 
ATOM     14  C   UNL     1       4.154   2.381  19.435  0.00  0.00    +0.000 A 
ATOM     15  C   UNL     1       4.299   3.738  19.163  0.00  0.00    +0.000 A 
ENDBRANCH   1  10
BRANCH   1  16
ATOM     16  C   UNL     1       2.682   6.595  18.932  0.00  0.00    +0.000 A 
ATOM     17  N   UNL     1       2.414   6.021  20.133  0.00  0.00    +0.000 NA
ATOM     18  N   UNL     1       1.785   6.925  20.872  0.00  0.00    +0.000 NA
ATOM     19  N   UNL     1       1.656   8.033  20.189  0.00  0.00    +0.000 NA
ATOM     20  N   UNL     1       2.203   7.888  18.983  0.00  0.00    +0.000 N 
BRANCH  20  21
ATOM     21  C   UNL     1       2.121   8.972  18.007  0.00  0.00    +0.000 C 
BRANCH  21  22
ATOM     22  C   UNL     1       1.134  10.099  18.284  0.00  0.00    +0.000 A 
ATOM     23  C   UNL     1       1.463  11.399  18.735  0.00  0.00    +0.000 A 
ATOM     24  C   UNL     1       0.465  12.391  18.789  0.00  0.00    +0.000 A 
ATOM     25  C   UNL     1      -0.854  12.094  18.423  0.00  0.00    +0.000 A 
ATOM     26  C   UNL     1      -1.193  10.797  18.047  0.00  0.00    +0.000 A 
ATOM     27  C   UNL     1      -0.210   9.811  17.988  0.00  0.00    +0.000 A 
ENDBRANCH  21  22
ENDBRANCH  20  21
ENDBRANCH   1  16
TORSDOF 6
ENDMDL
