MODEL 1
REMARK VINA RESULT:      -7.7      0.000      0.000
REMARK  Name = 
REMARK  6 active torsions:
REMARK  status: ('A' for Active; 'I' for Inactive)
REMARK    1  A    between atoms: N_1  and  C_2
REMARK    2  A    between atoms: N_10  and  C_11
REMARK    3  A    between atoms: C_13  and  C_14
REMARK    4  A    between atoms: N_16  and  C_17
REMARK    5  A    between atoms: C_20  and  O_21
REMARK    6  A    between atoms: C_22  and  O_23
REMARK                            x       y       z     vdW  Elec       q    Type
REMARK                         _______ _______ _______ _____ _____    ______ ____
ROOT
ATOM      1  C   UNL     1       2.786   5.106  20.024  0.00  0.00    +0.000 C 
ATOM      2  O   UNL     1       4.122   4.579  19.767  0.00  0.00    +0.000 OA
ATOM      3  C   UNL     1       3.981   3.284  19.156  0.00  0.00    +0.000 C 
ATOM      4  C   UNL     1       2.643   2.761  19.652  0.00  0.00    +0.000 C 
ATOM      5  C   UNL     1       1.774   4.010  19.641  0.00  0.00    +0.000 C 
ENDROOT
BRANCH   1  14
ATOM      6  C   UNL     1       1.459   9.642  18.959  0.00  0.00    +0.000 A 
ATOM      7  N   UNL     1       0.773   9.834  20.108  0.00  0.00    +0.000 NA
ATOM      8  C   UNL     1       0.749   8.833  21.014  0.00  0.00    +0.000 A 
ATOM      9  N   UNL     1       1.325   7.618  20.931  0.00  0.00    +0.000 NA
ATOM     10  C   UNL     1       1.961   7.463  19.761  0.00  0.00    +0.000 A 
ATOM     11  C   UNL     1       2.080   8.400  18.747  0.00  0.00    +0.000 A 
ATOM     12  N   UNL     1       2.807   7.890  17.692  0.00  0.00    +0.000 NA
ATOM     13  C   UNL     1       3.128   6.669  18.066  0.00  0.00    +0.000 A 
ATOM     14  N   UNL     1       2.619   6.354  19.300  0.00  0.00    +0.000 N 
BRANCH   6  15
ATOM     15  N   UNL     1       1.495  10.677  18.031  0.00  0.00    +0.000 N 
ATOM     16  H   UNL     1       1.824  11.539  18.446  0.00  0.00    +0.000 HD
ATOM     17  H   UNL     1       0.660  10.722  17.457  0.00  0.00    +0.000 HD
ENDBRANCH   6  15
ENDBRANCH   1  14
BRANCH   3  18
ATOM     18  C   UNL     1       4.070   3.417  17.628  0.00  0.00    +0.000 C 
ATOM     19  O   UNL     1       3.125   3.155  16.889  0.00  0.00    +0.000 OA
ATOM     20  N   UNL     1       5.304   3.859  17.175  0.00  0.00    +0.000 N 
ATOM     21  H   UNL     1       6.028   4.092  17.842  0.00  0.00    +0.000 HD
BRANCH  20  22
ATOM     22  C   UNL     1       5.583   3.976  15.775  0.00  0.00    +0.000 C 
ATOM     23  C   UNL     1       5.638   5.337  15.139  0.00  0.00    +0.000 C 
ATOM     24  C   UNL     1       6.884   4.507  15.240  0.00  0.00    +0.000 C 
ENDBRANCH  20  22
ENDBRANCH   3  18
BRANCH   4  25
ATOM     25  O   UNL     1       2.095   1.663  18.942  0.00  0.00    +0.000 OA
ATOM     26  H   UNL     1       1.245   1.952  18.545  0.00  0.00    +0.000 HD
ENDBRANCH   4  25
BRANCH   5  27
ATOM     27  O   UNL     1       0.681   3.880  20.553  0.00  0.00    +0.000 OA
ATOM     28  H   UNL     1       0.404   2.950  20.607  0.00  0.00    +0.000 HD
ENDBRANCH   5  27
TORSDOF 6
ENDMDL
MODEL 2
REMARK VINA RESULT:      -7.7      2.178      4.964
REMARK  Name = 
REMARK  6 active torsions:
REMARK  status: ('A' for Active; 'I' for Inactive)
REMARK    1  A    between atoms: N_1  and  C_2
REMARK    2  A    between atoms: N_10  and  C_11
REMARK    3  A    between atoms: C_13  and  C_14
REMARK    4  A    between atoms: N_16  and  C_17
REMARK    5  A    between atoms: C_20  and  O_21
REMARK    6  A    between atoms: C_22  and  O_23
REMARK                            x       y       z     vdW  Elec       q    Type
REMARK                         _______ _______ _______ _____ _____    ______ ____
ROOT
ATOM      1  C   UNL     1       3.904   2.826  18.334  0.00  0.00    +0.000 C 
ATOM      2  O   UNL     1       2.500   3.204  18.220  0.00  0.00    +0.000 OA
ATOM      3  C   UNL     1       1.991   3.434  19.546  0.00  0.00    +0.000 C 
ATOM      4  C   UNL     1       2.852   2.568  20.451  0.00  0.00    +0.000 C 
ATOM      5  C   UNL     1       4.235   2.716  19.834  0.00  0.00    +0.000 C 
ENDROOT
BRANCH   1  14
ATOM      6  C   UNL     1       7.261   6.187  17.377  0.00  0.00    +0.000 A 
ATOM      7  N   UNL     1       7.691   6.286  18.654  0.00  0.00    +0.000 NA
ATOM      8  C   UNL     1       7.121   5.491  19.586  0.00  0.00    +0.000 A 
ATOM      9  N   UNL     1       6.140   4.583  19.422  0.00  0.00    +0.000 NA
ATOM     10  C   UNL     1       5.723   4.548  18.147  0.00  0.00    +0.000 A 
ATOM     11  C   UNL     1       6.218   5.290  17.087  0.00  0.00    +0.000 A 
ATOM     12  N   UNL     1       5.547   4.989  15.922  0.00  0.00    +0.000 NA
ATOM     13  C   UNL     1       4.667   4.072  16.270  0.00  0.00    +0.000 A 
ATOM     14  N   UNL     1       4.717   3.789  17.611  0.00  0.00    +0.000 N 
BRANCH   6  15
ATOM     15  N   UNL     1       7.856   6.996  16.416  0.00  0.00    +0.000 N 
ATOM     16  H   UNL     1       8.213   6.454  15.641  0.00  0.00    +0.000 HD
ATOM     17  H   UNL     1       8.465   7.702  16.816  0.00  0.00    +0.000 HD
ENDBRANCH   6  15
ENDBRANCH   1  14
BRANCH   3  18
ATOM     18  C   UNL     1       2.054   4.933  19.876  0.00  0.00    +0.000 C 
ATOM     19  O   UNL     1       1.835   5.368  21.003  0.00  0.00    +0.000 OA
ATOM     20  N   UNL     1       2.381   5.732  18.790  0.00  0.00    +0.000 N 
ATOM     21  H   UNL     1       2.585   5.304  17.897  0.00  0.00    +0.000 HD
BRANCH  20  22
ATOM     22  C   UNL     1       2.419   7.159  18.903  0.00  0.00    +0.000 C 
ATOM     23  C   UNL     1       3.178   7.966  17.886  0.00  0.00    +0.000 C 
ATOM     24  C   UNL     1       1.684   8.076  17.966  0.00  0.00    +0.000 C 
ENDBRANCH  20  22
ENDBRANCH   3  18
BRANCH   4  25
ATOM     25  O   UNL     1       2.798   2.859  21.837  0.00  0.00    +0.000 OA
ATOM     26  H   UNL     1       3.558   2.415  22.271  0.00  0.00    +0.000 HD
ENDBRANCH   4  25
BRANCH   5  27
ATOM     27  O   UNL     1       5.065   1.602  20.168  0.00  0.00    +0.000 OA
ATOM     28  H   UNL     1       5.558   1.309  19.384  0.00  0.00    +0.000 HD
ENDBRANCH   5  27
TORSDOF 6
ENDMDL
MODEL 3
REMARK VINA RESULT:      -7.6      2.207      5.436
REMARK  Name = 
REMARK  6 active torsions:
REMARK  status: ('A' for Active; 'I' for Inactive)
REMARK    1  A    between atoms: N_1  and  C_2
REMARK    2  A    between atoms: N_10  and  C_11
REMARK    3  A    between atoms: C_13  and  C_14
REMARK    4  A    between atoms: N_16  and  C_17
REMARK    5  A    between atoms: C_20  and  O_21
REMARK    6  A    between atoms: C_22  and  O_23
REMARK                            x       y       z     vdW  Elec       q    Type
REMARK                         _______ _______ _______ _____ _____    ______ ____
ROOT
ATOM      1  C   UNL     1       3.824   3.249  17.627  0.00  0.00    +0.000 C 
ATOM      2  O   UNL     1       2.641   4.070  17.386  0.00  0.00    +0.000 OA
ATOM      3  C   UNL     1       1.558   3.529  18.163  0.00  0.00    +0.000 C 
ATOM      4  C   UNL     1       1.889   2.054  18.323  0.00  0.00    +0.000 C 
ATOM      5  C   UNL     1       3.397   2.072  18.524  0.00  0.00    +0.000 C 
ENDROOT
BRANCH   1  14
ATOM      6  C   UNL     1       7.485   6.404  17.959  0.00  0.00    +0.000 A 
ATOM      7  N   UNL     1       7.582   6.609  16.627  0.00  0.00    +0.000 NA
ATOM      8  C   UNL     1       6.713   5.967  15.815  0.00  0.00    +0.000 A 
ATOM      9  N   UNL     1       5.731   5.111  16.155  0.00  0.00    +0.000 NA
ATOM     10  C   UNL     1       5.699   4.913  17.481  0.00  0.00    +0.000 A 
ATOM     11  C   UNL     1       6.513   5.508  18.432  0.00  0.00    +0.000 A 
ATOM     12  N   UNL     1       6.190   5.066  19.698  0.00  0.00    +0.000 NA
ATOM     13  C   UNL     1       5.193   4.226  19.515  0.00  0.00    +0.000 A 
ATOM     14  N   UNL     1       4.874   4.080  18.189  0.00  0.00    +0.000 N 
BRANCH   6  15
ATOM     15  N   UNL     1       8.371   7.075  18.796  0.00  0.00    +0.000 N 
ATOM     16  H   UNL     1       8.502   6.585  19.670  0.00  0.00    +0.000 HD
ATOM     17  H   UNL     1       8.195   8.073  18.839  0.00  0.00    +0.000 HD
ENDBRANCH   6  15
ENDBRANCH   1  14
BRANCH   3  18
ATOM     18  C   UNL     1       1.441   4.288  19.494  0.00  0.00    +0.000 C 
ATOM     19  O   UNL     1       0.939   3.786  20.496  0.00  0.00    +0.000 OA
ATOM     20  N   UNL     1       1.956   5.575  19.452  0.00  0.00    +0.000 N 
ATOM     21  H   UNL     1       2.390   5.914  18.602  0.00  0.00    +0.000 HD
BRANCH  20  22
ATOM     22  C   UNL     1       1.871   6.447  20.584  0.00  0.00    +0.000 C 
ATOM     23  C   UNL     1       1.859   7.936  20.377  0.00  0.00    +0.000 C 
ATOM     24  C   UNL     1       0.640   7.246  20.913  0.00  0.00    +0.000 C 
ENDBRANCH  20  22
ENDBRANCH   3  18
BRANCH   4  25
ATOM     25  O   UNL     1       1.175   1.355  19.328  0.00  0.00    +0.000 OA
ATOM     26  H   UNL     1       1.256   0.394  19.146  0.00  0.00    +0.000 HD
ENDBRANCH   4  25
BRANCH   5  27
ATOM     27  O   UNL     1       3.976   0.819  18.157  0.00  0.00    +0.000 OA
ATOM     28  H   UNL     1       3.826   0.165  18.860  0.00  0.00    +0.000 HD
ENDBRANCH   5  27
TORSDOF 6
ENDMDL
MODEL 4
REMARK VINA RESULT:      -7.3      3.078      4.806
REMARK  Name = 
REMARK  6 active torsions:
REMARK  status: ('A' for Active; 'I' for Inactive)
REMARK    1  A    between atoms: N_1  and  C_2
REMARK    2  A    between atoms: N_10  and  C_11
REMARK    3  A    between atoms: C_13  and  C_14
REMARK    4  A    between atoms: N_16  and  C_17
REMARK    5  A    between atoms: C_20  and  O_21
REMARK    6  A    between atoms: C_22  and  O_23
REMARK                            x       y       z     vdW  Elec       q    Type
REMARK                         _______ _______ _______ _____ _____    ______ ____
ROOT
ATOM      1  C   UNL     1       5.332   6.006  18.226  0.00  0.00    +0.000 C 
ATOM      2  O   UNL     1       5.536   6.398  16.835  0.00  0.00    +0.000 OA
ATOM      3  C   UNL     1       6.603   5.597  16.298  0.00  0.00    +0.000 C 
ATOM      4  C   UNL     1       7.459   5.229  17.499  0.00  0.00    +0.000 C 
ATOM      5  C   UNL     1       6.421   4.976  18.582  0.00  0.00    +0.000 C 
ENDROOT
BRANCH   1  14
ATOM      6  C   UNL     1       1.584   3.238  19.557  0.00  0.00    +0.000 A 
ATOM      7  N   UNL     1       2.346   2.286  20.139  0.00  0.00    +0.000 NA
ATOM      8  C   UNL     1       3.686   2.459  20.158  0.00  0.00    +0.000 A 
ATOM      9  N   UNL     1       4.402   3.481  19.651  0.00  0.00    +0.000 NA
ATOM     10  C   UNL     1       3.606   4.380  19.053  0.00  0.00    +0.000 A 
ATOM     11  C   UNL     1       2.223   4.342  18.967  0.00  0.00    +0.000 A 
ATOM     12  N   UNL     1       1.745   5.438  18.281  0.00  0.00    +0.000 NA
ATOM     13  C   UNL     1       2.820   6.130  17.966  0.00  0.00    +0.000 A 
ATOM     14  N   UNL     1       3.973   5.520  18.389  0.00  0.00    +0.000 N 
BRANCH   6  15
ATOM     15  N   UNL     1       0.205   3.066  19.549  0.00  0.00    +0.000 N 
ATOM     16  H   UNL     1      -0.108   2.518  20.339  0.00  0.00    +0.000 HD
ATOM     17  H   UNL     1      -0.158   2.820  18.634  0.00  0.00    +0.000 HD
ENDBRANCH   6  15
ENDBRANCH   1  14
BRANCH   3  18
ATOM     18  C   UNL     1       6.022   4.384  15.554  0.00  0.00    +0.000 C 
ATOM     19  O   UNL     1       5.482   3.451  16.139  0.00  0.00    +0.000 OA
ATOM     20  N   UNL     1       6.164   4.452  14.176  0.00  0.00    +0.000 N 
ATOM     21  H   UNL     1       6.588   5.270  13.756  0.00  0.00    +0.000 HD
BRANCH  20  22
ATOM     22  C   UNL     1       5.739   3.378  13.331  0.00  0.00    +0.000 C 
ATOM     23  C   UNL     1       4.942   3.676  12.092  0.00  0.00    +0.000 C 
ATOM     24  C   UNL     1       6.329   3.118  11.973  0.00  0.00    +0.000 C 
ENDBRANCH  20  22
ENDBRANCH   3  18
BRANCH   4  25
ATOM     25  O   UNL     1       8.379   4.167  17.315  0.00  0.00    +0.000 OA
ATOM     26  H   UNL     1       9.285   4.544  17.324  0.00  0.00    +0.000 HD
ENDBRANCH   4  25
BRANCH   5  27
ATOM     27  O   UNL     1       6.986   5.151  19.883  0.00  0.00    +0.000 OA
ATOM     28  H   UNL     1       6.305   5.008  20.561  0.00  0.00    +0.000 HD
ENDBRANCH   5  27
TORSDOF 6
ENDMDL
MODEL 5
REMARK VINA RESULT:      -7.3      1.854      4.095
REMARK  Name = 
REMARK  6 active torsions:
REMARK  status: ('A' for Active; 'I' for Inactive)
REMARK    1  A    between atoms: N_1  and  C_2
REMARK    2  A    between atoms: N_10  and  C_11
REMARK    3  A    between atoms: C_13  and  C_14
REMARK    4  A    between atoms: N_16  and  C_17
REMARK    5  A    between atoms: C_20  and  O_21
REMARK    6  A    between atoms: C_22  and  O_23
REMARK                            x       y       z     vdW  Elec       q    Type
REMARK                         _______ _______ _______ _____ _____    ______ ____
ROOT
ATOM      1  C   UNL     1       3.850   6.187  17.564  0.00  0.00    +0.000 C 
ATOM      2  O   UNL     1       3.357   4.844  17.280  0.00  0.00    +0.000 OA
ATOM      3  C   UNL     1       4.414   3.911  17.567  0.00  0.00    +0.000 C 
ATOM      4  C   UNL     1       5.698   4.701  17.373  0.00  0.00    +0.000 C 
ATOM      5  C   UNL     1       5.338   6.064  17.944  0.00  0.00    +0.000 C 
ENDROOT
BRANCH   1  14
ATOM      6  C   UNL     1       1.006   9.358  19.872  0.00  0.00    +0.000 A 
ATOM      7  N   UNL     1       1.065  10.295  18.900  0.00  0.00    +0.000 NA
ATOM      8  C   UNL     1       1.774  10.016  17.784  0.00  0.00    +0.000 A 
ATOM      9  N   UNL     1       2.466   8.898  17.492  0.00  0.00    +0.000 NA
ATOM     10  C   UNL     1       2.406   8.015  18.501  0.00  0.00    +0.000 A 
ATOM     11  C   UNL     1       1.712   8.157  19.692  0.00  0.00    +0.000 A 
ATOM     12  N   UNL     1       1.878   7.045  20.490  0.00  0.00    +0.000 NA
ATOM     13  C   UNL     1       2.651   6.242  19.789  0.00  0.00    +0.000 A 
ATOM     14  N   UNL     1       3.019   6.793  18.588  0.00  0.00    +0.000 N 
BRANCH   6  15
ATOM     15  N   UNL     1       0.265   9.639  21.015  0.00  0.00    +0.000 N 
ATOM     16  H   UNL     1      -0.410  10.373  20.851  0.00  0.00    +0.000 HD
ATOM     17  H   UNL     1       0.838   9.706  21.850  0.00  0.00    +0.000 HD
ENDBRANCH   6  15
ENDBRANCH   1  14
BRANCH   3  18
ATOM     18  C   UNL     1       4.240   3.347  18.986  0.00  0.00    +0.000 C 
ATOM     19  O   UNL     1       5.194   3.105  19.719  0.00  0.00    +0.000 OA
ATOM     20  N   UNL     1       2.916   3.146  19.350  0.00  0.00    +0.000 N 
ATOM     21  H   UNL     1       2.176   3.401  18.709  0.00  0.00    +0.000 HD
BRANCH  20  22
ATOM     22  C   UNL     1       2.573   2.564  20.613  0.00  0.00    +0.000 C 
ATOM     23  C   UNL     1       2.279   3.455  21.787  0.00  0.00    +0.000 C 
ATOM     24  C   UNL     1       1.187   2.618  21.191  0.00  0.00    +0.000 C 
ENDBRANCH  20  22
ENDBRANCH   3  18
BRANCH   4  25
ATOM     25  O   UNL     1       6.875   4.132  17.919  0.00  0.00    +0.000 OA
ATOM     26  H   UNL     1       7.229   4.752  18.591  0.00  0.00    +0.000 HD
ENDBRANCH   4  25
BRANCH   5  27
ATOM     27  O   UNL     1       6.169   7.086  17.390  0.00  0.00    +0.000 OA
ATOM     28  H   UNL     1       5.650   7.643  16.785  0.00  0.00    +0.000 HD
ENDBRANCH   5  27
TORSDOF 6
ENDMDL
MODEL 6
REMARK VINA RESULT:      -7.1      3.458      4.667
REMARK  Name = 
REMARK  6 active torsions:
REMARK  status: ('A' for Active; 'I' for Inactive)
REMARK    1  A    between atoms: N_1  and  C_2
REMARK    2  A    between atoms: N_10  and  C_11
REMARK    3  A    between atoms: C_13  and  C_14
REMARK    4  A    between atoms: N_16  and  C_17
REMARK    5  A    between atoms: C_20  and  O_21
REMARK    6  A    between atoms: C_22  and  O_23
REMARK                            x       y       z     vdW  Elec       q    Type
REMARK                         _______ _______ _______ _____ _____    ______ ____
ROOT
ATOM      1  C   UNL     1       4.825   5.561  17.972  0.00  0.00    +0.000 C 
ATOM      2  O   UNL     1       4.999   6.013  16.596  0.00  0.00    +0.000 OA
ATOM      3  C   UNL     1       6.256   5.503  16.115  0.00  0.00    +0.000 C 
ATOM      4  C   UNL     1       7.112   5.334  17.359  0.00  0.00    +0.000 C 
ATOM      5  C   UNL     1       6.111   4.820  18.384  0.00  0.00    +0.000 C 
ENDROOT
BRANCH   1  14
ATOM      6  C   UNL     1       0.990   3.243  19.813  0.00  0.00    +0.000 A 
ATOM      7  N   UNL     1       1.278   3.546  21.098  0.00  0.00    +0.000 NA
ATOM      8  C   UNL     1       2.365   4.309  21.348  0.00  0.00    +0.000 A 
ATOM      9  N   UNL     1       3.244   4.825  20.467  0.00  0.00    +0.000 NA
ATOM     10  C   UNL     1       2.935   4.466  19.211  0.00  0.00    +0.000 A 
ATOM     11  C   UNL     1       1.852   3.704  18.804  0.00  0.00    +0.000 A 
ATOM     12  N   UNL     1       1.855   3.540  17.435  0.00  0.00    +0.000 NA
ATOM     13  C   UNL     1       2.917   4.201  17.022  0.00  0.00    +0.000 A 
ATOM     14  N   UNL     1       3.618   4.759  18.061  0.00  0.00    +0.000 N 
BRANCH   6  15
ATOM     15  N   UNL     1      -0.136   2.469  19.555  0.00  0.00    +0.000 N 
ATOM     16  H   UNL     1      -0.039   1.533  19.925  0.00  0.00    +0.000 HD
ATOM     17  H   UNL     1      -0.471   2.565  18.601  0.00  0.00    +0.000 HD
ENDBRANCH   6  15
ENDBRANCH   1  14
BRANCH   3  18
ATOM     18  C   UNL     1       6.025   4.198  15.337  0.00  0.00    +0.000 C 
ATOM     19  O   UNL     1       6.025   3.098  15.882  0.00  0.00    +0.000 OA
ATOM     20  N   UNL     1       5.816   4.385  13.979  0.00  0.00    +0.000 N 
ATOM     21  H   UNL     1       5.793   5.323  13.600  0.00  0.00    +0.000 HD
BRANCH  20  22
ATOM     22  C   UNL     1       5.650   3.273  13.092  0.00  0.00    +0.000 C 
ATOM     23  C   UNL     1       4.912   3.458  11.796  0.00  0.00    +0.000 C 
ATOM     24  C   UNL     1       6.380   3.152  11.783  0.00  0.00    +0.000 C 
ENDBRANCH  20  22
ENDBRANCH   3  18
BRANCH   4  25
ATOM     25  O   UNL     1       8.271   4.530  17.221  0.00  0.00    +0.000 OA
ATOM     26  H   UNL     1       8.643   4.376  18.116  0.00  0.00    +0.000 HD
ENDBRANCH   4  25
BRANCH   5  27
ATOM     27  O   UNL     1       6.549   5.106  19.713  0.00  0.00    +0.000 OA
ATOM     28  H   UNL     1       7.381   4.638  19.896  0.00  0.00    +0.000 HD
ENDBRANCH   5  27
TORSDOF 6
ENDMDL
MODEL 7
REMARK VINA RESULT:      -7.1      2.758      4.695
REMARK  Name = 
REMARK  6 active torsions:
REMARK  status: ('A' for Active; 'I' for Inactive)
REMARK    1  A    between atoms: N_1  and  C_2
REMARK    2  A    between atoms: N_10  and  C_11
REMARK    3  A    between atoms: C_13  and  C_14
REMARK    4  A    between atoms: N_16  and  C_17
REMARK    5  A    between atoms: C_20  and  O_21
REMARK    6  A    between atoms: C_22  and  O_23
REMARK                            x       y       z     vdW  Elec       q    Type
REMARK                         _______ _______ _______ _____ _____    ______ ____
ROOT
ATOM      1  C   UNL     1       5.645   5.471  18.407  0.00  0.00    +0.000 C 
ATOM      2  O   UNL     1       5.053   6.162  17.266  0.00  0.00    +0.000 OA
ATOM      3  C   UNL     1       5.821   5.829  16.096  0.00  0.00    +0.000 C 
ATOM      4  C   UNL     1       7.212   5.510  16.618  0.00  0.00    +0.000 C 
ATOM      5  C   UNL     1       6.918   4.761  17.910  0.00  0.00    +0.000 C 
ENDROOT
BRANCH   1  14
ATOM      6  C   UNL     1       1.603   3.912  20.577  0.00  0.00    +0.000 A 
ATOM      7  N   UNL     1       1.094   5.148  20.774  0.00  0.00    +0.000 NA
ATOM      8  C   UNL     1       1.796   6.210  20.320  0.00  0.00    +0.000 A 
ATOM      9  N   UNL     1       2.982   6.215  19.682  0.00  0.00    +0.000 NA
ATOM     10  C   UNL     1       3.462   4.970  19.544  0.00  0.00    +0.000 A 
ATOM     11  C   UNL     1       2.853   3.793  19.945  0.00  0.00    +0.000 A 
ATOM     12  N   UNL     1       3.640   2.704  19.637  0.00  0.00    +0.000 NA
ATOM     13  C   UNL     1       4.703   3.215  19.051  0.00  0.00    +0.000 A 
ATOM     14  N   UNL     1       4.655   4.584  18.992  0.00  0.00    +0.000 N 
BRANCH   6  15
ATOM     15  N   UNL     1       0.875   2.819  21.033  0.00  0.00    +0.000 N 
ATOM     16  H   UNL     1       0.790   2.104  20.322  0.00  0.00    +0.000 HD
ATOM     17  H   UNL     1       0.034   3.085  21.533  0.00  0.00    +0.000 HD
ENDBRANCH   6  15
ENDBRANCH   1  14
BRANCH   3  18
ATOM     18  C   UNL     1       5.154   4.663  15.349  0.00  0.00    +0.000 C 
ATOM     19  O   UNL     1       4.247   3.999  15.842  0.00  0.00    +0.000 OA
ATOM     20  N   UNL     1       5.670   4.443  14.081  0.00  0.00    +0.000 N 
ATOM     21  H   UNL     1       6.394   5.052  13.722  0.00  0.00    +0.000 HD
BRANCH  20  22
ATOM     22  C   UNL     1       5.212   3.355  13.271  0.00  0.00    +0.000 C 
ATOM     23  C   UNL     1       4.658   3.630  11.900  0.00  0.00    +0.000 C 
ATOM     24  C   UNL     1       5.946   2.875  12.050  0.00  0.00    +0.000 C 
ENDBRANCH  20  22
ENDBRANCH   3  18
BRANCH   4  25
ATOM     25  O   UNL     1       8.075   4.823  15.729  0.00  0.00    +0.000 OA
ATOM     26  H   UNL     1       7.918   3.860  15.836  0.00  0.00    +0.000 HD
ENDBRANCH   4  25
BRANCH   5  27
ATOM     27  O   UNL     1       8.023   4.845  18.812  0.00  0.00    +0.000 OA
ATOM     28  H   UNL     1       8.725   4.235  18.533  0.00  0.00    +0.000 HD
ENDBRANCH   5  27
TORSDOF 6
ENDMDL
MODEL 8
REMARK VINA RESULT:      -7.1      1.192      1.513
REMARK  Name = 
REMARK  6 active torsions:
REMARK  status: ('A' for Active; 'I' for Inactive)
REMARK    1  A    between atoms: N_1  and  C_2
REMARK    2  A    between atoms: N_10  and  C_11
REMARK    3  A    between atoms: C_13  and  C_14
REMARK    4  A    between atoms: N_16  and  C_17
REMARK    5  A    between atoms: C_20  and  O_21
REMARK    6  A    between atoms: C_22  and  O_23
REMARK                            x       y       z     vdW  Elec       q    Type
REMARK                         _______ _______ _______ _____ _____    ______ ____
ROOT
ATOM      1  C   UNL     1       2.911   5.446  19.442  0.00  0.00    +0.000 C 
ATOM      2  O   UNL     1       4.300   5.430  19.888  0.00  0.00    +0.000 OA
ATOM      3  C   UNL     1       4.990   4.398  19.160  0.00  0.00    +0.000 C 
ATOM      4  C   UNL     1       3.914   3.387  18.799  0.00  0.00    +0.000 C 
ATOM      5  C   UNL     1       2.726   4.275  18.458  0.00  0.00    +0.000 C 
ENDROOT
BRANCH   1  14
ATOM      6  C   UNL     1       1.277   9.989  19.039  0.00  0.00    +0.000 A 
ATOM      7  N   UNL     1       0.730  10.025  20.274  0.00  0.00    +0.000 NA
ATOM      8  C   UNL     1       0.858   8.935  21.063  0.00  0.00    +0.000 A 
ATOM      9  N   UNL     1       1.469   7.768  20.781  0.00  0.00    +0.000 NA
ATOM     10  C   UNL     1       1.963   7.770  19.535  0.00  0.00    +0.000 A 
ATOM     11  C   UNL     1       1.919   8.811  18.622  0.00  0.00    +0.000 A 
ATOM     12  N   UNL     1       2.532   8.453  17.440  0.00  0.00    +0.000 NA
ATOM     13  C   UNL     1       2.947   7.219  17.639  0.00  0.00    +0.000 A 
ATOM     14  N   UNL     1       2.606   6.751  18.882  0.00  0.00    +0.000 N 
BRANCH   6  15
ATOM     15  N   UNL     1       1.157  11.115  18.232  0.00  0.00    +0.000 N 
ATOM     16  H   UNL     1       1.305  10.893  17.256  0.00  0.00    +0.000 HD
ATOM     17  H   UNL     1       1.641  11.924  18.607  0.00  0.00    +0.000 HD
ENDBRANCH   6  15
ENDBRANCH   1  14
BRANCH   3  18
ATOM     18  C   UNL     1       5.706   5.007  17.944  0.00  0.00    +0.000 C 
ATOM     19  O   UNL     1       5.964   6.205  17.865  0.00  0.00    +0.000 OA
ATOM     20  N   UNL     1       6.029   4.082  16.963  0.00  0.00    +0.000 N 
ATOM     21  H   UNL     1       5.819   3.103  17.110  0.00  0.00    +0.000 HD
BRANCH  20  22
ATOM     22  C   UNL     1       6.639   4.485  15.733  0.00  0.00    +0.000 C 
ATOM     23  C   UNL     1       6.245   3.809  14.449  0.00  0.00    +0.000 C 
ATOM     24  C   UNL     1       5.908   5.254  14.668  0.00  0.00    +0.000 C 
ENDBRANCH  20  22
ENDBRANCH   3  18
BRANCH   4  25
ATOM     25  O   UNL     1       4.247   2.447  17.791  0.00  0.00    +0.000 OA
ATOM     26  H   UNL     1       4.483   1.602  18.230  0.00  0.00    +0.000 HD
ENDBRANCH   4  25
BRANCH   5  27
ATOM     27  O   UNL     1       1.496   3.566  18.620  0.00  0.00    +0.000 OA
ATOM     28  H   UNL     1       1.345   2.987  17.854  0.00  0.00    +0.000 HD
ENDBRANCH   5  27
TORSDOF 6
ENDMDL
MODEL 9
REMARK VINA RESULT:      -7.1      1.835      1.952
REMARK  Name = 
REMARK  6 active torsions:
REMARK  status: ('A' for Active; 'I' for Inactive)
REMARK    1  A    between atoms: N_1  and  C_2
REMARK    2  A    between atoms: N_10  and  C_11
REMARK    3  A    between atoms: C_13  and  C_14
REMARK    4  A    between atoms: N_16  and  C_17
REMARK    5  A    between atoms: C_20  and  O_21
REMARK    6  A    between atoms: C_22  and  O_23
REMARK                            x       y       z     vdW  Elec       q    Type
REMARK                         _______ _______ _______ _____ _____    ______ ____
ROOT
ATOM      1  C   UNL     1       2.657   5.138  19.224  0.00  0.00    +0.000 C 
ATOM      2  O   UNL     1       3.922   4.997  19.935  0.00  0.00    +0.000 OA
ATOM      3  C   UNL     1       4.681   3.957  19.293  0.00  0.00    +0.000 C 
ATOM      4  C   UNL     1       3.641   3.048  18.658  0.00  0.00    +0.000 C 
ATOM      5  C   UNL     1       2.603   4.037  18.148  0.00  0.00    +0.000 C 
ENDROOT
BRANCH   1  14
ATOM      6  C   UNL     1       1.612   9.859  18.908  0.00  0.00    +0.000 A 
ATOM      7  N   UNL     1       0.983   9.918  20.103  0.00  0.00    +0.000 NA
ATOM      8  C   UNL     1       0.921   8.794  20.851  0.00  0.00    +0.000 A 
ATOM      9  N   UNL     1       1.407   7.571  20.561  0.00  0.00    +0.000 NA
ATOM     10  C   UNL     1       1.989   7.556  19.353  0.00  0.00    +0.000 A 
ATOM     11  C   UNL     1       2.138   8.626  18.486  0.00  0.00    +0.000 A 
ATOM     12  N   UNL     1       2.789   8.237  17.334  0.00  0.00    +0.000 NA
ATOM     13  C   UNL     1       3.037   6.956  17.508  0.00  0.00    +0.000 A 
ATOM     14  N   UNL     1       2.552   6.490  18.703  0.00  0.00    +0.000 N 
BRANCH   6  15
ATOM     15  N   UNL     1       1.687  11.018  18.145  0.00  0.00    +0.000 N 
ATOM     16  H   UNL     1       0.911  11.093  17.501  0.00  0.00    +0.000 HD
ATOM     17  H   UNL     1       2.618  11.191  17.780  0.00  0.00    +0.000 HD
ENDBRANCH   6  15
ENDBRANCH   1  14
BRANCH   3  18
ATOM     18  C   UNL     1       5.664   4.575  18.286  0.00  0.00    +0.000 C 
ATOM     19  O   UNL     1       5.712   4.220  17.112  0.00  0.00    +0.000 OA
ATOM     20  N   UNL     1       6.476   5.560  18.828  0.00  0.00    +0.000 N 
ATOM     21  H   UNL     1       6.358   5.829  19.796  0.00  0.00    +0.000 HD
BRANCH  20  22
ATOM     22  C   UNL     1       7.495   6.195  18.048  0.00  0.00    +0.000 C 
ATOM     23  C   UNL     1       7.205   7.507  17.373  0.00  0.00    +0.000 C 
ATOM     24  C   UNL     1       8.205   7.445  18.489  0.00  0.00    +0.000 C 
ENDBRANCH  20  22
ENDBRANCH   3  18
BRANCH   4  25
ATOM     25  O   UNL     1       4.112   2.140  17.678  0.00  0.00    +0.000 OA
ATOM     26  H   UNL     1       5.085   2.244  17.610  0.00  0.00    +0.000 HD
ENDBRANCH   4  25
BRANCH   5  27
ATOM     27  O   UNL     1       1.325   3.413  18.015  0.00  0.00    +0.000 OA
ATOM     28  H   UNL     1       0.620   4.063  18.174  0.00  0.00    +0.000 HD
ENDBRANCH   5  27
TORSDOF 6
ENDMDL
