MODEL 1
REMARK VINA RESULT:      -9.0      0.000      0.000
REMARK  Name = 
REMARK  10 active torsions:
REMARK  status: ('A' for Active; 'I' for Inactive)
REMARK    1  A    between atoms: C_1  and  O_2
REMARK    2  A    between atoms: O_2  and  C_3
REMARK    3  A    between atoms: C_8  and  O_9
REMARK    4  A    between atoms: O_9  and  C_10
REMARK    5  A    between atoms: C_11  and  C_12
REMARK    6  A    between atoms: C_12  and  O_13
REMARK    7  A    between atoms: O_13  and  C_14
REMARK    8  A    between atoms: C_18  and  C_19
REMARK    9  A    between atoms: C_27  and  C_29
REMARK   10  A    between atoms: C_33  and  C_34
REMARK                            x       y       z     vdW  Elec       q    Type
REMARK                         _______ _______ _______ _____ _____    ______ ____
ROOT
ATOM      1  C   UNL     1      -4.070  11.062  17.819  0.00  0.00    +0.000 A 
ATOM      2  C   UNL     1      -3.515  11.840  18.846  0.00  0.00    +0.000 A 
ATOM      3  C   UNL     1      -2.133  11.883  19.036  0.00  0.00    +0.000 A 
ATOM      4  C   UNL     1      -1.296  11.101  18.231  0.00  0.00    +0.000 A 
ATOM      5  C   UNL     1      -1.849  10.351  17.181  0.00  0.00    +0.000 A 
ATOM      6  C   UNL     1      -3.230  10.344  16.949  0.00  0.00    +0.000 A 
ATOM      7  C   UNL     1       0.201  11.054  18.512  0.00  0.00    +0.000 C 
ATOM      8  N   UNL     1       0.738  12.359  18.971  0.00  0.00    +0.000 N 
ATOM      9  C   UNL     1       2.075  12.621  18.649  0.00  0.00    +0.000 C 
ATOM     10  O   UNL     1       2.740  11.875  17.930  0.00  0.00    +0.000 OA
ATOM     11  C   UNL     1      -0.221  13.372  19.452  0.00  0.00    +0.000 C 
ATOM     12  C   UNL     1      -1.490  12.768  20.064  0.00  0.00    +0.000 C 
ENDROOT
BRANCH   9  13
ATOM     13  C   UNL     1       2.773  13.799  19.218  0.00  0.00    +0.000 A 
ATOM     14  C   UNL     1       3.205  14.816  18.361  0.00  0.00    +0.000 A 
ATOM     15  C   UNL     1       3.939  15.889  18.870  0.00  0.00    +0.000 A 
ATOM     16  C   UNL     1       4.235  15.953  20.232  0.00  0.00    +0.000 A 
ATOM     17  C   UNL     1       3.826  14.929  21.094  0.00  0.00    +0.000 A 
ATOM     18  C   UNL     1       4.111  14.980  22.566  0.00  0.00    +0.000 C 
ATOM     19  C   UNL     1       3.126  13.836  20.570  0.00  0.00    +0.000 A 
ENDBRANCH   9  13
BRANCH   1  21
ATOM     20  C   UNL     1      -5.955  12.344  17.164  0.00  0.00    +0.000 C 
ATOM     21  O   UNL     1      -5.438  11.151  17.745  0.00  0.00    +0.000 OA
ENDBRANCH   1  21
BRANCH   6  22
ATOM     22  O   UNL     1      -3.812   9.693  15.896  0.00  0.00    +0.000 OA
ATOM     23  C   UNL     1      -3.503  10.120  14.578  0.00  0.00    +0.000 C 
ENDBRANCH   6  22
BRANCH   7  24
ATOM     24  C   UNL     1       0.519   9.968  19.572  0.00  0.00    +0.000 C 
BRANCH  24  25
ATOM     25  O   UNL     1       1.860   9.478  19.435  0.00  0.00    +0.000 OA
BRANCH  25  26
ATOM     26  C   UNL     1       2.000   8.120  19.339  0.00  0.00    +0.000 A 
ATOM     27  C   UNL     1       2.232   7.633  18.054  0.00  0.00    +0.000 A 
ATOM     28  C   UNL     1       2.386   6.257  17.815  0.00  0.00    +0.000 A 
ATOM     29  C   UNL     1       2.306   5.333  18.866  0.00  0.00    +0.000 A 
ATOM     30  C   UNL     1       2.434   3.876  18.710  0.00  0.00    +0.000 A 
ATOM     31  C   UNL     1       2.665   3.214  17.383  0.00  0.00    +0.000 C 
ATOM     32  C   UNL     1       2.330   3.111  19.806  0.00  0.00    +0.000 A 
ATOM     33  C   UNL     1       2.097   3.642  21.160  0.00  0.00    +0.000 A 
ATOM     34  O   UNL     1       2.007   2.891  22.123  0.00  0.00    +0.000 OA
ATOM     35  O   UNL     1       1.985   5.014  21.275  0.00  0.00    +0.000 OA
ATOM     36  C   UNL     1       2.080   5.850  20.144  0.00  0.00    +0.000 A 
ATOM     37  C   UNL     1       1.934   7.215  20.395  0.00  0.00    +0.000 A 
ENDBRANCH  25  26
ENDBRANCH  24  25
ENDBRANCH   7  24
TORSDOF 6
ENDMDL
MODEL 2
REMARK VINA RESULT:      -8.9      1.105      1.632
REMARK  Name = 
REMARK  10 active torsions:
REMARK  status: ('A' for Active; 'I' for Inactive)
REMARK    1  A    between atoms: C_1  and  O_2
REMARK    2  A    between atoms: O_2  and  C_3
REMARK    3  A    between atoms: C_8  and  O_9
REMARK    4  A    between atoms: O_9  and  C_10
REMARK    5  A    between atoms: C_11  and  C_12
REMARK    6  A    between atoms: C_12  and  O_13
REMARK    7  A    between atoms: O_13  and  C_14
REMARK    8  A    between atoms: C_18  and  C_19
REMARK    9  A    between atoms: C_27  and  C_29
REMARK   10  A    between atoms: C_33  and  C_34
REMARK                            x       y       z     vdW  Elec       q    Type
REMARK                         _______ _______ _______ _____ _____    ______ ____
ROOT
ATOM      1  C   UNL     1      -3.891  10.733  17.831  0.00  0.00    +0.000 A 
ATOM      2  C   UNL     1      -3.388  11.480  18.906  0.00  0.00    +0.000 A 
ATOM      3  C   UNL     1      -2.013  11.631  19.082  0.00  0.00    +0.000 A 
ATOM      4  C   UNL     1      -1.125  10.989  18.211  0.00  0.00    +0.000 A 
ATOM      5  C   UNL     1      -1.629  10.271  17.116  0.00  0.00    +0.000 A 
ATOM      6  C   UNL     1      -3.008  10.159  16.899  0.00  0.00    +0.000 A 
ATOM      7  C   UNL     1       0.375  11.054  18.471  0.00  0.00    +0.000 C 
ATOM      8  N   UNL     1       0.804  12.364  19.020  0.00  0.00    +0.000 N 
ATOM      9  C   UNL     1       2.108  12.766  18.703  0.00  0.00    +0.000 C 
ATOM     10  O   UNL     1       2.822  12.137  17.923  0.00  0.00    +0.000 OA
ATOM     11  C   UNL     1      -0.231  13.250  19.587  0.00  0.00    +0.000 C 
ATOM     12  C   UNL     1      -1.431  12.492  20.166  0.00  0.00    +0.000 C 
ENDROOT
BRANCH   9  13
ATOM     13  C   UNL     1       2.710  13.957  19.350  0.00  0.00    +0.000 A 
ATOM     14  C   UNL     1       2.889  15.124  18.600  0.00  0.00    +0.000 A 
ATOM     15  C   UNL     1       3.533  16.224  19.170  0.00  0.00    +0.000 A 
ATOM     16  C   UNL     1       3.990  16.164  20.488  0.00  0.00    +0.000 A 
ATOM     17  C   UNL     1       3.835  14.994  21.239  0.00  0.00    +0.000 A 
ATOM     18  C   UNL     1       4.296  14.907  22.663  0.00  0.00    +0.000 C 
ATOM     19  C   UNL     1       3.225  13.880  20.648  0.00  0.00    +0.000 A 
ENDBRANCH   9  13
BRANCH   1  21
ATOM     20  C   UNL     1      -5.900  11.931  17.427  0.00  0.00    +0.000 C 
ATOM     21  O   UNL     1      -5.264  10.706  17.779  0.00  0.00    +0.000 OA
ENDBRANCH   1  21
BRANCH   6  22
ATOM     22  O   UNL     1      -3.550   9.537  15.807  0.00  0.00    +0.000 OA
ATOM     23  C   UNL     1      -3.540  10.221  14.563  0.00  0.00    +0.000 C 
ENDBRANCH   6  22
BRANCH   7  24
ATOM     24  C   UNL     1       0.807   9.925  19.443  0.00  0.00    +0.000 C 
BRANCH  24  25
ATOM     25  O   UNL     1       1.978   9.246  18.972  0.00  0.00    +0.000 OA
BRANCH  25  26
ATOM     26  C   UNL     1       2.044   7.904  19.232  0.00  0.00    +0.000 A 
ATOM     27  C   UNL     1       1.526   7.509  20.464  0.00  0.00    +0.000 A 
ATOM     28  C   UNL     1       1.539   6.160  20.860  0.00  0.00    +0.000 A 
ATOM     29  C   UNL     1       2.080   5.173  20.024  0.00  0.00    +0.000 A 
ATOM     30  C   UNL     1       2.156   3.743  20.359  0.00  0.00    +0.000 A 
ATOM     31  C   UNL     1       1.656   3.182  21.659  0.00  0.00    +0.000 C 
ATOM     32  C   UNL     1       2.706   2.911  19.464  0.00  0.00    +0.000 A 
ATOM     33  C   UNL     1       3.238   3.343  18.160  0.00  0.00    +0.000 A 
ATOM     34  O   UNL     1       3.734   2.535  17.384  0.00  0.00    +0.000 OA
ATOM     35  O   UNL     1       3.149   4.691  17.872  0.00  0.00    +0.000 OA
ATOM     36  C   UNL     1       2.585   5.597  18.793  0.00  0.00    +0.000 A 
ATOM     37  C   UNL     1       2.570   6.933  18.385  0.00  0.00    +0.000 A 
ENDBRANCH  25  26
ENDBRANCH  24  25
ENDBRANCH   7  24
TORSDOF 6
ENDMDL
MODEL 3
REMARK VINA RESULT:      -8.7      0.716      1.173
REMARK  Name = 
REMARK  10 active torsions:
REMARK  status: ('A' for Active; 'I' for Inactive)
REMARK    1  A    between atoms: C_1  and  O_2
REMARK    2  A    between atoms: O_2  and  C_3
REMARK    3  A    between atoms: C_8  and  O_9
REMARK    4  A    between atoms: O_9  and  C_10
REMARK    5  A    between atoms: C_11  and  C_12
REMARK    6  A    between atoms: C_12  and  O_13
REMARK    7  A    between atoms: O_13  and  C_14
REMARK    8  A    between atoms: C_18  and  C_19
REMARK    9  A    between atoms: C_27  and  C_29
REMARK   10  A    between atoms: C_33  and  C_34
REMARK                            x       y       z     vdW  Elec       q    Type
REMARK                         _______ _______ _______ _____ _____    ______ ____
ROOT
ATOM      1  C   UNL     1      -4.175  10.968  17.729  0.00  0.00    +0.000 A 
ATOM      2  C   UNL     1      -3.733  11.675  18.857  0.00  0.00    +0.000 A 
ATOM      3  C   UNL     1      -2.369  11.801  19.125  0.00  0.00    +0.000 A 
ATOM      4  C   UNL     1      -1.436  11.173  18.292  0.00  0.00    +0.000 A 
ATOM      5  C   UNL     1      -1.877  10.497  17.145  0.00  0.00    +0.000 A 
ATOM      6  C   UNL     1      -3.241  10.411  16.838  0.00  0.00    +0.000 A 
ATOM      7  C   UNL     1       0.046  11.209  18.648  0.00  0.00    +0.000 C 
ATOM      8  N   UNL     1       0.455  12.496  19.264  0.00  0.00    +0.000 N 
ATOM      9  C   UNL     1       1.780  12.889  19.043  0.00  0.00    +0.000 C 
ATOM     10  O   UNL     1       2.535  12.275  18.290  0.00  0.00    +0.000 OA
ATOM     11  C   UNL     1      -0.604  13.379  19.792  0.00  0.00    +0.000 C 
ATOM     12  C   UNL     1      -1.847  12.620  20.270  0.00  0.00    +0.000 C 
ENDROOT
BRANCH   9  13
ATOM     13  C   UNL     1       2.354  14.051  19.764  0.00  0.00    +0.000 A 
ATOM     14  C   UNL     1       3.161  13.829  20.884  0.00  0.00    +0.000 A 
ATOM     15  C   UNL     1       3.637  14.914  21.624  0.00  0.00    +0.000 A 
ATOM     16  C   UNL     1       3.315  16.218  21.242  0.00  0.00    +0.000 A 
ATOM     17  C   UNL     1       2.491  16.449  20.136  0.00  0.00    +0.000 A 
ATOM     18  C   UNL     1       2.147  17.839  19.689  0.00  0.00    +0.000 C 
ATOM     19  C   UNL     1       1.984  15.356  19.423  0.00  0.00    +0.000 A 
ENDBRANCH   9  13
BRANCH   1  21
ATOM     20  C   UNL     1      -6.143  12.215  17.280  0.00  0.00    +0.000 C 
ATOM     21  O   UNL     1      -5.541  10.962  17.590  0.00  0.00    +0.000 OA
ENDBRANCH   1  21
BRANCH   6  22
ATOM     22  O   UNL     1      -3.720   9.830  15.695  0.00  0.00    +0.000 OA
ATOM     23  C   UNL     1      -3.204  10.264  14.446  0.00  0.00    +0.000 C 
ENDBRANCH   6  22
BRANCH   7  24
ATOM     24  C   UNL     1       0.401  10.046  19.609  0.00  0.00    +0.000 C 
BRANCH  24  25
ATOM     25  O   UNL     1       1.746   9.592  19.409  0.00  0.00    +0.000 OA
BRANCH  25  26
ATOM     26  C   UNL     1       1.920   8.237  19.320  0.00  0.00    +0.000 A 
ATOM     27  C   UNL     1       2.180   7.751  18.040  0.00  0.00    +0.000 A 
ATOM     28  C   UNL     1       2.369   6.378  17.807  0.00  0.00    +0.000 A 
ATOM     29  C   UNL     1       2.298   5.456  18.860  0.00  0.00    +0.000 A 
ATOM     30  C   UNL     1       2.462   4.002  18.712  0.00  0.00    +0.000 A 
ATOM     31  C   UNL     1       2.726   3.341  17.390  0.00  0.00    +0.000 C 
ATOM     32  C   UNL     1       2.362   3.238  19.809  0.00  0.00    +0.000 A 
ATOM     33  C   UNL     1       2.100   3.768  21.158  0.00  0.00    +0.000 A 
ATOM     34  O   UNL     1       2.015   3.018  22.123  0.00  0.00    +0.000 OA
ATOM     35  O   UNL     1       1.954   5.138  21.266  0.00  0.00    +0.000 OA
ATOM     36  C   UNL     1       2.043   5.972  20.133  0.00  0.00    +0.000 A 
ATOM     37  C   UNL     1       1.862   7.334  20.378  0.00  0.00    +0.000 A 
ENDBRANCH  25  26
ENDBRANCH  24  25
ENDBRANCH   7  24
TORSDOF 6
ENDMDL
MODEL 4
REMARK VINA RESULT:      -8.6      1.290      2.010
REMARK  Name = 
REMARK  10 active torsions:
REMARK  status: ('A' for Active; 'I' for Inactive)
REMARK    1  A    between atoms: C_1  and  O_2
REMARK    2  A    between atoms: O_2  and  C_3
REMARK    3  A    between atoms: C_8  and  O_9
REMARK    4  A    between atoms: O_9  and  C_10
REMARK    5  A    between atoms: C_11  and  C_12
REMARK    6  A    between atoms: C_12  and  O_13
REMARK    7  A    between atoms: O_13  and  C_14
REMARK    8  A    between atoms: C_18  and  C_19
REMARK    9  A    between atoms: C_27  and  C_29
REMARK   10  A    between atoms: C_33  and  C_34
REMARK                            x       y       z     vdW  Elec       q    Type
REMARK                         _______ _______ _______ _____ _____    ______ ____
ROOT
ATOM      1  C   UNL     1      -3.989  10.684  17.655  0.00  0.00    +0.000 A 
ATOM      2  C   UNL     1      -3.570  11.385  18.794  0.00  0.00    +0.000 A 
ATOM      3  C   UNL     1      -2.212  11.570  19.054  0.00  0.00    +0.000 A 
ATOM      4  C   UNL     1      -1.258  11.005  18.200  0.00  0.00    +0.000 A 
ATOM      5  C   UNL     1      -1.677  10.334  17.041  0.00  0.00    +0.000 A 
ATOM      6  C   UNL     1      -3.038  10.190  16.744  0.00  0.00    +0.000 A 
ATOM      7  C   UNL     1       0.224  11.103  18.544  0.00  0.00    +0.000 C 
ATOM      8  N   UNL     1       0.577  12.395  19.185  0.00  0.00    +0.000 N 
ATOM      9  C   UNL     1       1.881  12.855  18.962  0.00  0.00    +0.000 C 
ATOM     10  O   UNL     1       2.657  12.293  18.189  0.00  0.00    +0.000 OA
ATOM     11  C   UNL     1      -0.517  13.215  19.740  0.00  0.00    +0.000 C 
ATOM     12  C   UNL     1      -1.719  12.388  20.212  0.00  0.00    +0.000 C 
ENDROOT
BRANCH   9  13
ATOM     13  C   UNL     1       2.406  14.027  19.703  0.00  0.00    +0.000 A 
ATOM     14  C   UNL     1       3.135  13.821  20.878  0.00  0.00    +0.000 A 
ATOM     15  C   UNL     1       3.561  14.915  21.633  0.00  0.00    +0.000 A 
ATOM     16  C   UNL     1       3.267  16.214  21.213  0.00  0.00    +0.000 A 
ATOM     17  C   UNL     1       2.520  16.430  20.050  0.00  0.00    +0.000 A 
ATOM     18  C   UNL     1       2.207  17.813  19.562  0.00  0.00    +0.000 C 
ATOM     19  C   UNL     1       2.061  15.327  19.321  0.00  0.00    +0.000 A 
ENDBRANCH   9  13
BRANCH   1  21
ATOM     20  C   UNL     1      -6.056  11.849  17.650  0.00  0.00    +0.000 C 
ATOM     21  O   UNL     1      -5.355  10.615  17.526  0.00  0.00    +0.000 OA
ENDBRANCH   1  21
BRANCH   6  22
ATOM     22  O   UNL     1      -3.500   9.612  15.592  0.00  0.00    +0.000 OA
ATOM     23  C   UNL     1      -3.222  10.250  14.355  0.00  0.00    +0.000 C 
ENDBRANCH   6  22
BRANCH   7  24
ATOM     24  C   UNL     1       0.642   9.938  19.477  0.00  0.00    +0.000 C 
BRANCH  24  25
ATOM     25  O   UNL     1       1.867   9.332  19.043  0.00  0.00    +0.000 OA
BRANCH  25  26
ATOM     26  C   UNL     1       1.994   7.989  19.279  0.00  0.00    +0.000 A 
ATOM     27  C   UNL     1       1.541   7.557  20.524  0.00  0.00    +0.000 A 
ATOM     28  C   UNL     1       1.621   6.205  20.898  0.00  0.00    +0.000 A 
ATOM     29  C   UNL     1       2.164   5.251  20.026  0.00  0.00    +0.000 A 
ATOM     30  C   UNL     1       2.307   3.820  20.335  0.00  0.00    +0.000 A 
ATOM     31  C   UNL     1       1.882   3.221  21.644  0.00  0.00    +0.000 C 
ATOM     32  C   UNL     1       2.851   3.023  19.405  0.00  0.00    +0.000 A 
ATOM     33  C   UNL     1       3.313   3.493  18.088  0.00  0.00    +0.000 A 
ATOM     34  O   UNL     1       3.806   2.716  17.280  0.00  0.00    +0.000 OA
ATOM     35  O   UNL     1       3.162   4.841  17.825  0.00  0.00    +0.000 OA
ATOM     36  C   UNL     1       2.602   5.711  18.782  0.00  0.00    +0.000 A 
ATOM     37  C   UNL     1       2.520   7.051  18.396  0.00  0.00    +0.000 A 
ENDBRANCH  25  26
ENDBRANCH  24  25
ENDBRANCH   7  24
TORSDOF 6
ENDMDL
MODEL 5
REMARK VINA RESULT:      -8.5      2.458      8.332
REMARK  Name = 
REMARK  10 active torsions:
REMARK  status: ('A' for Active; 'I' for Inactive)
REMARK    1  A    between atoms: C_1  and  O_2
REMARK    2  A    between atoms: O_2  and  C_3
REMARK    3  A    between atoms: C_8  and  O_9
REMARK    4  A    between atoms: O_9  and  C_10
REMARK    5  A    between atoms: C_11  and  C_12
REMARK    6  A    between atoms: C_12  and  O_13
REMARK    7  A    between atoms: O_13  and  C_14
REMARK    8  A    between atoms: C_18  and  C_19
REMARK    9  A    between atoms: C_27  and  C_29
REMARK   10  A    between atoms: C_33  and  C_34
REMARK                            x       y       z     vdW  Elec       q    Type
REMARK                         _______ _______ _______ _____ _____    ______ ____
ROOT
ATOM      1  C   UNL     1       0.119  12.357  22.058  0.00  0.00    +0.000 A 
ATOM      2  C   UNL     1      -0.161  10.988  22.175  0.00  0.00    +0.000 A 
ATOM      3  C   UNL     1       0.243  10.094  21.183  0.00  0.00    +0.000 A 
ATOM      4  C   UNL     1       0.887  10.573  20.036  0.00  0.00    +0.000 A 
ATOM      5  C   UNL     1       1.199  11.937  19.937  0.00  0.00    +0.000 A 
ATOM      6  C   UNL     1       0.845  12.834  20.952  0.00  0.00    +0.000 A 
ATOM      7  C   UNL     1       1.224   9.616  18.898  0.00  0.00    +0.000 C 
ATOM      8  N   UNL     1       1.625   8.271  19.382  0.00  0.00    +0.000 N 
ATOM      9  C   UNL     1       2.523   7.569  18.568  0.00  0.00    +0.000 C 
ATOM     10  O   UNL     1       3.045   8.071  17.573  0.00  0.00    +0.000 OA
ATOM     11  C   UNL     1       1.297   7.910  20.774  0.00  0.00    +0.000 C 
ATOM     12  C   UNL     1       0.042   8.611  21.307  0.00  0.00    +0.000 C 
ENDROOT
BRANCH   9  13
ATOM     13  C   UNL     1       2.844   6.148  18.848  0.00  0.00    +0.000 A 
ATOM     14  C   UNL     1       4.137   5.808  19.258  0.00  0.00    +0.000 A 
ATOM     15  C   UNL     1       4.477   4.467  19.441  0.00  0.00    +0.000 A 
ATOM     16  C   UNL     1       3.528   3.466  19.224  0.00  0.00    +0.000 A 
ATOM     17  C   UNL     1       2.239   3.795  18.793  0.00  0.00    +0.000 A 
ATOM     18  C   UNL     1       1.192   2.744  18.572  0.00  0.00    +0.000 C 
ATOM     19  C   UNL     1       1.916   5.139  18.571  0.00  0.00    +0.000 A 
ENDBRANCH   9  13
BRANCH   1  21
ATOM     20  C   UNL     1      -1.713  13.379  23.167  0.00  0.00    +0.000 C 
ATOM     21  O   UNL     1      -0.317  13.097  23.129  0.00  0.00    +0.000 OA
ENDBRANCH   1  21
BRANCH   6  22
ATOM     22  O   UNL     1       1.190  14.158  20.941  0.00  0.00    +0.000 OA
ATOM     23  C   UNL     1       2.424  14.542  21.529  0.00  0.00    +0.000 C 
ENDBRANCH   6  22
BRANCH   7  24
ATOM     24  C   UNL     1       0.018   9.474  17.934  0.00  0.00    +0.000 C 
BRANCH  24  25
ATOM     25  O   UNL     1      -0.512  10.754  17.564  0.00  0.00    +0.000 OA
BRANCH  25  26
ATOM     26  C   UNL     1      -1.786  11.024  17.986  0.00  0.00    +0.000 A 
ATOM     27  C   UNL     1      -2.788  10.268  17.381  0.00  0.00    +0.000 A 
ATOM     28  C   UNL     1      -4.141  10.452  17.716  0.00  0.00    +0.000 A 
ATOM     29  C   UNL     1      -4.520  11.407  18.669  0.00  0.00    +0.000 A 
ATOM     30  C   UNL     1      -5.908  11.685  19.070  0.00  0.00    +0.000 A 
ATOM     31  C   UNL     1      -7.086  10.961  18.485  0.00  0.00    +0.000 C 
ATOM     32  C   UNL     1      -6.123  12.633  19.992  0.00  0.00    +0.000 A 
ATOM     33  C   UNL     1      -5.051  13.415  20.632  0.00  0.00    +0.000 A 
ATOM     34  O   UNL     1      -5.311  14.273  21.467  0.00  0.00    +0.000 OA
ATOM     35  O   UNL     1      -3.758  13.129  20.238  0.00  0.00    +0.000 OA
ATOM     36  C   UNL     1      -3.494  12.145  19.265  0.00  0.00    +0.000 A 
ATOM     37  C   UNL     1      -2.146  11.965  18.946  0.00  0.00    +0.000 A 
ENDBRANCH  25  26
ENDBRANCH  24  25
ENDBRANCH   7  24
TORSDOF 6
ENDMDL
MODEL 6
REMARK VINA RESULT:      -8.5      1.364      1.648
REMARK  Name = 
REMARK  10 active torsions:
REMARK  status: ('A' for Active; 'I' for Inactive)
REMARK    1  A    between atoms: C_1  and  O_2
REMARK    2  A    between atoms: O_2  and  C_3
REMARK    3  A    between atoms: C_8  and  O_9
REMARK    4  A    between atoms: O_9  and  C_10
REMARK    5  A    between atoms: C_11  and  C_12
REMARK    6  A    between atoms: C_12  and  O_13
REMARK    7  A    between atoms: O_13  and  C_14
REMARK    8  A    between atoms: C_18  and  C_19
REMARK    9  A    between atoms: C_27  and  C_29
REMARK   10  A    between atoms: C_33  and  C_34
REMARK                            x       y       z     vdW  Elec       q    Type
REMARK                         _______ _______ _______ _____ _____    ______ ____
ROOT
ATOM      1  C   UNL     1      -3.785  11.055  18.126  0.00  0.00    +0.000 A 
ATOM      2  C   UNL     1      -3.367  11.977  19.097  0.00  0.00    +0.000 A 
ATOM      3  C   UNL     1      -2.009  12.209  19.317  0.00  0.00    +0.000 A 
ATOM      4  C   UNL     1      -1.054  11.478  18.601  0.00  0.00    +0.000 A 
ATOM      5  C   UNL     1      -1.472  10.582  17.606  0.00  0.00    +0.000 A 
ATOM      6  C   UNL     1      -2.832  10.382  17.340  0.00  0.00    +0.000 A 
ATOM      7  C   UNL     1       0.427  11.642  18.923  0.00  0.00    +0.000 C 
ATOM      8  N   UNL     1       0.782  13.038  19.284  0.00  0.00    +0.000 N 
ATOM      9  C   UNL     1       2.087  13.439  18.975  0.00  0.00    +0.000 C 
ATOM     10  O   UNL     1       2.864  12.728  18.338  0.00  0.00    +0.000 OA
ATOM     11  C   UNL     1      -0.312  13.957  19.654  0.00  0.00    +0.000 C 
ATOM     12  C   UNL     1      -1.517  13.248  20.283  0.00  0.00    +0.000 C 
ENDROOT
BRANCH   9  13
ATOM     13  C   UNL     1       2.613  14.738  19.460  0.00  0.00    +0.000 A 
ATOM     14  C   UNL     1       2.645  15.830  18.587  0.00  0.00    +0.000 A 
ATOM     15  C   UNL     1       3.217  17.035  19.002  0.00  0.00    +0.000 A 
ATOM     16  C   UNL     1       3.749  17.153  20.287  0.00  0.00    +0.000 A 
ATOM     17  C   UNL     1       3.741  16.059  21.160  0.00  0.00    +0.000 A 
ATOM     18  C   UNL     1       4.286  16.162  22.554  0.00  0.00    +0.000 C 
ATOM     19  C   UNL     1       3.204  14.843  20.723  0.00  0.00    +0.000 A 
ENDBRANCH   9  13
BRANCH   1  21
ATOM     20  C   UNL     1      -5.816  12.135  17.544  0.00  0.00    +0.000 C 
ATOM     21  O   UNL     1      -5.150  10.965  18.010  0.00  0.00    +0.000 OA
ENDBRANCH   1  21
BRANCH   6  22
ATOM     22  O   UNL     1      -3.292   9.580  16.331  0.00  0.00    +0.000 OA
ATOM     23  C   UNL     1      -3.037   9.964  14.989  0.00  0.00    +0.000 C 
ENDBRANCH   6  22
BRANCH   7  24
ATOM     24  C   UNL     1       0.840  10.694  20.078  0.00  0.00    +0.000 C 
BRANCH  24  25
ATOM     25  O   UNL     1       0.451   9.341  19.811  0.00  0.00    +0.000 OA
BRANCH  25  26
ATOM     26  C   UNL     1       1.419   8.526  19.285  0.00  0.00    +0.000 A 
ATOM     27  C   UNL     1       1.956   8.946  18.069  0.00  0.00    +0.000 A 
ATOM     28  C   UNL     1       2.951   8.197  17.417  0.00  0.00    +0.000 A 
ATOM     29  C   UNL     1       3.429   7.002  17.973  0.00  0.00    +0.000 A 
ATOM     30  C   UNL     1       4.451   6.143  17.356  0.00  0.00    +0.000 A 
ATOM     31  C   UNL     1       5.099   6.462  16.040  0.00  0.00    +0.000 C 
ATOM     32  C   UNL     1       4.808   5.023  17.999  0.00  0.00    +0.000 A 
ATOM     33  C   UNL     1       4.240   4.600  19.291  0.00  0.00    +0.000 A 
ATOM     34  O   UNL     1       4.605   3.562  19.829  0.00  0.00    +0.000 OA
ATOM     35  O   UNL     1       3.285   5.429  19.847  0.00  0.00    +0.000 OA
ATOM     36  C   UNL     1       2.878   6.611  19.195  0.00  0.00    +0.000 A 
ATOM     37  C   UNL     1       1.895   7.350  19.857  0.00  0.00    +0.000 A 
ENDBRANCH  25  26
ENDBRANCH  24  25
ENDBRANCH   7  24
TORSDOF 6
ENDMDL
MODEL 7
REMARK VINA RESULT:      -8.4      1.799      2.445
REMARK  Name = 
REMARK  10 active torsions:
REMARK  status: ('A' for Active; 'I' for Inactive)
REMARK    1  A    between atoms: C_1  and  O_2
REMARK    2  A    between atoms: O_2  and  C_3
REMARK    3  A    between atoms: C_8  and  O_9
REMARK    4  A    between atoms: O_9  and  C_10
REMARK    5  A    between atoms: C_11  and  C_12
REMARK    6  A    between atoms: C_12  and  O_13
REMARK    7  A    between atoms: O_13  and  C_14
REMARK    8  A    between atoms: C_18  and  C_19
REMARK    9  A    between atoms: C_27  and  C_29
REMARK   10  A    between atoms: C_33  and  C_34
REMARK                            x       y       z     vdW  Elec       q    Type
REMARK                         _______ _______ _______ _____ _____    ______ ____
ROOT
ATOM      1  C   UNL     1      -3.577  10.958  18.016  0.00  0.00    +0.000 A 
ATOM      2  C   UNL     1      -3.101  11.895  18.944  0.00  0.00    +0.000 A 
ATOM      3  C   UNL     1      -1.729  12.089  19.115  0.00  0.00    +0.000 A 
ATOM      4  C   UNL     1      -0.821  11.306  18.394  0.00  0.00    +0.000 A 
ATOM      5  C   UNL     1      -1.298  10.394  17.440  0.00  0.00    +0.000 A 
ATOM      6  C   UNL     1      -2.672  10.230  17.223  0.00  0.00    +0.000 A 
ATOM      7  C   UNL     1       0.674  11.432  18.664  0.00  0.00    +0.000 C 
ATOM      8  N   UNL     1       1.084  12.826  18.970  0.00  0.00    +0.000 N 
ATOM      9  C   UNL     1       2.390  13.175  18.609  0.00  0.00    +0.000 C 
ATOM     10  O   UNL     1       3.124  12.420  17.971  0.00  0.00    +0.000 OA
ATOM     11  C   UNL     1       0.031  13.791  19.344  0.00  0.00    +0.000 C 
ATOM     12  C   UNL     1      -1.175  13.141  20.032  0.00  0.00    +0.000 C 
ENDROOT
BRANCH   9  13
ATOM     13  C   UNL     1       2.972  14.471  19.035  0.00  0.00    +0.000 A 
ATOM     14  C   UNL     1       3.107  15.500  18.099  0.00  0.00    +0.000 A 
ATOM     15  C   UNL     1       3.732  16.694  18.464  0.00  0.00    +0.000 A 
ATOM     16  C   UNL     1       4.214  16.865  19.763  0.00  0.00    +0.000 A 
ATOM     17  C   UNL     1       4.102  15.833  20.701  0.00  0.00    +0.000 A 
ATOM     18  C   UNL     1       4.591  15.995  22.110  0.00  0.00    +0.000 C 
ATOM     19  C   UNL     1       3.512  14.623  20.317  0.00  0.00    +0.000 A 
ENDBRANCH   9  13
BRANCH   1  21
ATOM     20  C   UNL     1      -5.651  11.767  18.837  0.00  0.00    +0.000 C 
ATOM     21  O   UNL     1      -4.948  10.908  17.945  0.00  0.00    +0.000 OA
ENDBRANCH   1  21
BRANCH   6  22
ATOM     22  O   UNL     1      -3.188   9.413  16.255  0.00  0.00    +0.000 OA
ATOM     23  C   UNL     1      -3.274   9.904  14.926  0.00  0.00    +0.000 C 
ENDBRANCH   6  22
BRANCH   7  24
ATOM     24  C   UNL     1       1.093  10.507  19.836  0.00  0.00    +0.000 C 
BRANCH  24  25
ATOM     25  O   UNL     1       0.622   9.167  19.641  0.00  0.00    +0.000 OA
BRANCH  25  26
ATOM     26  C   UNL     1       1.563   8.243  19.277  0.00  0.00    +0.000 A 
ATOM     27  C   UNL     1       1.728   7.178  20.162  0.00  0.00    +0.000 A 
ATOM     28  C   UNL     1       2.668   6.164  19.912  0.00  0.00    +0.000 A 
ATOM     29  C   UNL     1       3.471   6.197  18.763  0.00  0.00    +0.000 A 
ATOM     30  C   UNL     1       4.492   5.194  18.427  0.00  0.00    +0.000 A 
ATOM     31  C   UNL     1       4.790   4.008  19.299  0.00  0.00    +0.000 C 
ATOM     32  C   UNL     1       5.191   5.356  17.295  0.00  0.00    +0.000 A 
ATOM     33  C   UNL     1       4.995   6.481  16.363  0.00  0.00    +0.000 A 
ATOM     34  O   UNL     1       5.669   6.578  15.344  0.00  0.00    +0.000 OA
ATOM     35  O   UNL     1       4.027   7.404  16.704  0.00  0.00    +0.000 OA
ATOM     36  C   UNL     1       3.278   7.271  17.891  0.00  0.00    +0.000 A 
ATOM     37  C   UNL     1       2.342   8.280  18.124  0.00  0.00    +0.000 A 
ENDBRANCH  25  26
ENDBRANCH  24  25
ENDBRANCH   7  24
TORSDOF 6
ENDMDL
MODEL 8
REMARK VINA RESULT:      -8.4      2.678      8.203
REMARK  Name = 
REMARK  10 active torsions:
REMARK  status: ('A' for Active; 'I' for Inactive)
REMARK    1  A    between atoms: C_1  and  O_2
REMARK    2  A    between atoms: O_2  and  C_3
REMARK    3  A    between atoms: C_8  and  O_9
REMARK    4  A    between atoms: O_9  and  C_10
REMARK    5  A    between atoms: C_11  and  C_12
REMARK    6  A    between atoms: C_12  and  O_13
REMARK    7  A    between atoms: O_13  and  C_14
REMARK    8  A    between atoms: C_18  and  C_19
REMARK    9  A    between atoms: C_27  and  C_29
REMARK   10  A    between atoms: C_33  and  C_34
REMARK                            x       y       z     vdW  Elec       q    Type
REMARK                         _______ _______ _______ _____ _____    ______ ____
ROOT
ATOM      1  C   UNL     1      -0.402  12.752  22.291  0.00  0.00    +0.000 A 
ATOM      2  C   UNL     1      -0.428  11.356  22.420  0.00  0.00    +0.000 A 
ATOM      3  C   UNL     1      -0.052  10.538  21.355  0.00  0.00    +0.000 A 
ATOM      4  C   UNL     1       0.303  11.112  20.128  0.00  0.00    +0.000 A 
ATOM      5  C   UNL     1       0.363  12.509  20.011  0.00  0.00    +0.000 A 
ATOM      6  C   UNL     1       0.040  13.339  21.092  0.00  0.00    +0.000 A 
ATOM      7  C   UNL     1       0.599  10.221  18.929  0.00  0.00    +0.000 C 
ATOM      8  N   UNL     1       1.293   8.964  19.307  0.00  0.00    +0.000 N 
ATOM      9  C   UNL     1       2.146   8.418  18.340  0.00  0.00    +0.000 C 
ATOM     10  O   UNL     1       2.404   8.996  17.285  0.00  0.00    +0.000 OA
ATOM     11  C   UNL     1       1.266   8.559  20.726  0.00  0.00    +0.000 C 
ATOM     12  C   UNL     1       0.019   9.043  21.475  0.00  0.00    +0.000 C 
ENDROOT
BRANCH   9  13
ATOM     13  C   UNL     1       2.740   7.073  18.530  0.00  0.00    +0.000 A 
ATOM     14  C   UNL     1       3.777   6.659  17.688  0.00  0.00    +0.000 A 
ATOM     15  C   UNL     1       4.287   5.364  17.798  0.00  0.00    +0.000 A 
ATOM     16  C   UNL     1       3.769   4.485  18.750  0.00  0.00    +0.000 A 
ATOM     17  C   UNL     1       2.717   4.882  19.583  0.00  0.00    +0.000 A 
ATOM     18  C   UNL     1       2.154   3.967  20.630  0.00  0.00    +0.000 C 
ATOM     19  C   UNL     1       2.183   6.168  19.439  0.00  0.00    +0.000 A 
ENDBRANCH   9  13
BRANCH   1  21
ATOM     20  C   UNL     1      -2.171  13.524  23.672  0.00  0.00    +0.000 C 
ATOM     21  O   UNL     1      -0.770  13.414  23.437  0.00  0.00    +0.000 OA
ENDBRANCH   1  21
BRANCH   6  22
ATOM     22  O   UNL     1       0.155  14.702  21.055  0.00  0.00    +0.000 OA
ATOM     23  C   UNL     1       0.690  15.307  19.887  0.00  0.00    +0.000 C 
ENDBRANCH   6  22
BRANCH   7  24
ATOM     24  C   UNL     1      -0.710   9.875  18.174  0.00  0.00    +0.000 C 
BRANCH  24  25
ATOM     25  O   UNL     1      -1.265  11.028  17.528  0.00  0.00    +0.000 OA
BRANCH  25  26
ATOM     26  C   UNL     1      -2.500  11.427  17.961  0.00  0.00    +0.000 A 
ATOM     27  C   UNL     1      -3.498  11.441  16.987  0.00  0.00    +0.000 A 
ATOM     28  C   UNL     1      -4.810  11.839  17.296  0.00  0.00    +0.000 A 
ATOM     29  C   UNL     1      -5.151  12.238  18.596  0.00  0.00    +0.000 A 
ATOM     30  C   UNL     1      -6.489  12.689  19.009  0.00  0.00    +0.000 A 
ATOM     31  C   UNL     1      -7.650  12.773  18.061  0.00  0.00    +0.000 C 
ATOM     32  C   UNL     1      -6.669  13.047  20.288  0.00  0.00    +0.000 A 
ATOM     33  C   UNL     1      -5.607  13.014  21.308  0.00  0.00    +0.000 A 
ATOM     34  O   UNL     1      -5.833  13.359  22.462  0.00  0.00    +0.000 OA
ATOM     35  O   UNL     1      -4.363  12.583  20.891  0.00  0.00    +0.000 OA
ATOM     36  C   UNL     1      -4.133  12.207  19.552  0.00  0.00    +0.000 A 
ATOM     37  C   UNL     1      -2.828  11.806  19.259  0.00  0.00    +0.000 A 
ENDBRANCH  25  26
ENDBRANCH  24  25
ENDBRANCH   7  24
TORSDOF 6
ENDMDL
MODEL 9
REMARK VINA RESULT:      -8.3      2.499      7.466
REMARK  Name = 
REMARK  10 active torsions:
REMARK  status: ('A' for Active; 'I' for Inactive)
REMARK    1  A    between atoms: C_1  and  O_2
REMARK    2  A    between atoms: O_2  and  C_3
REMARK    3  A    between atoms: C_8  and  O_9
REMARK    4  A    between atoms: O_9  and  C_10
REMARK    5  A    between atoms: C_11  and  C_12
REMARK    6  A    between atoms: C_12  and  O_13
REMARK    7  A    between atoms: O_13  and  C_14
REMARK    8  A    between atoms: C_18  and  C_19
REMARK    9  A    between atoms: C_27  and  C_29
REMARK   10  A    between atoms: C_33  and  C_34
REMARK                            x       y       z     vdW  Elec       q    Type
REMARK                         _______ _______ _______ _____ _____    ______ ____
ROOT
ATOM      1  C   UNL     1      -5.629  12.208  18.415  0.00  0.00    +0.000 A 
ATOM      2  C   UNL     1      -4.663  11.664  17.557  0.00  0.00    +0.000 A 
ATOM      3  C   UNL     1      -3.333  11.553  17.965  0.00  0.00    +0.000 A 
ATOM      4  C   UNL     1      -2.949  12.038  19.221  0.00  0.00    +0.000 A 
ATOM      5  C   UNL     1      -3.922  12.550  20.092  0.00  0.00    +0.000 A 
ATOM      6  C   UNL     1      -5.268  12.615  19.713  0.00  0.00    +0.000 A 
ATOM      7  C   UNL     1      -1.479  12.027  19.621  0.00  0.00    +0.000 C 
ATOM      8  N   UNL     1      -0.755  10.835  19.112  0.00  0.00    +0.000 N 
ATOM      9  C   UNL     1       0.321  10.390  19.889  0.00  0.00    +0.000 C 
ATOM     10  O   UNL     1       0.589  10.876  20.987  0.00  0.00    +0.000 OA
ATOM     11  C   UNL     1      -1.383  10.056  18.026  0.00  0.00    +0.000 C 
ATOM     12  C   UNL     1      -2.283  10.897  17.115  0.00  0.00    +0.000 C 
ENDROOT
BRANCH   9  13
ATOM     13  C   UNL     1       1.232   9.334  19.385  0.00  0.00    +0.000 A 
ATOM     14  C   UNL     1       1.828   9.488  18.130  0.00  0.00    +0.000 A 
ATOM     15  C   UNL     1       2.618   8.463  17.605  0.00  0.00    +0.000 A 
ATOM     16  C   UNL     1       2.820   7.290  18.334  0.00  0.00    +0.000 A 
ATOM     17  C   UNL     1       2.210   7.118  19.581  0.00  0.00    +0.000 A 
ATOM     18  C   UNL     1       2.426   5.877  20.397  0.00  0.00    +0.000 C 
ATOM     19  C   UNL     1       1.386   8.132  20.083  0.00  0.00    +0.000 A 
ENDBRANCH   9  13
BRANCH   1  21
ATOM     20  C   UNL     1      -7.202  13.321  17.031  0.00  0.00    +0.000 C 
ATOM     21  O   UNL     1      -6.894  12.219  17.879  0.00  0.00    +0.000 OA
ENDBRANCH   1  21
BRANCH   6  22
ATOM     22  O   UNL     1      -6.266  13.034  20.549  0.00  0.00    +0.000 OA
ATOM     23  C   UNL     1      -7.001  12.056  21.271  0.00  0.00    +0.000 C 
ENDBRANCH   6  22
BRANCH   7  24
ATOM     24  C   UNL     1      -0.769  13.310  19.117  0.00  0.00    +0.000 C 
BRANCH  24  25
ATOM     25  O   UNL     1       0.410  12.996  18.365  0.00  0.00    +0.000 OA
BRANCH  25  26
ATOM     26  C   UNL     1       1.509  13.774  18.612  0.00  0.00    +0.000 A 
ATOM     27  C   UNL     1       1.298  14.851  19.471  0.00  0.00    +0.000 A 
ATOM     28  C   UNL     1       2.340  15.734  19.801  0.00  0.00    +0.000 A 
ATOM     29  C   UNL     1       3.625  15.556  19.270  0.00  0.00    +0.000 A 
ATOM     30  C   UNL     1       4.771  16.437  19.541  0.00  0.00    +0.000 A 
ATOM     31  C   UNL     1       4.681  17.644  20.430  0.00  0.00    +0.000 C 
ATOM     32  C   UNL     1       5.943  16.149  18.959  0.00  0.00    +0.000 A 
ATOM     33  C   UNL     1       6.154  14.999  18.063  0.00  0.00    +0.000 A 
ATOM     34  O   UNL     1       7.249  14.789  17.555  0.00  0.00    +0.000 OA
ATOM     35  O   UNL     1       5.060  14.188  17.830  0.00  0.00    +0.000 OA
ATOM     36  C   UNL     1       3.810  14.465  18.418  0.00  0.00    +0.000 A 
ATOM     37  C   UNL     1       2.784  13.576  18.089  0.00  0.00    +0.000 A 
ENDBRANCH  25  26
ENDBRANCH  24  25
ENDBRANCH   7  24
TORSDOF 6
ENDMDL
