MODEL 1
REMARK VINA RESULT:      -8.4      0.000      0.000
REMARK  Name = 
REMARK  3 active torsions:
REMARK  status: ('A' for Active; 'I' for Inactive)
REMARK    1  A    between atoms: C_2  and  C_3
REMARK    2  A    between atoms: C_3  and  N_4
REMARK    3  A    between atoms: C_8  and  C_10
REMARK                            x       y       z     vdW  Elec       q    Type
REMARK                         _______ _______ _______ _____ _____    ______ ____
ROOT
ATOM      1  N   UNL     1       3.654   5.269  18.792  0.00  0.00    +0.000 NA
ATOM      2  C   UNL     1       5.059   5.542  19.194  0.00  0.00    +0.000 C 
ATOM      3  C   UNL     1       6.141   4.674  18.513  0.00  0.00    +0.000 C 
ATOM      4  N   UNL     1       5.958   4.606  17.061  0.00  0.00    +0.000 N 
ATOM      5  C   UNL     1       7.099   4.427  16.279  0.00  0.00    +0.000 C 
ATOM      6  O   UNL     1       8.221   4.300  16.766  0.00  0.00    +0.000 OA
ATOM      7  C   UNL     1       4.580   4.319  16.632  0.00  0.00    +0.000 C 
ATOM      8  C   UNL     1       3.603   5.293  17.311  0.00  0.00    +0.000 C 
ENDROOT
BRANCH   1   9
ATOM      9  C   UNL     1       2.990   4.086  19.445  0.00  0.00    +0.000 C 
ATOM     10  C   UNL     1       2.309   4.541  20.772  0.00  0.00    +0.000 C 
ATOM     11  C   UNL     1       1.476   3.436  21.430  0.00  0.00    +0.000 C 
ATOM     12  C   UNL     1       0.433   2.855  20.486  0.00  0.00    +0.000 C 
ATOM     13  C   UNL     1       1.022   2.435  19.147  0.00  0.00    +0.000 C 
ATOM     14  C   UNL     1       1.863   3.546  18.515  0.00  0.00    +0.000 C 
BRANCH   9  16
ATOM     15  N   UNL     1       4.633   2.095  20.069  0.00  0.00    +0.000 NA
ATOM     16  C   UNL     1       3.903   2.956  19.780  0.00  0.00    +0.000 C 
ENDBRANCH   9  16
ENDBRANCH   1   9
BRANCH   5  17
ATOM     17  C   UNL     1       6.985   4.409  14.795  0.00  0.00    +0.000 A 
ATOM     18  C   UNL     1       6.053   3.601  14.135  0.00  0.00    +0.000 A 
ATOM     19  C   UNL     1       6.044   3.528  12.744  0.00  0.00    +0.000 A 
ATOM     20  C   UNL     1       6.896   4.349  12.003  0.00  0.00    +0.000 A 
ATOM     21  C   UNL     1       7.749   5.240  12.656  0.00  0.00    +0.000 A 
ATOM     22  C   UNL     1       7.802   5.265  14.051  0.00  0.00    +0.000 A 
ENDBRANCH   5  17
TORSDOF 3
ENDMDL
MODEL 2
REMARK VINA RESULT:      -8.1      0.091      1.034
REMARK  Name = 
REMARK  3 active torsions:
REMARK  status: ('A' for Active; 'I' for Inactive)
REMARK    1  A    between atoms: C_2  and  C_3
REMARK    2  A    between atoms: C_3  and  N_4
REMARK    3  A    between atoms: C_8  and  C_10
REMARK                            x       y       z     vdW  Elec       q    Type
REMARK                         _______ _______ _______ _____ _____    ______ ____
ROOT
ATOM      1  N   UNL     1       3.689   5.276  18.771  0.00  0.00    +0.000 NA
ATOM      2  C   UNL     1       5.093   5.530  19.187  0.00  0.00    +0.000 C 
ATOM      3  C   UNL     1       6.172   4.659  18.507  0.00  0.00    +0.000 C 
ATOM      4  N   UNL     1       6.001   4.607  17.053  0.00  0.00    +0.000 N 
ATOM      5  C   UNL     1       7.146   4.423  16.278  0.00  0.00    +0.000 C 
ATOM      6  O   UNL     1       8.263   4.280  16.774  0.00  0.00    +0.000 OA
ATOM      7  C   UNL     1       4.624   4.338  16.610  0.00  0.00    +0.000 C 
ATOM      8  C   UNL     1       3.651   5.315  17.289  0.00  0.00    +0.000 C 
ENDROOT
BRANCH   1   9
ATOM      9  C   UNL     1       3.008   4.094  19.407  0.00  0.00    +0.000 C 
ATOM     10  C   UNL     1       2.254   4.558  20.690  0.00  0.00    +0.000 C 
ATOM     11  C   UNL     1       1.403   3.451  21.321  0.00  0.00    +0.000 C 
ATOM     12  C   UNL     1       0.417   2.843  20.334  0.00  0.00    +0.000 C 
ATOM     13  C   UNL     1       1.078   2.412  19.033  0.00  0.00    +0.000 C 
ATOM     14  C   UNL     1       1.936   3.525  18.428  0.00  0.00    +0.000 C 
BRANCH   9  16
ATOM     15  N   UNL     1       4.596   2.085  20.112  0.00  0.00    +0.000 NA
ATOM     16  C   UNL     1       3.917   2.980  19.804  0.00  0.00    +0.000 C 
ENDBRANCH   9  16
ENDBRANCH   1   9
BRANCH   5  17
ATOM     17  C   UNL     1       7.045   4.421  14.794  0.00  0.00    +0.000 A 
ATOM     18  C   UNL     1       7.859   5.229  13.995  0.00  0.00    +0.000 A 
ATOM     19  C   UNL     1       7.665   5.283  12.616  0.00  0.00    +0.000 A 
ATOM     20  C   UNL     1       6.727   4.440  12.018  0.00  0.00    +0.000 A 
ATOM     21  C   UNL     1       5.990   3.548  12.798  0.00  0.00    +0.000 A 
ATOM     22  C   UNL     1       6.140   3.543  14.187  0.00  0.00    +0.000 A 
ENDBRANCH   5  17
TORSDOF 3
ENDMDL
MODEL 3
REMARK VINA RESULT:      -7.9      0.954      1.233
REMARK  Name = 
REMARK  3 active torsions:
REMARK  status: ('A' for Active; 'I' for Inactive)
REMARK    1  A    between atoms: C_2  and  C_3
REMARK    2  A    between atoms: C_3  and  N_4
REMARK    3  A    between atoms: C_8  and  C_10
REMARK                            x       y       z     vdW  Elec       q    Type
REMARK                         _______ _______ _______ _____ _____    ______ ____
ROOT
ATOM      1  N   UNL     1       3.551   5.309  18.673  0.00  0.00    +0.000 NA
ATOM      2  C   UNL     1       4.945   5.512  19.147  0.00  0.00    +0.000 C 
ATOM      3  C   UNL     1       6.024   4.627  18.486  0.00  0.00    +0.000 C 
ATOM      4  N   UNL     1       5.906   4.616  17.025  0.00  0.00    +0.000 N 
ATOM      5  C   UNL     1       7.075   4.419  16.289  0.00  0.00    +0.000 C 
ATOM      6  O   UNL     1       8.167   4.231  16.821  0.00  0.00    +0.000 OA
ATOM      7  C   UNL     1       4.540   4.398  16.525  0.00  0.00    +0.000 C 
ATOM      8  C   UNL     1       3.570   5.387  17.193  0.00  0.00    +0.000 C 
ENDROOT
BRANCH   1   9
ATOM      9  C   UNL     1       2.814   4.132  19.253  0.00  0.00    +0.000 C 
ATOM     10  C   UNL     1       3.674   3.485  20.381  0.00  0.00    +0.000 C 
ATOM     11  C   UNL     1       2.938   2.372  21.135  0.00  0.00    +0.000 C 
ATOM     12  C   UNL     1       1.606   2.840  21.704  0.00  0.00    +0.000 C 
ATOM     13  C   UNL     1       0.733   3.528  20.666  0.00  0.00    +0.000 C 
ATOM     14  C   UNL     1       1.490   4.624  19.913  0.00  0.00    +0.000 C 
BRANCH   9  16
ATOM     15  N   UNL     1       2.181   2.232  17.509  0.00  0.00    +0.000 NA
ATOM     16  C   UNL     1       2.478   3.055  18.278  0.00  0.00    +0.000 C 
ENDBRANCH   9  16
ENDBRANCH   1   9
BRANCH   5  17
ATOM     17  C   UNL     1       7.029   4.456  14.802  0.00  0.00    +0.000 A 
ATOM     18  C   UNL     1       6.174   3.629  14.067  0.00  0.00    +0.000 A 
ATOM     19  C   UNL     1       6.232   3.612  12.676  0.00  0.00    +0.000 A 
ATOM     20  C   UNL     1       7.070   4.507  12.009  0.00  0.00    +0.000 A 
ATOM     21  C   UNL     1       7.843   5.415  12.735  0.00  0.00    +0.000 A 
ATOM     22  C   UNL     1       7.831   5.385  14.131  0.00  0.00    +0.000 A 
ENDBRANCH   5  17
TORSDOF 3
ENDMDL
MODEL 4
REMARK VINA RESULT:      -7.6      1.079      1.912
REMARK  Name = 
REMARK  3 active torsions:
REMARK  status: ('A' for Active; 'I' for Inactive)
REMARK    1  A    between atoms: C_2  and  C_3
REMARK    2  A    between atoms: C_3  and  N_4
REMARK    3  A    between atoms: C_8  and  C_10
REMARK                            x       y       z     vdW  Elec       q    Type
REMARK                         _______ _______ _______ _____ _____    ______ ____
ROOT
ATOM      1  N   UNL     1       3.719   5.707  18.663  0.00  0.00    +0.000 NA
ATOM      2  C   UNL     1       5.123   5.760  19.148  0.00  0.00    +0.000 C 
ATOM      3  C   UNL     1       6.107   4.766  18.491  0.00  0.00    +0.000 C 
ATOM      4  N   UNL     1       5.999   4.771  17.030  0.00  0.00    +0.000 N 
ATOM      5  C   UNL     1       7.146   4.453  16.301  0.00  0.00    +0.000 C 
ATOM      6  O   UNL     1       8.208   4.149  16.840  0.00  0.00    +0.000 OA
ATOM      7  C   UNL     1       4.621   4.701  16.519  0.00  0.00    +0.000 C 
ATOM      8  C   UNL     1       3.756   5.785  17.183  0.00  0.00    +0.000 C 
ENDROOT
BRANCH   1   9
ATOM      9  C   UNL     1       2.856   4.613  19.234  0.00  0.00    +0.000 C 
ATOM     10  C   UNL     1       3.761   3.440  19.722  0.00  0.00    +0.000 C 
ATOM     11  C   UNL     1       2.981   2.346  20.459  0.00  0.00    +0.000 C 
ATOM     12  C   UNL     1       2.173   2.896  21.625  0.00  0.00    +0.000 C 
ATOM     13  C   UNL     1       1.302   4.079  21.231  0.00  0.00    +0.000 C 
ATOM     14  C   UNL     1       2.095   5.152  20.482  0.00  0.00    +0.000 C 
BRANCH   9  16
ATOM     15  N   UNL     1       1.082   3.621  17.525  0.00  0.00    +0.000 NA
ATOM     16  C   UNL     1       1.857   4.039  18.288  0.00  0.00    +0.000 C 
ENDBRANCH   9  16
ENDBRANCH   1   9
BRANCH   5  17
ATOM     17  C   UNL     1       7.115   4.498  14.814  0.00  0.00    +0.000 A 
ATOM     18  C   UNL     1       7.927   5.371  14.083  0.00  0.00    +0.000 A 
ATOM     19  C   UNL     1       7.797   5.465  12.700  0.00  0.00    +0.000 A 
ATOM     20  C   UNL     1       6.929   4.602  12.028  0.00  0.00    +0.000 A 
ATOM     21  C   UNL     1       6.200   3.649  12.741  0.00  0.00    +0.000 A 
ATOM     22  C   UNL     1       6.283   3.602  14.134  0.00  0.00    +0.000 A 
ENDBRANCH   5  17
TORSDOF 3
ENDMDL
MODEL 5
REMARK VINA RESULT:      -7.3      1.220      1.792
REMARK  Name = 
REMARK  3 active torsions:
REMARK  status: ('A' for Active; 'I' for Inactive)
REMARK    1  A    between atoms: C_2  and  C_3
REMARK    2  A    between atoms: C_3  and  N_4
REMARK    3  A    between atoms: C_8  and  C_10
REMARK                            x       y       z     vdW  Elec       q    Type
REMARK                         _______ _______ _______ _____ _____    ______ ____
ROOT
ATOM      1  N   UNL     1       3.822   5.995  18.591  0.00  0.00    +0.000 NA
ATOM      2  C   UNL     1       5.235   5.949  19.051  0.00  0.00    +0.000 C 
ATOM      3  C   UNL     1       6.128   4.871  18.397  0.00  0.00    +0.000 C 
ATOM      4  N   UNL     1       5.995   4.859  16.938  0.00  0.00    +0.000 N 
ATOM      5  C   UNL     1       7.101   4.441  16.197  0.00  0.00    +0.000 C 
ATOM      6  O   UNL     1       8.146   4.067  16.724  0.00  0.00    +0.000 OA
ATOM      7  C   UNL     1       4.607   4.885  16.452  0.00  0.00    +0.000 C 
ATOM      8  C   UNL     1       3.839   6.044  17.110  0.00  0.00    +0.000 C 
ENDROOT
BRANCH   1   9
ATOM      9  C   UNL     1       2.889   4.980  19.197  0.00  0.00    +0.000 C 
ATOM     10  C   UNL     1       1.986   4.375  18.080  0.00  0.00    +0.000 C 
ATOM     11  C   UNL     1       1.108   3.221  18.577  0.00  0.00    +0.000 C 
ATOM     12  C   UNL     1       1.920   2.117  19.238  0.00  0.00    +0.000 C 
ATOM     13  C   UNL     1       2.865   2.644  20.308  0.00  0.00    +0.000 C 
ATOM     14  C   UNL     1       3.720   3.806  19.798  0.00  0.00    +0.000 C 
BRANCH   9  16
ATOM     15  N   UNL     1       1.265   5.942  21.064  0.00  0.00    +0.000 NA
ATOM     16  C   UNL     1       1.988   5.508  20.261  0.00  0.00    +0.000 C 
ENDBRANCH   9  16
ENDBRANCH   1   9
BRANCH   5  17
ATOM     17  C   UNL     1       7.047   4.463  14.710  0.00  0.00    +0.000 A 
ATOM     18  C   UNL     1       6.190   3.625  13.988  0.00  0.00    +0.000 A 
ATOM     19  C   UNL     1       6.241   3.595  12.596  0.00  0.00    +0.000 A 
ATOM     20  C   UNL     1       7.073   4.485  11.916  0.00  0.00    +0.000 A 
ATOM     21  C   UNL     1       7.846   5.403  12.629  0.00  0.00    +0.000 A 
ATOM     22  C   UNL     1       7.842   5.387  14.025  0.00  0.00    +0.000 A 
ENDBRANCH   5  17
TORSDOF 3
ENDMDL
MODEL 6
REMARK VINA RESULT:      -7.1      1.219      2.061
REMARK  Name = 
REMARK  3 active torsions:
REMARK  status: ('A' for Active; 'I' for Inactive)
REMARK    1  A    between atoms: C_2  and  C_3
REMARK    2  A    between atoms: C_3  and  N_4
REMARK    3  A    between atoms: C_8  and  C_10
REMARK                            x       y       z     vdW  Elec       q    Type
REMARK                         _______ _______ _______ _____ _____    ______ ____
ROOT
ATOM      1  N   UNL     1       3.774   5.998  18.585  0.00  0.00    +0.000 NA
ATOM      2  C   UNL     1       5.178   5.975  19.072  0.00  0.00    +0.000 C 
ATOM      3  C   UNL     1       6.099   4.905  18.445  0.00  0.00    +0.000 C 
ATOM      4  N   UNL     1       5.994   4.878  16.983  0.00  0.00    +0.000 N 
ATOM      5  C   UNL     1       7.119   4.470  16.267  0.00  0.00    +0.000 C 
ATOM      6  O   UNL     1       8.159   4.114  16.817  0.00  0.00    +0.000 OA
ATOM      7  C   UNL     1       4.615   4.882  16.470  0.00  0.00    +0.000 C 
ATOM      8  C   UNL     1       3.819   6.035  17.103  0.00  0.00    +0.000 C 
ENDROOT
BRANCH   1   9
ATOM      9  C   UNL     1       2.844   4.976  19.181  0.00  0.00    +0.000 C 
ATOM     10  C   UNL     1       1.921   4.401  18.064  0.00  0.00    +0.000 C 
ATOM     11  C   UNL     1       1.043   3.241  18.548  0.00  0.00    +0.000 C 
ATOM     12  C   UNL     1       1.858   2.119  19.174  0.00  0.00    +0.000 C 
ATOM     13  C   UNL     1       2.821   2.617  20.241  0.00  0.00    +0.000 C 
ATOM     14  C   UNL     1       3.676   3.785  19.745  0.00  0.00    +0.000 C 
BRANCH   9  16
ATOM     15  N   UNL     1       1.249   5.905  21.091  0.00  0.00    +0.000 NA
ATOM     16  C   UNL     1       1.960   5.486  20.269  0.00  0.00    +0.000 C 
ENDBRANCH   9  16
ENDBRANCH   1   9
BRANCH   5  17
ATOM     17  C   UNL     1       7.093   4.478  14.779  0.00  0.00    +0.000 A 
ATOM     18  C   UNL     1       7.932   5.308  14.029  0.00  0.00    +0.000 A 
ATOM     19  C   UNL     1       7.808   5.370  12.643  0.00  0.00    +0.000 A 
ATOM     20  C   UNL     1       6.918   4.516  11.991  0.00  0.00    +0.000 A 
ATOM     21  C   UNL     1       6.159   3.604  12.726  0.00  0.00    +0.000 A 
ATOM     22  C   UNL     1       6.237   3.589  14.120  0.00  0.00    +0.000 A 
ENDBRANCH   5  17
TORSDOF 3
ENDMDL
MODEL 7
REMARK VINA RESULT:      -6.5      4.201      6.719
REMARK  Name = 
REMARK  3 active torsions:
REMARK  status: ('A' for Active; 'I' for Inactive)
REMARK    1  A    between atoms: C_2  and  C_3
REMARK    2  A    between atoms: C_3  and  N_4
REMARK    3  A    between atoms: C_8  and  C_10
REMARK                            x       y       z     vdW  Elec       q    Type
REMARK                         _______ _______ _______ _____ _____    ______ ____
ROOT
ATOM      1  N   UNL     1       3.323   5.257  20.370  0.00  0.00    +0.000 NA
ATOM      2  C   UNL     1       4.137   5.975  19.354  0.00  0.00    +0.000 C 
ATOM      3  C   UNL     1       3.348   6.726  18.258  0.00  0.00    +0.000 C 
ATOM      4  N   UNL     1       2.271   7.546  18.821  0.00  0.00    +0.000 N 
ATOM      5  C   UNL     1       1.904   8.693  18.117  0.00  0.00    +0.000 C 
ATOM      6  O   UNL     1       2.428   9.009  17.050  0.00  0.00    +0.000 OA
ATOM      7  C   UNL     1       1.436   6.856  19.817  0.00  0.00    +0.000 C 
ATOM      8  C   UNL     1       2.324   6.217  20.897  0.00  0.00    +0.000 C 
ENDROOT
BRANCH   1   9
ATOM      9  C   UNL     1       2.781   3.913  19.963  0.00  0.00    +0.000 C 
ATOM     10  C   UNL     1       1.650   4.107  18.908  0.00  0.00    +0.000 C 
ATOM     11  C   UNL     1       1.143   2.786  18.321  0.00  0.00    +0.000 C 
ATOM     12  C   UNL     1       2.265   1.947  17.727  0.00  0.00    +0.000 C 
ATOM     13  C   UNL     1       3.429   1.758  18.688  0.00  0.00    +0.000 C 
ATOM     14  C   UNL     1       3.910   3.086  19.276  0.00  0.00    +0.000 C 
BRANCH   9  16
ATOM     15  N   UNL     1       1.801   2.434  21.939  0.00  0.00    +0.000 NA
ATOM     16  C   UNL     1       2.215   3.098  21.076  0.00  0.00    +0.000 C 
ENDBRANCH   9  16
ENDBRANCH   1   9
BRANCH   5  17
ATOM     17  C   UNL     1       0.858   9.596  18.667  0.00  0.00    +0.000 A 
ATOM     18  C   UNL     1       1.051  10.320  19.848  0.00  0.00    +0.000 A 
ATOM     19  C   UNL     1       0.013  11.073  20.392  0.00  0.00    +0.000 A 
ATOM     20  C   UNL     1      -1.190  11.195  19.696  0.00  0.00    +0.000 A 
ATOM     21  C   UNL     1      -1.349  10.568  18.459  0.00  0.00    +0.000 A 
ATOM     22  C   UNL     1      -0.331   9.760  17.947  0.00  0.00    +0.000 A 
ENDBRANCH   5  17
TORSDOF 3
ENDMDL
MODEL 8
REMARK VINA RESULT:      -6.4      3.995      6.567
REMARK  Name = 
REMARK  3 active torsions:
REMARK  status: ('A' for Active; 'I' for Inactive)
REMARK    1  A    between atoms: C_2  and  C_3
REMARK    2  A    between atoms: C_3  and  N_4
REMARK    3  A    between atoms: C_8  and  C_10
REMARK                            x       y       z     vdW  Elec       q    Type
REMARK                         _______ _______ _______ _____ _____    ______ ____
ROOT
ATOM      1  N   UNL     1       3.660   5.280  20.098  0.00  0.00    +0.000 NA
ATOM      2  C   UNL     1       4.339   6.065  19.034  0.00  0.00    +0.000 C 
ATOM      3  C   UNL     1       3.417   6.810  18.044  0.00  0.00    +0.000 C 
ATOM      4  N   UNL     1       2.364   7.561  18.734  0.00  0.00    +0.000 N 
ATOM      5  C   UNL     1       1.881   8.710  18.107  0.00  0.00    +0.000 C 
ATOM      6  O   UNL     1       2.285   9.083  17.007  0.00  0.00    +0.000 OA
ATOM      7  C   UNL     1       1.660   6.805  19.781  0.00  0.00    +0.000 C 
ATOM      8  C   UNL     1       2.675   6.176  20.750  0.00  0.00    +0.000 C 
ENDROOT
BRANCH   1   9
ATOM      9  C   UNL     1       3.141   3.924  19.699  0.00  0.00    +0.000 C 
ATOM     10  C   UNL     1       1.825   3.623  20.479  0.00  0.00    +0.000 C 
ATOM     11  C   UNL     1       1.140   2.330  20.024  0.00  0.00    +0.000 C 
ATOM     12  C   UNL     1       0.869   2.312  18.527  0.00  0.00    +0.000 C 
ATOM     13  C   UNL     1       2.102   2.648  17.703  0.00  0.00    +0.000 C 
ATOM     14  C   UNL     1       2.781   3.933  18.182  0.00  0.00    +0.000 C 
BRANCH   9  16
ATOM     15  N   UNL     1       4.831   1.931  20.168  0.00  0.00    +0.000 NA
ATOM     16  C   UNL     1       4.076   2.791  19.951  0.00  0.00    +0.000 C 
ENDBRANCH   9  16
ENDBRANCH   1   9
BRANCH   5  17
ATOM     17  C   UNL     1       0.854   9.548  18.785  0.00  0.00    +0.000 A 
ATOM     18  C   UNL     1      -0.330   9.928  18.145  0.00  0.00    +0.000 A 
ATOM     19  C   UNL     1      -1.220  10.799  18.769  0.00  0.00    +0.000 A 
ATOM     20  C   UNL     1      -0.982  11.206  20.083  0.00  0.00    +0.000 A 
ATOM     21  C   UNL     1       0.141  10.739  20.767  0.00  0.00    +0.000 A 
ATOM     22  C   UNL     1       1.065   9.917  20.117  0.00  0.00    +0.000 A 
ENDBRANCH   5  17
TORSDOF 3
ENDMDL
MODEL 9
REMARK VINA RESULT:      -6.4      4.190      6.657
REMARK  Name = 
REMARK  3 active torsions:
REMARK  status: ('A' for Active; 'I' for Inactive)
REMARK    1  A    between atoms: C_2  and  C_3
REMARK    2  A    between atoms: C_3  and  N_4
REMARK    3  A    between atoms: C_8  and  C_10
REMARK                            x       y       z     vdW  Elec       q    Type
REMARK                         _______ _______ _______ _____ _____    ______ ____
ROOT
ATOM      1  N   UNL     1       3.326   5.232  20.364  0.00  0.00    +0.000 NA
ATOM      2  C   UNL     1       4.143   5.951  19.351  0.00  0.00    +0.000 C 
ATOM      3  C   UNL     1       3.357   6.696  18.249  0.00  0.00    +0.000 C 
ATOM      4  N   UNL     1       2.273   7.511  18.802  0.00  0.00    +0.000 N 
ATOM      5  C   UNL     1       1.904   8.654  18.093  0.00  0.00    +0.000 C 
ATOM      6  O   UNL     1       2.434   8.971  17.029  0.00  0.00    +0.000 OA
ATOM      7  C   UNL     1       1.435   6.820  19.794  0.00  0.00    +0.000 C 
ATOM      8  C   UNL     1       2.318   6.187  20.882  0.00  0.00    +0.000 C 
ENDROOT
BRANCH   1   9
ATOM      9  C   UNL     1       2.794   3.884  19.957  0.00  0.00    +0.000 C 
ATOM     10  C   UNL     1       1.640   4.072  18.925  0.00  0.00    +0.000 C 
ATOM     11  C   UNL     1       1.139   2.748  18.337  0.00  0.00    +0.000 C 
ATOM     12  C   UNL     1       2.259   1.928  17.715  0.00  0.00    +0.000 C 
ATOM     13  C   UNL     1       3.444   1.748  18.651  0.00  0.00    +0.000 C 
ATOM     14  C   UNL     1       3.919   3.077  19.241  0.00  0.00    +0.000 C 
BRANCH   9  16
ATOM     15  N   UNL     1       1.824   2.435  21.960  0.00  0.00    +0.000 NA
ATOM     16  C   UNL     1       2.261   3.052  21.074  0.00  0.00    +0.000 C 
ENDBRANCH   9  16
ENDBRANCH   1   9
BRANCH   5  17
ATOM     17  C   UNL     1       0.850   9.554  18.634  0.00  0.00    +0.000 A 
ATOM     18  C   UNL     1      -0.363   9.757  17.967  0.00  0.00    +0.000 A 
ATOM     19  C   UNL     1      -1.284  10.687  18.445  0.00  0.00    +0.000 A 
ATOM     20  C   UNL     1      -1.042  11.338  19.657  0.00  0.00    +0.000 A 
ATOM     21  C   UNL     1       0.114  11.054  20.384  0.00  0.00    +0.000 A 
ATOM     22  C   UNL     1       1.066  10.170  19.871  0.00  0.00    +0.000 A 
ENDBRANCH   5  17
TORSDOF 3
ENDMDL
