MODEL 1
REMARK VINA RESULT:      -7.4      0.000      0.000
REMARK  Name = 
REMARK  5 active torsions:
REMARK  status: ('A' for Active; 'I' for Inactive)
REMARK    1  A    between atoms: C_2  and  C_3
REMARK    2  A    between atoms: C_3  and  C_4
REMARK    3  A    between atoms: C_4  and  S_5
REMARK    4  A    between atoms: S_5  and  C_6
REMARK    5  A    between atoms: C_16  and  C_17
REMARK                            x       y       z     vdW  Elec       q    Type
REMARK                         _______ _______ _______ _____ _____    ______ ____
ROOT
ATOM      1  O   UNL     1       3.165   6.266  19.363  0.00  0.00    +0.000 OA
ATOM      2  C   UNL     1       3.542   6.736  18.293  0.00  0.00    +0.000 C 
ATOM      3  N   UNL     1       3.033   7.843  17.665  0.00  0.00    +0.000 N 
ATOM      4  C   UNL     1       2.078   8.647  18.212  0.00  0.00    +0.000 A 
ATOM      5  N   UNL     1       1.417   9.599  17.592  0.00  0.00    +0.000 NA
ATOM      6  N   UNL     1       0.612  10.192  18.540  0.00  0.00    +0.000 NA
ATOM      7  C   UNL     1       0.857   9.583  19.688  0.00  0.00    +0.000 A 
ATOM      8  O   UNL     1       1.778   8.571  19.538  0.00  0.00    +0.000 OA
ATOM      9  H   UNL     1       3.233   8.014  16.687  0.00  0.00    +0.000 HD
ENDROOT
BRANCH   7  10
ATOM     10  C   UNL     1       0.272   9.975  20.940  0.00  0.00    +0.000 A 
ATOM     11  C   UNL     1       0.047   9.169  22.041  0.00  0.00    +0.000 A 
ATOM     12  C   UNL     1      -0.597   9.867  23.106  0.00  0.00    +0.000 A 
ATOM     13  C   UNL     1      -0.834  11.185  22.786  0.00  0.00    +0.000 A 
ATOM     14  S   UNL     1      -0.276  11.574  21.217  0.00  0.00    +0.000 S 
ENDBRANCH   7  10
BRANCH   2  15
ATOM     15  C   UNL     1       4.665   6.073  17.515  0.00  0.00    +0.000 C 
BRANCH  15  16
ATOM     16  C   UNL     1       5.134   4.759  18.130  0.00  0.00    +0.000 C 
BRANCH  16  17
ATOM     17  S   UNL     1       4.088   3.370  17.566  0.00  0.00    +0.000 S 
BRANCH  17  18
ATOM     18  C   UNL     1       2.922   3.120  18.894  0.00  0.00    +0.000 A 
ATOM     19  C   UNL     1       1.531   3.194  18.781  0.00  0.00    +0.000 A 
ATOM     20  C   UNL     1       0.720   3.037  19.911  0.00  0.00    +0.000 A 
ATOM     21  C   UNL     1       1.292   2.792  21.160  0.00  0.00    +0.000 A 
ATOM     22  C   UNL     1       2.673   2.686  21.276  0.00  0.00    +0.000 A 
ATOM     23  C   UNL     1       3.480   2.845  20.151  0.00  0.00    +0.000 A 
ENDBRANCH  17  18
ENDBRANCH  16  17
ENDBRANCH  15  16
ENDBRANCH   2  15
TORSDOF 5
ENDMDL
MODEL 2
REMARK VINA RESULT:      -7.3      0.173      1.040
REMARK  Name = 
REMARK  5 active torsions:
REMARK  status: ('A' for Active; 'I' for Inactive)
REMARK    1  A    between atoms: C_2  and  C_3
REMARK    2  A    between atoms: C_3  and  C_4
REMARK    3  A    between atoms: C_4  and  S_5
REMARK    4  A    between atoms: S_5  and  C_6
REMARK    5  A    between atoms: C_16  and  C_17
REMARK                            x       y       z     vdW  Elec       q    Type
REMARK                         _______ _______ _______ _____ _____    ______ ____
ROOT
ATOM      1  O   UNL     1       3.157   6.206  19.207  0.00  0.00    +0.000 OA
ATOM      2  C   UNL     1       3.522   6.714  18.150  0.00  0.00    +0.000 C 
ATOM      3  N   UNL     1       3.014   7.850  17.574  0.00  0.00    +0.000 N 
ATOM      4  C   UNL     1       2.077   8.641  18.168  0.00  0.00    +0.000 A 
ATOM      5  N   UNL     1       1.416   9.622  17.596  0.00  0.00    +0.000 NA
ATOM      6  N   UNL     1       0.632  10.186  18.580  0.00  0.00    +0.000 NA
ATOM      7  C   UNL     1       0.889   9.530  19.699  0.00  0.00    +0.000 A 
ATOM      8  O   UNL     1       1.797   8.515  19.494  0.00  0.00    +0.000 OA
ATOM      9  H   UNL     1       3.200   8.057  16.601  0.00  0.00    +0.000 HD
ENDROOT
BRANCH   7  10
ATOM     10  C   UNL     1       0.328   9.878  20.974  0.00  0.00    +0.000 A 
ATOM     11  C   UNL     1       0.374   9.128  22.136  0.00  0.00    +0.000 A 
ATOM     12  C   UNL     1      -0.327   9.747  23.214  0.00  0.00    +0.000 A 
ATOM     13  C   UNL     1      -0.878  10.953  22.842  0.00  0.00    +0.000 A 
ATOM     14  S   UNL     1      -0.542  11.334  21.209  0.00  0.00    +0.000 S 
ENDBRANCH   7  10
BRANCH   2  15
ATOM     15  C   UNL     1       4.626   6.071  17.329  0.00  0.00    +0.000 C 
BRANCH  15  16
ATOM     16  C   UNL     1       5.154   4.775  17.933  0.00  0.00    +0.000 C 
BRANCH  16  17
ATOM     17  S   UNL     1       4.060   3.371  17.513  0.00  0.00    +0.000 S 
BRANCH  17  18
ATOM     18  C   UNL     1       3.045   3.144  18.963  0.00  0.00    +0.000 A 
ATOM     19  C   UNL     1       3.513   2.877  20.252  0.00  0.00    +0.000 A 
ATOM     20  C   UNL     1       2.614   2.658  21.302  0.00  0.00    +0.000 A 
ATOM     21  C   UNL     1       1.238   2.718  21.074  0.00  0.00    +0.000 A 
ATOM     22  C   UNL     1       0.763   3.014  19.801  0.00  0.00    +0.000 A 
ATOM     23  C   UNL     1       1.660   3.229  18.757  0.00  0.00    +0.000 A 
ENDBRANCH  17  18
ENDBRANCH  16  17
ENDBRANCH  15  16
ENDBRANCH   2  15
TORSDOF 5
ENDMDL
MODEL 3
REMARK VINA RESULT:      -6.9      2.896      4.638
REMARK  Name = 
REMARK  5 active torsions:
REMARK  status: ('A' for Active; 'I' for Inactive)
REMARK    1  A    between atoms: C_2  and  C_3
REMARK    2  A    between atoms: C_3  and  C_4
REMARK    3  A    between atoms: C_4  and  S_5
REMARK    4  A    between atoms: S_5  and  C_6
REMARK    5  A    between atoms: C_16  and  C_17
REMARK                            x       y       z     vdW  Elec       q    Type
REMARK                         _______ _______ _______ _____ _____    ______ ____
ROOT
ATOM      1  O   UNL     1       3.093   5.683  19.746  0.00  0.00    +0.000 OA
ATOM      2  C   UNL     1       3.586   6.051  18.684  0.00  0.00    +0.000 C 
ATOM      3  N   UNL     1       3.229   7.159  17.961  0.00  0.00    +0.000 N 
ATOM      4  C   UNL     1       2.318   8.078  18.390  0.00  0.00    +0.000 A 
ATOM      5  N   UNL     1       1.795   9.045  17.672  0.00  0.00    +0.000 NA
ATOM      6  N   UNL     1       0.985   9.765  18.523  0.00  0.00    +0.000 NA
ATOM      7  C   UNL     1       1.090   9.207  19.717  0.00  0.00    +0.000 A 
ATOM      8  O   UNL     1       1.919   8.109  19.691  0.00  0.00    +0.000 OA
ATOM      9  H   UNL     1       3.512   7.252  16.993  0.00  0.00    +0.000 HD
ENDROOT
BRANCH   7  10
ATOM     10  C   UNL     1       0.458   9.726  20.898  0.00  0.00    +0.000 A 
ATOM     11  C   UNL     1       0.325   9.088  22.118  0.00  0.00    +0.000 A 
ATOM     12  C   UNL     1      -0.400   9.869  23.066  0.00  0.00    +0.000 A 
ATOM     13  C   UNL     1      -0.791  11.081  22.542  0.00  0.00    +0.000 A 
ATOM     14  S   UNL     1      -0.276  11.273  20.922  0.00  0.00    +0.000 S 
ENDBRANCH   7  10
BRANCH   2  15
ATOM     15  C   UNL     1       4.694   5.243  18.030  0.00  0.00    +0.000 C 
BRANCH  15  16
ATOM     16  C   UNL     1       5.152   5.815  16.694  0.00  0.00    +0.000 C 
BRANCH  16  17
ATOM     17  S   UNL     1       6.849   5.260  16.299  0.00  0.00    +0.000 S 
BRANCH  17  18
ATOM     18  C   UNL     1       6.769   4.757  14.589  0.00  0.00    +0.000 A 
ATOM     19  C   UNL     1       5.896   3.803  14.060  0.00  0.00    +0.000 A 
ATOM     20  C   UNL     1       5.969   3.447  12.708  0.00  0.00    +0.000 A 
ATOM     21  C   UNL     1       6.907   4.052  11.871  0.00  0.00    +0.000 A 
ATOM     22  C   UNL     1       7.760   5.025  12.381  0.00  0.00    +0.000 A 
ATOM     23  C   UNL     1       7.687   5.376  13.728  0.00  0.00    +0.000 A 
ENDBRANCH  17  18
ENDBRANCH  16  17
ENDBRANCH  15  16
ENDBRANCH   2  15
TORSDOF 5
ENDMDL
MODEL 4
REMARK VINA RESULT:      -6.8      4.321      7.834
REMARK  Name = 
REMARK  5 active torsions:
REMARK  status: ('A' for Active; 'I' for Inactive)
REMARK    1  A    between atoms: C_2  and  C_3
REMARK    2  A    between atoms: C_3  and  C_4
REMARK    3  A    between atoms: C_4  and  S_5
REMARK    4  A    between atoms: S_5  and  C_6
REMARK    5  A    between atoms: C_16  and  C_17
REMARK                            x       y       z     vdW  Elec       q    Type
REMARK                         _______ _______ _______ _____ _____    ______ ____
ROOT
ATOM      1  O   UNL     1       4.150   1.965  17.962  0.00  0.00    +0.000 OA
ATOM      2  C   UNL     1       4.376   2.741  18.886  0.00  0.00    +0.000 C 
ATOM      3  N   UNL     1       5.287   3.766  18.885  0.00  0.00    +0.000 N 
ATOM      4  C   UNL     1       6.013   4.127  17.790  0.00  0.00    +0.000 A 
ATOM      5  N   UNL     1       7.029   4.961  17.773  0.00  0.00    +0.000 NA
ATOM      6  N   UNL     1       7.409   5.082  16.454  0.00  0.00    +0.000 NA
ATOM      7  C   UNL     1       6.579   4.336  15.745  0.00  0.00    +0.000 A 
ATOM      8  O   UNL     1       5.671   3.685  16.549  0.00  0.00    +0.000 OA
ATOM      9  H   UNL     1       5.578   4.193  19.756  0.00  0.00    +0.000 HD
ENDROOT
BRANCH   7  10
ATOM     10  C   UNL     1       6.597   4.266  14.310  0.00  0.00    +0.000 A 
ATOM     11  C   UNL     1       5.714   3.576  13.500  0.00  0.00    +0.000 A 
ATOM     12  C   UNL     1       6.047   3.678  12.117  0.00  0.00    +0.000 A 
ATOM     13  C   UNL     1       7.169   4.449  11.916  0.00  0.00    +0.000 A 
ATOM     14  S   UNL     1       7.806   5.050  13.385  0.00  0.00    +0.000 S 
ENDBRANCH   7  10
BRANCH   2  15
ATOM     15  C   UNL     1       3.628   2.609  20.201  0.00  0.00    +0.000 C 
BRANCH  15  16
ATOM     16  C   UNL     1       2.208   2.078  20.040  0.00  0.00    +0.000 C 
BRANCH  16  17
ATOM     17  S   UNL     1       0.983   3.365  20.471  0.00  0.00    +0.000 S 
BRANCH  17  18
ATOM     18  C   UNL     1       1.580   4.840  19.664  0.00  0.00    +0.000 A 
ATOM     19  C   UNL     1       1.883   4.960  18.305  0.00  0.00    +0.000 A 
ATOM     20  C   UNL     1       2.403   6.157  17.797  0.00  0.00    +0.000 A 
ATOM     21  C   UNL     1       2.612   7.247  18.642  0.00  0.00    +0.000 A 
ATOM     22  C   UNL     1       2.285   7.148  19.990  0.00  0.00    +0.000 A 
ATOM     23  C   UNL     1       1.770   5.955  20.494  0.00  0.00    +0.000 A 
ENDBRANCH  17  18
ENDBRANCH  16  17
ENDBRANCH  15  16
ENDBRANCH   2  15
TORSDOF 5
ENDMDL
MODEL 5
REMARK VINA RESULT:      -6.8      2.914      4.637
REMARK  Name = 
REMARK  5 active torsions:
REMARK  status: ('A' for Active; 'I' for Inactive)
REMARK    1  A    between atoms: C_2  and  C_3
REMARK    2  A    between atoms: C_3  and  C_4
REMARK    3  A    between atoms: C_4  and  S_5
REMARK    4  A    between atoms: S_5  and  C_6
REMARK    5  A    between atoms: C_16  and  C_17
REMARK                            x       y       z     vdW  Elec       q    Type
REMARK                         _______ _______ _______ _____ _____    ______ ____
ROOT
ATOM      1  O   UNL     1       3.250   5.692  19.544  0.00  0.00    +0.000 OA
ATOM      2  C   UNL     1       3.736   6.115  18.499  0.00  0.00    +0.000 C 
ATOM      3  N   UNL     1       3.358   7.247  17.824  0.00  0.00    +0.000 N 
ATOM      4  C   UNL     1       2.430   8.129  18.292  0.00  0.00    +0.000 A 
ATOM      5  N   UNL     1       1.889   9.116  17.615  0.00  0.00    +0.000 NA
ATOM      6  N   UNL     1       1.066   9.783  18.496  0.00  0.00    +0.000 NA
ATOM      7  C   UNL     1       1.181   9.176  19.666  0.00  0.00    +0.000 A 
ATOM      8  O   UNL     1       2.031   8.096  19.593  0.00  0.00    +0.000 OA
ATOM      9  H   UNL     1       3.639   7.387  16.861  0.00  0.00    +0.000 HD
ENDROOT
BRANCH   7  10
ATOM     10  C   UNL     1       0.540   9.631  20.867  0.00  0.00    +0.000 A 
ATOM     11  C   UNL     1       0.215   8.870  21.976  0.00  0.00    +0.000 A 
ATOM     12  C   UNL     1      -0.461   9.626  22.979  0.00  0.00    +0.000 A 
ATOM     13  C   UNL     1      -0.623  10.942  22.607  0.00  0.00    +0.000 A 
ATOM     14  S   UNL     1       0.044  11.258  21.064  0.00  0.00    +0.000 S 
ENDBRANCH   7  10
BRANCH   2  15
ATOM     15  C   UNL     1       4.859   5.358  17.811  0.00  0.00    +0.000 C 
BRANCH  15  16
ATOM     16  C   UNL     1       5.382   6.053  16.560  0.00  0.00    +0.000 C 
BRANCH  16  17
ATOM     17  S   UNL     1       7.063   5.466  16.146  0.00  0.00    +0.000 S 
BRANCH  17  18
ATOM     18  C   UNL     1       6.917   4.821  14.489  0.00  0.00    +0.000 A 
ATOM     19  C   UNL     1       7.721   5.175  13.403  0.00  0.00    +0.000 A 
ATOM     20  C   UNL     1       7.471   4.643  12.132  0.00  0.00    +0.000 A 
ATOM     21  C   UNL     1       6.421   3.744  11.940  0.00  0.00    +0.000 A 
ATOM     22  C   UNL     1       5.635   3.362  13.020  0.00  0.00    +0.000 A 
ATOM     23  C   UNL     1       5.884   3.894  14.284  0.00  0.00    +0.000 A 
ENDBRANCH  17  18
ENDBRANCH  16  17
ENDBRANCH  15  16
ENDBRANCH   2  15
TORSDOF 5
ENDMDL
MODEL 6
REMARK VINA RESULT:      -6.8      2.003      3.768
REMARK  Name = 
REMARK  5 active torsions:
REMARK  status: ('A' for Active; 'I' for Inactive)
REMARK    1  A    between atoms: C_2  and  C_3
REMARK    2  A    between atoms: C_3  and  C_4
REMARK    3  A    between atoms: C_4  and  S_5
REMARK    4  A    between atoms: S_5  and  C_6
REMARK    5  A    between atoms: C_16  and  C_17
REMARK                            x       y       z     vdW  Elec       q    Type
REMARK                         _______ _______ _______ _____ _____    ______ ____
ROOT
ATOM      1  O   UNL     1       2.098   5.239  19.537  0.00  0.00    +0.000 OA
ATOM      2  C   UNL     1       2.957   5.437  18.683  0.00  0.00    +0.000 C 
ATOM      3  N   UNL     1       3.157   6.599  17.983  0.00  0.00    +0.000 N 
ATOM      4  C   UNL     1       2.468   7.751  18.223  0.00  0.00    +0.000 A 
ATOM      5  N   UNL     1       2.474   8.828  17.471  0.00  0.00    +0.000 NA
ATOM      6  N   UNL     1       1.700   9.761  18.126  0.00  0.00    +0.000 NA
ATOM      7  C   UNL     1       1.296   9.202  19.254  0.00  0.00    +0.000 A 
ATOM      8  O   UNL     1       1.744   7.905  19.365  0.00  0.00    +0.000 OA
ATOM      9  H   UNL     1       3.717   6.599  17.140  0.00  0.00    +0.000 HD
ENDROOT
BRANCH   7  10
ATOM     10  C   UNL     1       0.534   9.891  20.257  0.00  0.00    +0.000 A 
ATOM     11  C   UNL     1      -0.414  10.878  20.050  0.00  0.00    +0.000 A 
ATOM     12  C   UNL     1      -0.949  11.386  21.270  0.00  0.00    +0.000 A 
ATOM     13  C   UNL     1      -0.399  10.766  22.370  0.00  0.00    +0.000 A 
ATOM     14  S   UNL     1       0.747   9.576  21.927  0.00  0.00    +0.000 S 
ENDBRANCH   7  10
BRANCH   2  15
ATOM     15  C   UNL     1       3.922   4.332  18.291  0.00  0.00    +0.000 C 
BRANCH  15  16
ATOM     16  C   UNL     1       3.972   4.076  16.789  0.00  0.00    +0.000 C 
BRANCH  16  17
ATOM     17  S   UNL     1       5.702   3.959  16.209  0.00  0.00    +0.000 S 
BRANCH  17  18
ATOM     18  C   UNL     1       6.558   5.254  17.089  0.00  0.00    +0.000 A 
ATOM     19  C   UNL     1       6.587   6.603  16.727  0.00  0.00    +0.000 A 
ATOM     20  C   UNL     1       7.346   7.519  17.466  0.00  0.00    +0.000 A 
ATOM     21  C   UNL     1       8.071   7.095  18.580  0.00  0.00    +0.000 A 
ATOM     22  C   UNL     1       8.023   5.760  18.967  0.00  0.00    +0.000 A 
ATOM     23  C   UNL     1       7.269   4.850  18.228  0.00  0.00    +0.000 A 
ENDBRANCH  17  18
ENDBRANCH  16  17
ENDBRANCH  15  16
ENDBRANCH   2  15
TORSDOF 5
ENDMDL
MODEL 7
REMARK VINA RESULT:      -6.8      2.638      3.756
REMARK  Name = 
REMARK  5 active torsions:
REMARK  status: ('A' for Active; 'I' for Inactive)
REMARK    1  A    between atoms: C_2  and  C_3
REMARK    2  A    between atoms: C_3  and  C_4
REMARK    3  A    between atoms: C_4  and  S_5
REMARK    4  A    between atoms: S_5  and  C_6
REMARK    5  A    between atoms: C_16  and  C_17
REMARK                            x       y       z     vdW  Elec       q    Type
REMARK                         _______ _______ _______ _____ _____    ______ ____
ROOT
ATOM      1  O   UNL     1      -0.258  10.290  18.041  0.00  0.00    +0.000 OA
ATOM      2  C   UNL     1       0.671   9.748  18.634  0.00  0.00    +0.000 C 
ATOM      3  N   UNL     1       1.025   9.942  19.944  0.00  0.00    +0.000 N 
ATOM      4  C   UNL     1       0.310  10.712  20.811  0.00  0.00    +0.000 A 
ATOM      5  N   UNL     1       0.694  11.090  22.010  0.00  0.00    +0.000 NA
ATOM      6  N   UNL     1      -0.362  11.789  22.552  0.00  0.00    +0.000 NA
ATOM      7  C   UNL     1      -1.338  11.766  21.659  0.00  0.00    +0.000 A 
ATOM      8  O   UNL     1      -0.959  11.103  20.514  0.00  0.00    +0.000 OA
ATOM      9  H   UNL     1       1.935   9.647  20.277  0.00  0.00    +0.000 HD
ENDROOT
BRANCH   7  10
ATOM     10  C   UNL     1      -2.643  12.318  21.890  0.00  0.00    +0.000 A 
ATOM     11  C   UNL     1      -3.301  12.419  23.102  0.00  0.00    +0.000 A 
ATOM     12  C   UNL     1      -4.608  12.974  22.971  0.00  0.00    +0.000 A 
ATOM     13  C   UNL     1      -4.903  13.288  21.662  0.00  0.00    +0.000 A 
ATOM     14  S   UNL     1      -3.607  12.920  20.609  0.00  0.00    +0.000 S 
ENDBRANCH   7  10
BRANCH   2  15
ATOM     15  C   UNL     1       1.576   8.767  17.909  0.00  0.00    +0.000 C 
BRANCH  15  16
ATOM     16  C   UNL     1       2.364   7.862  18.850  0.00  0.00    +0.000 C 
BRANCH  16  17
ATOM     17  S   UNL     1       3.062   6.436  17.944  0.00  0.00    +0.000 S 
BRANCH  17  18
ATOM     18  C   UNL     1       2.227   5.016  18.630  0.00  0.00    +0.000 A 
ATOM     19  C   UNL     1       1.815   3.889  17.915  0.00  0.00    +0.000 A 
ATOM     20  C   UNL     1       1.112   2.861  18.555  0.00  0.00    +0.000 A 
ATOM     21  C   UNL     1       0.827   2.947  19.918  0.00  0.00    +0.000 A 
ATOM     22  C   UNL     1       1.260   4.050  20.645  0.00  0.00    +0.000 A 
ATOM     23  C   UNL     1       1.958   5.073  20.005  0.00  0.00    +0.000 A 
ENDBRANCH  17  18
ENDBRANCH  16  17
ENDBRANCH  15  16
ENDBRANCH   2  15
TORSDOF 5
ENDMDL
MODEL 8
REMARK VINA RESULT:      -6.8      2.452      4.147
REMARK  Name = 
REMARK  5 active torsions:
REMARK  status: ('A' for Active; 'I' for Inactive)
REMARK    1  A    between atoms: C_2  and  C_3
REMARK    2  A    between atoms: C_3  and  C_4
REMARK    3  A    between atoms: C_4  and  S_5
REMARK    4  A    between atoms: S_5  and  C_6
REMARK    5  A    between atoms: C_16  and  C_17
REMARK                            x       y       z     vdW  Elec       q    Type
REMARK                         _______ _______ _______ _____ _____    ______ ____
ROOT
ATOM      1  O   UNL     1       2.604   7.703  18.495  0.00  0.00    +0.000 OA
ATOM      2  C   UNL     1       2.471   6.941  19.448  0.00  0.00    +0.000 C 
ATOM      3  N   UNL     1       1.991   7.267  20.690  0.00  0.00    +0.000 N 
ATOM      4  C   UNL     1       1.493   8.495  21.008  0.00  0.00    +0.000 A 
ATOM      5  N   UNL     1       1.200   8.925  22.214  0.00  0.00    +0.000 NA
ATOM      6  N   UNL     1       0.665  10.185  22.057  0.00  0.00    +0.000 NA
ATOM      7  C   UNL     1       0.636  10.431  20.758  0.00  0.00    +0.000 A 
ATOM      8  O   UNL     1       1.170   9.389  20.034  0.00  0.00    +0.000 OA
ATOM      9  H   UNL     1       2.142   6.646  21.476  0.00  0.00    +0.000 HD
ENDROOT
BRANCH   7  10
ATOM     10  C   UNL     1       0.065  11.617  20.183  0.00  0.00    +0.000 A 
ATOM     11  C   UNL     1       0.552  12.338  19.108  0.00  0.00    +0.000 A 
ATOM     12  C   UNL     1      -0.233  13.494  18.825  0.00  0.00    +0.000 A 
ATOM     13  C   UNL     1      -1.300  13.614  19.688  0.00  0.00    +0.000 A 
ATOM     14  S   UNL     1      -1.352  12.335  20.822  0.00  0.00    +0.000 S 
ENDBRANCH   7  10
BRANCH   2  15
ATOM     15  C   UNL     1       2.873   5.481  19.327  0.00  0.00    +0.000 C 
BRANCH  15  16
ATOM     16  C   UNL     1       2.782   4.944  17.904  0.00  0.00    +0.000 C 
BRANCH  16  17
ATOM     17  S   UNL     1       4.320   4.070  17.442  0.00  0.00    +0.000 S 
BRANCH  17  18
ATOM     18  C   UNL     1       5.614   5.269  17.707  0.00  0.00    +0.000 A 
ATOM     19  C   UNL     1       5.755   6.480  17.023  0.00  0.00    +0.000 A 
ATOM     20  C   UNL     1       6.850   7.314  17.278  0.00  0.00    +0.000 A 
ATOM     21  C   UNL     1       7.806   6.951  18.227  0.00  0.00    +0.000 A 
ATOM     22  C   UNL     1       7.658   5.763  18.934  0.00  0.00    +0.000 A 
ATOM     23  C   UNL     1       6.569   4.933  18.678  0.00  0.00    +0.000 A 
ENDBRANCH  17  18
ENDBRANCH  16  17
ENDBRANCH  15  16
ENDBRANCH   2  15
TORSDOF 5
ENDMDL
MODEL 9
REMARK VINA RESULT:      -6.8      2.363      3.363
REMARK  Name = 
REMARK  5 active torsions:
REMARK  status: ('A' for Active; 'I' for Inactive)
REMARK    1  A    between atoms: C_2  and  C_3
REMARK    2  A    between atoms: C_3  and  C_4
REMARK    3  A    between atoms: C_4  and  S_5
REMARK    4  A    between atoms: S_5  and  C_6
REMARK    5  A    between atoms: C_16  and  C_17
REMARK                            x       y       z     vdW  Elec       q    Type
REMARK                         _______ _______ _______ _____ _____    ______ ____
ROOT
ATOM      1  O   UNL     1       1.414   9.125  19.230  0.00  0.00    +0.000 OA
ATOM      2  C   UNL     1       1.732   8.295  20.076  0.00  0.00    +0.000 C 
ATOM      3  N   UNL     1       1.473   8.362  21.421  0.00  0.00    +0.000 N 
ATOM      4  C   UNL     1       0.723   9.343  21.996  0.00  0.00    +0.000 A 
ATOM      5  N   UNL     1       0.600   9.572  23.284  0.00  0.00    +0.000 NA
ATOM      6  N   UNL     1      -0.303  10.605  23.409  0.00  0.00    +0.000 NA
ATOM      7  C   UNL     1      -0.698  10.922  22.187  0.00  0.00    +0.000 A 
ATOM      8  O   UNL     1      -0.061  10.157  21.236  0.00  0.00    +0.000 OA
ATOM      9  H   UNL     1       1.975   7.767  22.069  0.00  0.00    +0.000 HD
ENDROOT
BRANCH   7  10
ATOM     10  C   UNL     1      -1.707  11.903  21.905  0.00  0.00    +0.000 A 
ATOM     11  C   UNL     1      -2.721  12.320  22.749  0.00  0.00    +0.000 A 
ATOM     12  C   UNL     1      -3.584  13.276  22.136  0.00  0.00    +0.000 A 
ATOM     13  C   UNL     1      -3.195  13.564  20.846  0.00  0.00    +0.000 A 
ATOM     14  S   UNL     1      -1.797  12.693  20.388  0.00  0.00    +0.000 S 
ENDBRANCH   7  10
BRANCH   2  15
ATOM     15  C   UNL     1       2.505   7.049  19.679  0.00  0.00    +0.000 C 
BRANCH  15  16
ATOM     16  C   UNL     1       2.447   6.751  18.185  0.00  0.00    +0.000 C 
BRANCH  16  17
ATOM     17  S   UNL     1       3.115   5.086  17.830  0.00  0.00    +0.000 S 
BRANCH  17  18
ATOM     18  C   UNL     1       2.632   4.101  19.237  0.00  0.00    +0.000 A 
ATOM     19  C   UNL     1       3.504   3.465  20.125  0.00  0.00    +0.000 A 
ATOM     20  C   UNL     1       3.004   2.666  21.160  0.00  0.00    +0.000 A 
ATOM     21  C   UNL     1       1.627   2.507  21.324  0.00  0.00    +0.000 A 
ATOM     22  C   UNL     1       0.751   3.161  20.465  0.00  0.00    +0.000 A 
ATOM     23  C   UNL     1       1.251   3.953  19.433  0.00  0.00    +0.000 A 
ENDBRANCH  17  18
ENDBRANCH  16  17
ENDBRANCH  15  16
ENDBRANCH   2  15
TORSDOF 5
ENDMDL
