MODEL 1
REMARK VINA RESULT:      -6.0      0.000      0.000
REMARK  Name = 
REMARK  8 active torsions:
REMARK  status: ('A' for Active; 'I' for Inactive)
REMARK    1  A    between atoms: P_2  and  O_3
REMARK    2  A    between atoms: P_2  and  O_4
REMARK    3  A    between atoms: P_2  and  C_5
REMARK    4  A    between atoms: C_5  and  O_6
REMARK    5  A    between atoms: C_5  and  C_7
REMARK    6  A    between atoms: C_5  and  P_11
REMARK    7  A    between atoms: P_11  and  O_13
REMARK    8  A    between atoms: P_11  and  O_14
REMARK                            x       y       z     vdW  Elec       q    Type
REMARK                         _______ _______ _______ _____ _____    ______ ____
ROOT
ATOM      1  C   UNL     1       5.621   4.707  17.024  0.00  0.00    +0.000 C 
ENDROOT
BRANCH   1   2
ATOM      2  C   UNL     1       4.301   5.475  16.956  0.00  0.00    +0.000 C 
ATOM      3  C   UNL     1       3.065   4.943  17.719  0.00  0.00    +0.000 C 
ATOM      4  N   UNL     1       2.703   6.351  17.982  0.00  0.00    +0.000 NA
ATOM      5  C   UNL     1       4.124   6.731  17.839  0.00  0.00    +0.000 C 
ATOM      6  H   UNL     1       2.283   6.537  18.893  0.00  0.00    +0.000 HD
ENDBRANCH   1   2
BRANCH   1   8
ATOM      7  O   UNL     1       7.179   5.351  19.952  0.00  0.00    +0.000 OA
ATOM      8  P   UNL     1       6.465   5.056  18.610  0.00  0.00    +0.000 P 
BRANCH   8   9
ATOM      9  O   UNL     1       7.797   4.232  18.101  0.00  0.00    +0.000 OA
ATOM     10  H   UNL     1       7.480   3.434  17.632  0.00  0.00    +0.000 HD
ENDBRANCH   8   9
BRANCH   8  11
ATOM     11  O   UNL     1       5.783   3.682  19.240  0.00  0.00    +0.000 OA
ATOM     12  H   UNL     1       5.128   3.987  19.902  0.00  0.00    +0.000 HD
ENDBRANCH   8  11
ENDBRANCH   1   8
BRANCH   1  13
ATOM     13  O   UNL     1       5.268   3.291  16.916  0.00  0.00    +0.000 OA
ATOM     14  H   UNL     1       6.008   2.849  17.393  0.00  0.00    +0.000 HD
ENDBRANCH   1  13
BRANCH   1  15
ATOM     15  P   UNL     1       6.744   5.105  15.635  0.00  0.00    +0.000 P 
ATOM     16  O   UNL     1       5.596   5.667  14.798  0.00  0.00    +0.000 OA
BRANCH  15  17
ATOM     17  O   UNL     1       7.494   6.332  16.408  0.00  0.00    +0.000 OA
ATOM     18  H   UNL     1       6.922   7.111  16.545  0.00  0.00    +0.000 HD
ENDBRANCH  15  17
BRANCH  15  19
ATOM     19  O   UNL     1       7.807   5.481  14.323  0.00  0.00    +0.000 OA
ATOM     20  H   UNL     1       7.255   5.344  13.524  0.00  0.00    +0.000 HD
ENDBRANCH  15  19
ENDBRANCH   1  15
TORSDOF 8
ENDMDL
MODEL 2
REMARK VINA RESULT:      -5.7      1.411      3.557
REMARK  Name = 
REMARK  8 active torsions:
REMARK  status: ('A' for Active; 'I' for Inactive)
REMARK    1  A    between atoms: P_2  and  O_3
REMARK    2  A    between atoms: P_2  and  O_4
REMARK    3  A    between atoms: P_2  and  C_5
REMARK    4  A    between atoms: C_5  and  O_6
REMARK    5  A    between atoms: C_5  and  C_7
REMARK    6  A    between atoms: C_5  and  P_11
REMARK    7  A    between atoms: P_11  and  O_13
REMARK    8  A    between atoms: P_11  and  O_14
REMARK                            x       y       z     vdW  Elec       q    Type
REMARK                         _______ _______ _______ _____ _____    ______ ____
ROOT
ATOM      1  C   UNL     1       5.740   5.604  17.500  0.00  0.00    +0.000 C 
ENDROOT
BRANCH   1   2
ATOM      2  C   UNL     1       4.564   4.723  17.920  0.00  0.00    +0.000 C 
ATOM      3  C   UNL     1       3.118   5.253  17.773  0.00  0.00    +0.000 C 
ATOM      4  N   UNL     1       2.718   3.875  17.425  0.00  0.00    +0.000 NA
ATOM      5  C   UNL     1       4.094   3.602  16.965  0.00  0.00    +0.000 C 
ATOM      6  H   UNL     1       1.988   3.791  16.717  0.00  0.00    +0.000 HD
ENDBRANCH   1   2
BRANCH   1   8
ATOM      7  O   UNL     1       6.834   4.685  14.439  0.00  0.00    +0.000 OA
ATOM      8  P   UNL     1       6.333   5.106  15.842  0.00  0.00    +0.000 P 
BRANCH   8   9
ATOM      9  O   UNL     1       7.621   6.123  15.979  0.00  0.00    +0.000 OA
ATOM     10  H   UNL     1       7.272   7.036  15.948  0.00  0.00    +0.000 HD
ENDBRANCH   8   9
BRANCH   8  11
ATOM     11  O   UNL     1       5.388   6.298  15.180  0.00  0.00    +0.000 OA
ATOM     12  H   UNL     1       4.482   6.141  15.519  0.00  0.00    +0.000 HD
ENDBRANCH   8  11
ENDBRANCH   1   8
BRANCH   1  13
ATOM     13  O   UNL     1       5.230   6.976  17.487  0.00  0.00    +0.000 OA
ATOM     14  H   UNL     1       5.920   7.455  16.973  0.00  0.00    +0.000 HD
ENDBRANCH   1  13
BRANCH   1  15
ATOM     15  P   UNL     1       7.130   5.543  18.688  0.00  0.00    +0.000 P 
ATOM     16  O   UNL     1       6.210   5.099  19.825  0.00  0.00    +0.000 OA
BRANCH  15  17
ATOM     17  O   UNL     1       7.828   4.227  18.021  0.00  0.00    +0.000 OA
ATOM     18  H   UNL     1       8.456   4.441  17.305  0.00  0.00    +0.000 HD
ENDBRANCH  15  17
BRANCH  15  19
ATOM     19  O   UNL     1       8.445   5.485  19.811  0.00  0.00    +0.000 OA
ATOM     20  H   UNL     1       9.014   4.762  19.474  0.00  0.00    +0.000 HD
ENDBRANCH  15  19
ENDBRANCH   1  15
TORSDOF 8
ENDMDL
MODEL 3
REMARK VINA RESULT:      -5.7      1.541      3.455
REMARK  Name = 
REMARK  8 active torsions:
REMARK  status: ('A' for Active; 'I' for Inactive)
REMARK    1  A    between atoms: P_2  and  O_3
REMARK    2  A    between atoms: P_2  and  O_4
REMARK    3  A    between atoms: P_2  and  C_5
REMARK    4  A    between atoms: C_5  and  O_6
REMARK    5  A    between atoms: C_5  and  C_7
REMARK    6  A    between atoms: C_5  and  P_11
REMARK    7  A    between atoms: P_11  and  O_13
REMARK    8  A    between atoms: P_11  and  O_14
REMARK                            x       y       z     vdW  Elec       q    Type
REMARK                         _______ _______ _______ _____ _____    ______ ____
ROOT
ATOM      1  C   UNL     1       5.881   5.900  17.493  0.00  0.00    +0.000 C 
ENDROOT
BRANCH   1   2
ATOM      2  C   UNL     1       4.495   5.389  17.883  0.00  0.00    +0.000 C 
ATOM      3  C   UNL     1       4.099   3.927  17.562  0.00  0.00    +0.000 C 
ATOM      4  N   UNL     1       3.350   3.920  18.835  0.00  0.00    +0.000 NA
ATOM      5  C   UNL     1       4.238   4.981  19.352  0.00  0.00    +0.000 C 
ATOM      6  H   UNL     1       3.362   3.040  19.351  0.00  0.00    +0.000 HD
ENDBRANCH   1   2
BRANCH   1   8
ATOM      7  O   UNL     1       6.914   4.383  14.657  0.00  0.00    +0.000 OA
ATOM      8  P   UNL     1       6.441   5.078  15.956  0.00  0.00    +0.000 P 
BRANCH   8   9
ATOM      9  O   UNL     1       7.692   6.141  15.825  0.00  0.00    +0.000 OA
ATOM     10  H   UNL     1       7.326   6.974  15.464  0.00  0.00    +0.000 HD
ENDBRANCH   8   9
BRANCH   8  11
ATOM     11  O   UNL     1       5.431   6.072  15.094  0.00  0.00    +0.000 OA
ATOM     12  H   UNL     1       6.004   6.768  14.709  0.00  0.00    +0.000 HD
ENDBRANCH   8  11
ENDBRANCH   1   8
BRANCH   1  13
ATOM     13  O   UNL     1       5.736   7.343  17.295  0.00  0.00    +0.000 OA
ATOM     14  H   UNL     1       6.649   7.618  17.047  0.00  0.00    +0.000 HD
ENDBRANCH   1  13
BRANCH   1  15
ATOM     15  P   UNL     1       7.126   5.646  18.809  0.00  0.00    +0.000 P 
ATOM     16  O   UNL     1       7.719   4.436  18.088  0.00  0.00    +0.000 OA
BRANCH  15  17
ATOM     17  O   UNL     1       7.999   6.973  18.435  0.00  0.00    +0.000 OA
ATOM     18  H   UNL     1       7.474   7.675  18.007  0.00  0.00    +0.000 HD
ENDBRANCH  15  17
BRANCH  15  19
ATOM     19  O   UNL     1       8.303   5.406  20.054  0.00  0.00    +0.000 OA
ATOM     20  H   UNL     1       8.415   6.295  20.450  0.00  0.00    +0.000 HD
ENDBRANCH  15  19
ENDBRANCH   1  15
TORSDOF 8
ENDMDL
MODEL 4
REMARK VINA RESULT:      -5.7      3.069      4.740
REMARK  Name = 
REMARK  8 active torsions:
REMARK  status: ('A' for Active; 'I' for Inactive)
REMARK    1  A    between atoms: P_2  and  O_3
REMARK    2  A    between atoms: P_2  and  O_4
REMARK    3  A    between atoms: P_2  and  C_5
REMARK    4  A    between atoms: C_5  and  O_6
REMARK    5  A    between atoms: C_5  and  C_7
REMARK    6  A    between atoms: C_5  and  P_11
REMARK    7  A    between atoms: P_11  and  O_13
REMARK    8  A    between atoms: P_11  and  O_14
REMARK                            x       y       z     vdW  Elec       q    Type
REMARK                         _______ _______ _______ _____ _____    ______ ____
ROOT
ATOM      1  C   UNL     1       3.333   3.557  19.272  0.00  0.00    +0.000 C 
ENDROOT
BRANCH   1   2
ATOM      2  C   UNL     1       3.231   4.875  20.039  0.00  0.00    +0.000 C 
ATOM      3  C   UNL     1       3.064   6.203  19.261  0.00  0.00    +0.000 C 
ATOM      4  N   UNL     1       2.194   6.663  20.363  0.00  0.00    +0.000 NA
ATOM      5  C   UNL     1       1.882   5.256  20.689  0.00  0.00    +0.000 C 
ATOM      6  H   UNL     1       1.401   7.242  20.089  0.00  0.00    +0.000 HD
ENDBRANCH   1   2
BRANCH   1   8
ATOM      7  O   UNL     1       5.167   3.990  16.469  0.00  0.00    +0.000 OA
ATOM      8  P   UNL     1       4.327   3.792  17.754  0.00  0.00    +0.000 P 
BRANCH   8   9
ATOM      9  O   UNL     1       4.389   2.162  17.524  0.00  0.00    +0.000 OA
ATOM     10  H   UNL     1       3.903   1.969  16.697  0.00  0.00    +0.000 HD
ENDBRANCH   8   9
BRANCH   8  11
ATOM     11  O   UNL     1       5.699   3.771  18.686  0.00  0.00    +0.000 OA
ATOM     12  H   UNL     1       5.437   4.140  19.555  0.00  0.00    +0.000 HD
ENDBRANCH   8  11
ENDBRANCH   1   8
BRANCH   1  13
ATOM     13  O   UNL     1       3.979   2.611  20.184  0.00  0.00    +0.000 OA
ATOM     14  H   UNL     1       4.620   2.151  19.595  0.00  0.00    +0.000 HD
ENDBRANCH   1  13
BRANCH   1  15
ATOM     15  P   UNL     1       1.697   2.868  18.830  0.00  0.00    +0.000 P 
ATOM     16  O   UNL     1       1.795   3.408  17.404  0.00  0.00    +0.000 OA
BRANCH  15  17
ATOM     17  O   UNL     1       2.190   1.312  18.848  0.00  0.00    +0.000 OA
ATOM     18  H   UNL     1       1.846   0.804  19.607  0.00  0.00    +0.000 HD
ENDBRANCH  15  17
BRANCH  15  19
ATOM     19  O   UNL     1       0.150   2.215  18.412  0.00  0.00    +0.000 OA
ATOM     20  H   UNL     1      -0.339   2.200  19.262  0.00  0.00    +0.000 HD
ENDBRANCH  15  19
ENDBRANCH   1  15
TORSDOF 8
ENDMDL
MODEL 5
REMARK VINA RESULT:      -5.7      2.863      3.984
REMARK  Name = 
REMARK  8 active torsions:
REMARK  status: ('A' for Active; 'I' for Inactive)
REMARK    1  A    between atoms: P_2  and  O_3
REMARK    2  A    between atoms: P_2  and  O_4
REMARK    3  A    between atoms: P_2  and  C_5
REMARK    4  A    between atoms: C_5  and  O_6
REMARK    5  A    between atoms: C_5  and  C_7
REMARK    6  A    between atoms: C_5  and  P_11
REMARK    7  A    between atoms: P_11  and  O_13
REMARK    8  A    between atoms: P_11  and  O_14
REMARK                            x       y       z     vdW  Elec       q    Type
REMARK                         _______ _______ _______ _____ _____    ______ ____
ROOT
ATOM      1  C   UNL     1       4.163   4.678  17.697  0.00  0.00    +0.000 C 
ENDROOT
BRANCH   1   2
ATOM      2  C   UNL     1       4.624   4.869  16.253  0.00  0.00    +0.000 C 
ATOM      3  C   UNL     1       5.256   6.214  15.822  0.00  0.00    +0.000 C 
ATOM      4  N   UNL     1       6.148   5.436  14.938  0.00  0.00    +0.000 NA
ATOM      5  C   UNL     1       5.976   4.260  15.816  0.00  0.00    +0.000 C 
ATOM      6  H   UNL     1       7.101   5.788  14.849  0.00  0.00    +0.000 HD
ENDBRANCH   1   2
BRANCH   1   8
ATOM      7  O   UNL     1       6.744   5.202  19.811  0.00  0.00    +0.000 OA
ATOM      8  P   UNL     1       5.561   4.962  18.842  0.00  0.00    +0.000 P 
BRANCH   8   9
ATOM      9  O   UNL     1       5.476   3.400  19.359  0.00  0.00    +0.000 OA
ATOM     10  H   UNL     1       5.210   2.857  18.591  0.00  0.00    +0.000 HD
ENDBRANCH   8   9
BRANCH   8  11
ATOM     11  O   UNL     1       4.477   5.463  19.993  0.00  0.00    +0.000 OA
ATOM     12  H   UNL     1       4.641   4.900  20.779  0.00  0.00    +0.000 HD
ENDBRANCH   8  11
ENDBRANCH   1   8
BRANCH   1  13
ATOM     13  O   UNL     1       3.098   5.659  17.912  0.00  0.00    +0.000 OA
ATOM     14  H   UNL     1       2.316   5.088  18.098  0.00  0.00    +0.000 HD
ENDBRANCH   1  13
BRANCH   1  15
ATOM     15  P   UNL     1       3.454   3.018  18.000  0.00  0.00    +0.000 P 
ATOM     16  O   UNL     1       2.773   3.485  19.286  0.00  0.00    +0.000 OA
BRANCH  15  17
ATOM     17  O   UNL     1       2.383   3.096  16.770  0.00  0.00    +0.000 OA
ATOM     18  H   UNL     1       1.962   2.240  16.567  0.00  0.00    +0.000 HD
ENDBRANCH  15  17
BRANCH  15  19
ATOM     19  O   UNL     1       2.783   1.449  18.286  0.00  0.00    +0.000 OA
ATOM     20  H   UNL     1       2.835   1.342  19.258  0.00  0.00    +0.000 HD
ENDBRANCH  15  19
ENDBRANCH   1  15
TORSDOF 8
ENDMDL
MODEL 6
REMARK VINA RESULT:      -5.6      2.384      4.058
REMARK  Name = 
REMARK  8 active torsions:
REMARK  status: ('A' for Active; 'I' for Inactive)
REMARK    1  A    between atoms: P_2  and  O_3
REMARK    2  A    between atoms: P_2  and  O_4
REMARK    3  A    between atoms: P_2  and  C_5
REMARK    4  A    between atoms: C_5  and  O_6
REMARK    5  A    between atoms: C_5  and  C_7
REMARK    6  A    between atoms: C_5  and  P_11
REMARK    7  A    between atoms: P_11  and  O_13
REMARK    8  A    between atoms: P_11  and  O_14
REMARK                            x       y       z     vdW  Elec       q    Type
REMARK                         _______ _______ _______ _____ _____    ______ ____
ROOT
ATOM      1  C   UNL     1       4.360   3.987  18.571  0.00  0.00    +0.000 C 
ENDROOT
BRANCH   1   2
ATOM      2  C   UNL     1       3.946   5.125  19.503  0.00  0.00    +0.000 C 
ATOM      3  C   UNL     1       3.162   6.333  18.936  0.00  0.00    +0.000 C 
ATOM      4  N   UNL     1       2.422   6.370  20.214  0.00  0.00    +0.000 NA
ATOM      5  C   UNL     1       2.707   4.933  20.407  0.00  0.00    +0.000 C 
ATOM      6  H   UNL     1       1.436   6.623  20.147  0.00  0.00    +0.000 HD
ENDBRANCH   1   2
BRANCH   1   8
ATOM      7  O   UNL     1       5.202   5.224  15.542  0.00  0.00    +0.000 OA
ATOM      8  P   UNL     1       4.816   4.657  16.930  0.00  0.00    +0.000 P 
BRANCH   8   9
ATOM      9  O   UNL     1       5.528   3.228  16.527  0.00  0.00    +0.000 OA
ATOM     10  H   UNL     1       5.123   2.931  15.687  0.00  0.00    +0.000 HD
ENDBRANCH   8   9
BRANCH   8  11
ATOM     11  O   UNL     1       6.222   5.237  17.592  0.00  0.00    +0.000 OA
ATOM     12  H   UNL     1       6.272   6.180  17.331  0.00  0.00    +0.000 HD
ENDBRANCH   8  11
ENDBRANCH   1   8
BRANCH   1  13
ATOM     13  O   UNL     1       5.505   3.339  19.212  0.00  0.00    +0.000 OA
ATOM     14  H   UNL     1       5.484   3.719  20.121  0.00  0.00    +0.000 HD
ENDBRANCH   1  13
BRANCH   1  15
ATOM     15  P   UNL     1       3.052   2.723  18.372  0.00  0.00    +0.000 P 
ATOM     16  O   UNL     1       2.634   3.292  17.016  0.00  0.00    +0.000 OA
BRANCH  15  17
ATOM     17  O   UNL     1       4.088   1.485  18.136  0.00  0.00    +0.000 OA
ATOM     18  H   UNL     1       4.240   1.279  17.194  0.00  0.00    +0.000 HD
ENDBRANCH  15  17
BRANCH  15  19
ATOM     19  O   UNL     1       1.815   1.528  18.184  0.00  0.00    +0.000 OA
ATOM     20  H   UNL     1       1.104   1.996  17.699  0.00  0.00    +0.000 HD
ENDBRANCH  15  19
ENDBRANCH   1  15
TORSDOF 8
ENDMDL
MODEL 7
REMARK VINA RESULT:      -5.6      3.396      4.841
REMARK  Name = 
REMARK  8 active torsions:
REMARK  status: ('A' for Active; 'I' for Inactive)
REMARK    1  A    between atoms: P_2  and  O_3
REMARK    2  A    between atoms: P_2  and  O_4
REMARK    3  A    between atoms: P_2  and  C_5
REMARK    4  A    between atoms: C_5  and  O_6
REMARK    5  A    between atoms: C_5  and  C_7
REMARK    6  A    between atoms: C_5  and  P_11
REMARK    7  A    between atoms: P_11  and  O_13
REMARK    8  A    between atoms: P_11  and  O_14
REMARK                            x       y       z     vdW  Elec       q    Type
REMARK                         _______ _______ _______ _____ _____    ______ ____
ROOT
ATOM      1  C   UNL     1       3.284   4.366  19.523  0.00  0.00    +0.000 C 
ENDROOT
BRANCH   1   2
ATOM      2  C   UNL     1       2.975   3.311  20.585  0.00  0.00    +0.000 C 
ATOM      3  C   UNL     1       2.270   3.729  21.898  0.00  0.00    +0.000 C 
ATOM      4  N   UNL     1       1.563   2.433  21.854  0.00  0.00    +0.000 NA
ATOM      5  C   UNL     1       1.745   2.395  20.389  0.00  0.00    +0.000 C 
ATOM      6  H   UNL     1       0.597   2.444  22.182  0.00  0.00    +0.000 HD
ENDBRANCH   1   2
BRANCH   1   8
ATOM      7  O   UNL     1       0.962   4.251  17.072  0.00  0.00    +0.000 OA
ATOM      8  P   UNL     1       2.026   4.303  18.195  0.00  0.00    +0.000 P 
BRANCH   8   9
ATOM      9  O   UNL     1       3.142   3.703  17.144  0.00  0.00    +0.000 OA
ATOM     10  H   UNL     1       2.711   3.646  16.267  0.00  0.00    +0.000 HD
ENDBRANCH   8   9
BRANCH   8  11
ATOM     11  O   UNL     1       2.410   5.868  17.800  0.00  0.00    +0.000 OA
ATOM     12  H   UNL     1       1.614   6.400  18.010  0.00  0.00    +0.000 HD
ENDBRANCH   8  11
ENDBRANCH   1   8
BRANCH   1  13
ATOM     13  O   UNL     1       3.255   5.654  20.216  0.00  0.00    +0.000 OA
ATOM     14  H   UNL     1       4.044   5.599  20.803  0.00  0.00    +0.000 HD
ENDBRANCH   1  13
BRANCH   1  15
ATOM     15  P   UNL     1       4.950   4.168  18.794  0.00  0.00    +0.000 P 
ATOM     16  O   UNL     1       5.539   5.236  19.715  0.00  0.00    +0.000 OA
BRANCH  15  17
ATOM     17  O   UNL     1       5.215   2.695  19.445  0.00  0.00    +0.000 OA
ATOM     18  H   UNL     1       5.460   2.726  20.389  0.00  0.00    +0.000 HD
ENDBRANCH  15  17
BRANCH  15  19
ATOM     19  O   UNL     1       6.526   3.981  18.104  0.00  0.00    +0.000 OA
ATOM     20  H   UNL     1       6.729   4.864  17.731  0.00  0.00    +0.000 HD
ENDBRANCH  15  19
ENDBRANCH   1  15
TORSDOF 8
ENDMDL
MODEL 8
REMARK VINA RESULT:      -5.6      2.658      3.123
REMARK  Name = 
REMARK  8 active torsions:
REMARK  status: ('A' for Active; 'I' for Inactive)
REMARK    1  A    between atoms: P_2  and  O_3
REMARK    2  A    between atoms: P_2  and  O_4
REMARK    3  A    between atoms: P_2  and  C_5
REMARK    4  A    between atoms: C_5  and  O_6
REMARK    5  A    between atoms: C_5  and  C_7
REMARK    6  A    between atoms: C_5  and  P_11
REMARK    7  A    between atoms: P_11  and  O_13
REMARK    8  A    between atoms: P_11  and  O_14
REMARK                            x       y       z     vdW  Elec       q    Type
REMARK                         _______ _______ _______ _____ _____    ______ ____
ROOT
ATOM      1  C   UNL     1       6.708   4.892  17.478  0.00  0.00    +0.000 C 
ENDROOT
BRANCH   1   2
ATOM      2  C   UNL     1       6.548   4.181  16.134  0.00  0.00    +0.000 C 
ATOM      3  C   UNL     1       5.171   4.178  15.428  0.00  0.00    +0.000 C 
ATOM      4  N   UNL     1       5.901   4.270  14.147  0.00  0.00    +0.000 NA
ATOM      5  C   UNL     1       7.040   4.893  14.853  0.00  0.00    +0.000 C 
ATOM      6  H   UNL     1       5.459   4.840  13.426  0.00  0.00    +0.000 HD
ENDBRANCH   1   2
BRANCH   1   8
ATOM      7  O   UNL     1       3.826   4.707  19.230  0.00  0.00    +0.000 OA
ATOM      8  P   UNL     1       5.147   4.792  18.427  0.00  0.00    +0.000 P 
BRANCH   8   9
ATOM      9  O   UNL     1       5.900   5.397  19.761  0.00  0.00    +0.000 OA
ATOM     10  H   UNL     1       5.253   5.372  20.494  0.00  0.00    +0.000 HD
ENDBRANCH   8   9
BRANCH   8  11
ATOM     11  O   UNL     1       5.535   3.234  18.843  0.00  0.00    +0.000 OA
ATOM     12  H   UNL     1       6.353   3.296  19.381  0.00  0.00    +0.000 HD
ENDBRANCH   8  11
ENDBRANCH   1   8
BRANCH   1  13
ATOM     13  O   UNL     1       7.793   4.197  18.173  0.00  0.00    +0.000 OA
ATOM     14  H   UNL     1       7.433   4.098  19.085  0.00  0.00    +0.000 HD
ENDBRANCH   1  13
BRANCH   1  15
ATOM     15  P   UNL     1       7.201   6.645  17.297  0.00  0.00    +0.000 P 
ATOM     16  O   UNL     1       5.769   7.127  17.528  0.00  0.00    +0.000 OA
BRANCH  15  17
ATOM     17  O   UNL     1       8.020   6.706  18.708  0.00  0.00    +0.000 OA
ATOM     18  H   UNL     1       7.974   7.577  19.146  0.00  0.00    +0.000 HD
ENDBRANCH  15  17
BRANCH  15  19
ATOM     19  O   UNL     1       7.668   8.302  17.127  0.00  0.00    +0.000 OA
ATOM     20  H   UNL     1       6.926   8.800  17.529  0.00  0.00    +0.000 HD
ENDBRANCH  15  19
ENDBRANCH   1  15
TORSDOF 8
ENDMDL
MODEL 9
REMARK VINA RESULT:      -5.5      0.847      1.255
REMARK  Name = 
REMARK  8 active torsions:
REMARK  status: ('A' for Active; 'I' for Inactive)
REMARK    1  A    between atoms: P_2  and  O_3
REMARK    2  A    between atoms: P_2  and  O_4
REMARK    3  A    between atoms: P_2  and  C_5
REMARK    4  A    between atoms: C_5  and  O_6
REMARK    5  A    between atoms: C_5  and  C_7
REMARK    6  A    between atoms: C_5  and  P_11
REMARK    7  A    between atoms: P_11  and  O_13
REMARK    8  A    between atoms: P_11  and  O_14
REMARK                            x       y       z     vdW  Elec       q    Type
REMARK                         _______ _______ _______ _____ _____    ______ ____
ROOT
ATOM      1  C   UNL     1       5.574   4.668  17.234  0.00  0.00    +0.000 C 
ENDROOT
BRANCH   1   2
ATOM      2  C   UNL     1       4.215   5.366  17.234  0.00  0.00    +0.000 C 
ATOM      3  C   UNL     1       2.927   4.535  17.446  0.00  0.00    +0.000 C 
ATOM      4  N   UNL     1       2.385   5.686  18.196  0.00  0.00    +0.000 NA
ATOM      5  C   UNL     1       3.763   6.118  18.507  0.00  0.00    +0.000 C 
ATOM      6  H   UNL     1       1.800   5.455  18.999  0.00  0.00    +0.000 HD
ENDBRANCH   1   2
BRANCH   1   8
ATOM      7  O   UNL     1       7.307   5.518  20.007  0.00  0.00    +0.000 OA
ATOM      8  P   UNL     1       6.513   5.129  18.736  0.00  0.00    +0.000 P 
BRANCH   8   9
ATOM      9  O   UNL     1       7.096   6.471  17.980  0.00  0.00    +0.000 OA
ATOM     10  H   UNL     1       7.064   7.203  18.627  0.00  0.00    +0.000 HD
ENDBRANCH   8   9
BRANCH   8  11
ATOM     11  O   UNL     1       7.776   4.202  18.193  0.00  0.00    +0.000 OA
ATOM     12  H   UNL     1       7.427   3.692  17.432  0.00  0.00    +0.000 HD
ENDBRANCH   8  11
ENDBRANCH   1   8
BRANCH   1  13
ATOM     13  O   UNL     1       5.289   3.233  17.210  0.00  0.00    +0.000 OA
ATOM     14  H   UNL     1       4.968   3.094  16.289  0.00  0.00    +0.000 HD
ENDBRANCH   1  13
BRANCH   1  15
ATOM     15  P   UNL     1       6.570   5.059  15.749  0.00  0.00    +0.000 P 
ATOM     16  O   UNL     1       6.148   3.761  15.060  0.00  0.00    +0.000 OA
BRANCH  15  17
ATOM     17  O   UNL     1       5.601   6.272  15.245  0.00  0.00    +0.000 OA
ATOM     18  H   UNL     1       4.661   6.017  15.184  0.00  0.00    +0.000 HD
ENDBRANCH  15  17
BRANCH  15  19
ATOM     19  O   UNL     1       7.511   5.428  14.345  0.00  0.00    +0.000 OA
ATOM     20  H   UNL     1       6.967   6.083  13.861  0.00  0.00    +0.000 HD
ENDBRANCH  15  19
ENDBRANCH   1  15
TORSDOF 8
ENDMDL
