MODEL 1
REMARK VINA RESULT:      -8.8      0.000      0.000
REMARK  Name = 
REMARK  5 active torsions:
REMARK  status: ('A' for Active; 'I' for Inactive)
REMARK    1  A    between atoms: C_1  and  C_2
REMARK    2  A    between atoms: C_4  and  C_5
REMARK    3  A    between atoms: C_11  and  C_12
REMARK    4  A    between atoms: C_17  and  O_18
REMARK    5  A    between atoms: C_17  and  C_19
REMARK                            x       y       z     vdW  Elec       q    Type
REMARK                         _______ _______ _______ _____ _____    ______ ____
ROOT
ATOM      1  C   UNL     1       1.957   7.969  19.889  0.00  0.00    +0.000 C 
ATOM      2  O   UNL     1       1.877   7.710  21.093  0.00  0.00    +0.000 OA
ATOM      3  N   UNL     1       1.368   9.127  19.377  0.00  0.00    +0.000 N 
ATOM      4  C   UNL     1       1.430   9.607  17.999  0.00  0.00    +0.000 C 
ATOM      5  C   UNL     1       0.022   9.824  17.456  0.00  0.00    +0.000 C 
ATOM      6  C   UNL     1      -0.793  10.787  18.345  0.00  0.00    +0.000 C 
ATOM      7  C   UNL     1      -0.733  10.310  19.813  0.00  0.00    +0.000 C 
ATOM      8  C   UNL     1       0.693  10.046  20.286  0.00  0.00    +0.000 C 
ENDROOT
BRANCH   1  13
ATOM      9  C   UNL     1       4.918   6.879  16.240  0.00  0.00    +0.000 C 
ATOM     10  C   UNL     1       3.998   6.570  17.350  0.00  0.00    +0.000 A 
ATOM     11  N   UNL     1       3.631   5.404  17.825  0.00  0.00    +0.000 NA
ATOM     12  C   UNL     1       2.770   5.719  18.865  0.00  0.00    +0.000 A 
ATOM     13  C   UNL     1       2.675   7.091  18.991  0.00  0.00    +0.000 A 
ATOM     14  O   UNL     1       3.432   7.637  17.975  0.00  0.00    +0.000 OA
BRANCH  12  15
ATOM     15  C   UNL     1       2.176   4.669  19.680  0.00  0.00    +0.000 A 
ATOM     16  C   UNL     1       2.534   4.451  21.015  0.00  0.00    +0.000 A 
ATOM     17  C   UNL     1       2.051   3.340  21.710  0.00  0.00    +0.000 A 
ATOM     18  C   UNL     1       1.198   2.434  21.078  0.00  0.00    +0.000 A 
ATOM     19  C   UNL     1       0.799   2.662  19.762  0.00  0.00    +0.000 A 
ATOM     20  C   UNL     1       1.281   3.774  19.072  0.00  0.00    +0.000 A 
ENDBRANCH  12  15
ENDBRANCH   1  13
BRANCH   6  21
ATOM     21  C   UNL     1      -2.222  10.896  17.785  0.00  0.00    +0.000 A 
ATOM     22  C   UNL     1      -2.544  10.497  16.478  0.00  0.00    +0.000 A 
ATOM     23  C   UNL     1      -3.810  10.744  15.933  0.00  0.00    +0.000 A 
ATOM     24  C   UNL     1      -4.785  11.373  16.695  0.00  0.00    +0.000 A 
ATOM     25  C   UNL     1      -4.510  11.733  18.009  0.00  0.00    +0.000 A 
ATOM     26  C   UNL     1      -3.243  11.494  18.551  0.00  0.00    +0.000 A 
ENDBRANCH   6  21
BRANCH   6  27
ATOM     27  O   UNL     1      -0.160  12.073  18.302  0.00  0.00    +0.000 OA
ATOM     28  H   UNL     1      -0.673  12.690  18.851  0.00  0.00    +0.000 HD
ENDBRANCH   6  27
TORSDOF 4
ENDMDL
MODEL 2
REMARK VINA RESULT:      -8.4      0.649      1.454
REMARK  Name = 
REMARK  5 active torsions:
REMARK  status: ('A' for Active; 'I' for Inactive)
REMARK    1  A    between atoms: C_1  and  C_2
REMARK    2  A    between atoms: C_4  and  C_5
REMARK    3  A    between atoms: C_11  and  C_12
REMARK    4  A    between atoms: C_17  and  O_18
REMARK    5  A    between atoms: C_17  and  C_19
REMARK                            x       y       z     vdW  Elec       q    Type
REMARK                         _______ _______ _______ _____ _____    ______ ____
ROOT
ATOM      1  C   UNL     1       2.202   7.417  19.713  0.00  0.00    +0.000 C 
ATOM      2  O   UNL     1       2.055   6.947  20.846  0.00  0.00    +0.000 OA
ATOM      3  N   UNL     1       1.669   8.667  19.395  0.00  0.00    +0.000 N 
ATOM      4  C   UNL     1       1.812   9.387  18.132  0.00  0.00    +0.000 C 
ATOM      5  C   UNL     1       0.440   9.745  17.574  0.00  0.00    +0.000 C 
ATOM      6  C   UNL     1      -0.396  10.558  18.587  0.00  0.00    +0.000 C 
ATOM      7  C   UNL     1      -0.422   9.821  19.944  0.00  0.00    +0.000 C 
ATOM      8  C   UNL     1       0.971   9.429  20.425  0.00  0.00    +0.000 C 
ENDROOT
BRANCH   1  13
ATOM      9  C   UNL     1       5.269   6.917  16.024  0.00  0.00    +0.000 C 
ATOM     10  C   UNL     1       4.314   6.437  17.039  0.00  0.00    +0.000 A 
ATOM     11  N   UNL     1       3.927   5.212  17.303  0.00  0.00    +0.000 NA
ATOM     12  C   UNL     1       3.036   5.360  18.355  0.00  0.00    +0.000 A 
ATOM     13  C   UNL     1       2.944   6.693  18.704  0.00  0.00    +0.000 A 
ATOM     14  O   UNL     1       3.734   7.391  17.816  0.00  0.00    +0.000 OA
BRANCH  12  15
ATOM     15  C   UNL     1       2.411   4.195  18.966  0.00  0.00    +0.000 A 
ATOM     16  C   UNL     1       1.388   3.470  18.344  0.00  0.00    +0.000 A 
ATOM     17  C   UNL     1       0.716   2.456  19.030  0.00  0.00    +0.000 A 
ATOM     18  C   UNL     1       1.062   2.151  20.347  0.00  0.00    +0.000 A 
ATOM     19  C   UNL     1       2.108   2.837  20.964  0.00  0.00    +0.000 A 
ATOM     20  C   UNL     1       2.779   3.846  20.275  0.00  0.00    +0.000 A 
ENDBRANCH  12  15
ENDBRANCH   1  13
BRANCH   6  21
ATOM     21  C   UNL     1      -1.791  10.815  17.991  0.00  0.00    +0.000 A 
ATOM     22  C   UNL     1      -2.758  11.583  18.659  0.00  0.00    +0.000 A 
ATOM     23  C   UNL     1      -4.069  11.681  18.178  0.00  0.00    +0.000 A 
ATOM     24  C   UNL     1      -4.430  11.031  17.005  0.00  0.00    +0.000 A 
ATOM     25  C   UNL     1      -3.480  10.306  16.296  0.00  0.00    +0.000 A 
ATOM     26  C   UNL     1      -2.172  10.201  16.781  0.00  0.00    +0.000 A 
ENDBRANCH   6  21
BRANCH   6  27
ATOM     27  O   UNL     1       0.270  11.809  18.809  0.00  0.00    +0.000 OA
ATOM     28  H   UNL     1       1.217  11.637  18.948  0.00  0.00    +0.000 HD
ENDBRANCH   6  27
TORSDOF 4
ENDMDL
MODEL 3
REMARK VINA RESULT:      -8.3      1.972      3.822
REMARK  Name = 
REMARK  5 active torsions:
REMARK  status: ('A' for Active; 'I' for Inactive)
REMARK    1  A    between atoms: C_1  and  C_2
REMARK    2  A    between atoms: C_4  and  C_5
REMARK    3  A    between atoms: C_11  and  C_12
REMARK    4  A    between atoms: C_17  and  O_18
REMARK    5  A    between atoms: C_17  and  C_19
REMARK                            x       y       z     vdW  Elec       q    Type
REMARK                         _______ _______ _______ _____ _____    ______ ____
ROOT
ATOM      1  C   UNL     1       2.497   6.152  20.005  0.00  0.00    +0.000 C 
ATOM      2  O   UNL     1       2.363   5.849  21.194  0.00  0.00    +0.000 OA
ATOM      3  N   UNL     1       2.257   7.461  19.581  0.00  0.00    +0.000 N 
ATOM      4  C   UNL     1       2.435   7.992  18.232  0.00  0.00    +0.000 C 
ATOM      5  C   UNL     1       1.141   8.637  17.748  0.00  0.00    +0.000 C 
ATOM      6  C   UNL     1       0.649   9.732  18.717  0.00  0.00    +0.000 C 
ATOM      7  C   UNL     1       0.590   9.163  20.152  0.00  0.00    +0.000 C 
ATOM      8  C   UNL     1       1.887   8.473  20.563  0.00  0.00    +0.000 C 
ENDROOT
BRANCH   1  13
ATOM      9  C   UNL     1       1.994   2.304  17.141  0.00  0.00    +0.000 C 
ATOM     10  C   UNL     1       2.726   3.434  17.741  0.00  0.00    +0.000 A 
ATOM     11  N   UNL     1       3.948   3.850  17.507  0.00  0.00    +0.000 NA
ATOM     12  C   UNL     1       4.094   4.948  18.341  0.00  0.00    +0.000 A 
ATOM     13  C   UNL     1       2.921   5.167  19.035  0.00  0.00    +0.000 A 
ATOM     14  O   UNL     1       2.055   4.153  18.680  0.00  0.00    +0.000 OA
BRANCH  12  15
ATOM     15  C   UNL     1       5.328   5.722  18.338  0.00  0.00    +0.000 A 
ATOM     16  C   UNL     1       5.594   6.722  17.395  0.00  0.00    +0.000 A 
ATOM     17  C   UNL     1       6.849   7.330  17.338  0.00  0.00    +0.000 A 
ATOM     18  C   UNL     1       7.855   6.949  18.227  0.00  0.00    +0.000 A 
ATOM     19  C   UNL     1       7.591   5.985  19.199  0.00  0.00    +0.000 A 
ATOM     20  C   UNL     1       6.335   5.381  19.255  0.00  0.00    +0.000 A 
ENDBRANCH  12  15
ENDBRANCH   1  13
BRANCH   6  21
ATOM     21  C   UNL     1      -0.696  10.281  18.210  0.00  0.00    +0.000 A 
ATOM     22  C   UNL     1      -1.353  11.348  18.842  0.00  0.00    +0.000 A 
ATOM     23  C   UNL     1      -2.644  11.735  18.463  0.00  0.00    +0.000 A 
ATOM     24  C   UNL     1      -3.292  11.077  17.427  0.00  0.00    +0.000 A 
ATOM     25  C   UNL     1      -2.645  10.050  16.749  0.00  0.00    +0.000 A 
ATOM     26  C   UNL     1      -1.358   9.657  17.133  0.00  0.00    +0.000 A 
ENDBRANCH   6  21
BRANCH   6  27
ATOM     27  O   UNL     1       1.624  10.784  18.730  0.00  0.00    +0.000 OA
ATOM     28  H   UNL     1       2.498  10.400  18.551  0.00  0.00    +0.000 HD
ENDBRANCH   6  27
TORSDOF 4
ENDMDL
MODEL 4
REMARK VINA RESULT:      -8.3      2.297      7.821
REMARK  Name = 
REMARK  5 active torsions:
REMARK  status: ('A' for Active; 'I' for Inactive)
REMARK    1  A    between atoms: C_1  and  C_2
REMARK    2  A    between atoms: C_4  and  C_5
REMARK    3  A    between atoms: C_11  and  C_12
REMARK    4  A    between atoms: C_17  and  O_18
REMARK    5  A    between atoms: C_17  and  C_19
REMARK                            x       y       z     vdW  Elec       q    Type
REMARK                         _______ _______ _______ _____ _____    ______ ____
ROOT
ATOM      1  C   UNL     1       0.977   9.917  20.172  0.00  0.00    +0.000 C 
ATOM      2  O   UNL     1       0.770   9.860  21.388  0.00  0.00    +0.000 OA
ATOM      3  N   UNL     1       1.326   8.766  19.463  0.00  0.00    +0.000 N 
ATOM      4  C   UNL     1       1.537   8.654  18.021  0.00  0.00    +0.000 C 
ATOM      5  C   UNL     1       2.914   8.067  17.737  0.00  0.00    +0.000 C 
ATOM      6  C   UNL     1       3.112   6.705  18.437  0.00  0.00    +0.000 C 
ATOM      7  C   UNL     1       2.763   6.839  19.936  0.00  0.00    +0.000 C 
ATOM      8  C   UNL     1       1.403   7.491  20.165  0.00  0.00    +0.000 C 
ENDROOT
BRANCH   1  13
ATOM      9  C   UNL     1       2.471  14.152  18.412  0.00  0.00    +0.000 C 
ATOM     10  C   UNL     1       1.487  13.083  18.659  0.00  0.00    +0.000 A 
ATOM     11  N   UNL     1       0.244  12.987  18.252  0.00  0.00    +0.000 NA
ATOM     12  C   UNL     1      -0.187  11.775  18.771  0.00  0.00    +0.000 A 
ATOM     13  C   UNL     1       0.845  11.169  19.458  0.00  0.00    +0.000 A 
ATOM     14  O   UNL     1       1.911  12.043  19.426  0.00  0.00    +0.000 OA
BRANCH  12  15
ATOM     15  C   UNL     1      -1.532  11.287  18.496  0.00  0.00    +0.000 A 
ATOM     16  C   UNL     1      -1.784  10.187  17.669  0.00  0.00    +0.000 A 
ATOM     17  C   UNL     1      -3.092   9.849  17.312  0.00  0.00    +0.000 A 
ATOM     18  C   UNL     1      -4.165  10.607  17.783  0.00  0.00    +0.000 A 
ATOM     19  C   UNL     1      -3.931  11.680  18.642  0.00  0.00    +0.000 A 
ATOM     20  C   UNL     1      -2.623  12.012  18.999  0.00  0.00    +0.000 A 
ENDBRANCH  12  15
ENDBRANCH   1  13
BRANCH   6  21
ATOM     21  C   UNL     1       4.545   6.211  18.174  0.00  0.00    +0.000 A 
ATOM     22  C   UNL     1       5.249   5.430  19.104  0.00  0.00    +0.000 A 
ATOM     23  C   UNL     1       6.601   5.118  18.918  0.00  0.00    +0.000 A 
ATOM     24  C   UNL     1       7.268   5.561  17.783  0.00  0.00    +0.000 A 
ATOM     25  C   UNL     1       6.582   6.293  16.821  0.00  0.00    +0.000 A 
ATOM     26  C   UNL     1       5.234   6.612  17.011  0.00  0.00    +0.000 A 
ENDBRANCH   6  21
BRANCH   6  27
ATOM     27  O   UNL     1       2.173   5.777  17.876  0.00  0.00    +0.000 OA
ATOM     28  H   UNL     1       2.651   5.171  17.285  0.00  0.00    +0.000 HD
ENDBRANCH   6  27
TORSDOF 4
ENDMDL
MODEL 5
REMARK VINA RESULT:      -8.2      1.625      7.752
REMARK  Name = 
REMARK  5 active torsions:
REMARK  status: ('A' for Active; 'I' for Inactive)
REMARK    1  A    between atoms: C_1  and  C_2
REMARK    2  A    between atoms: C_4  and  C_5
REMARK    3  A    between atoms: C_11  and  C_12
REMARK    4  A    between atoms: C_17  and  O_18
REMARK    5  A    between atoms: C_17  and  C_19
REMARK                            x       y       z     vdW  Elec       q    Type
REMARK                         _______ _______ _______ _____ _____    ______ ____
ROOT
ATOM      1  C   UNL     1       1.082   9.987  18.548  0.00  0.00    +0.000 C 
ATOM      2  O   UNL     1       1.336  10.449  17.432  0.00  0.00    +0.000 OA
ATOM      3  N   UNL     1       1.776   8.873  19.024  0.00  0.00    +0.000 N 
ATOM      4  C   UNL     1       1.642   8.252  20.339  0.00  0.00    +0.000 C 
ATOM      5  C   UNL     1       1.322   6.770  20.189  0.00  0.00    +0.000 C 
ATOM      6  C   UNL     1       2.378   6.039  19.332  0.00  0.00    +0.000 C 
ATOM      7  C   UNL     1       2.577   6.796  18.001  0.00  0.00    +0.000 C 
ATOM      8  C   UNL     1       2.830   8.286  18.205  0.00  0.00    +0.000 C 
ENDROOT
BRANCH   1  13
ATOM      9  C   UNL     1      -0.616  12.110  22.533  0.00  0.00    +0.000 C 
ATOM     10  C   UNL     1      -0.717  11.552  21.172  0.00  0.00    +0.000 A 
ATOM     11  N   UNL     1      -1.750  11.510  20.366  0.00  0.00    +0.000 NA
ATOM     12  C   UNL     1      -1.263  10.887  19.227  0.00  0.00    +0.000 A 
ATOM     13  C   UNL     1       0.077  10.600  19.389  0.00  0.00    +0.000 A 
ATOM     14  O   UNL     1       0.414  10.987  20.670  0.00  0.00    +0.000 OA
BRANCH  12  15
ATOM     15  C   UNL     1      -2.120  10.691  18.066  0.00  0.00    +0.000 A 
ATOM     16  C   UNL     1      -1.793   9.819  17.021  0.00  0.00    +0.000 A 
ATOM     17  C   UNL     1      -2.568   9.777  15.860  0.00  0.00    +0.000 A 
ATOM     18  C   UNL     1      -3.685  10.604  15.731  0.00  0.00    +0.000 A 
ATOM     19  C   UNL     1      -4.047  11.447  16.782  0.00  0.00    +0.000 A 
ATOM     20  C   UNL     1      -3.272  11.483  17.941  0.00  0.00    +0.000 A 
ENDBRANCH  12  15
ENDBRANCH   1  13
BRANCH   6  21
ATOM     21  C   UNL     1       1.952   4.572  19.157  0.00  0.00    +0.000 A 
ATOM     22  C   UNL     1       1.169   3.902  20.110  0.00  0.00    +0.000 A 
ATOM     23  C   UNL     1       0.918   2.528  20.012  0.00  0.00    +0.000 A 
ATOM     24  C   UNL     1       1.425   1.803  18.941  0.00  0.00    +0.000 A 
ATOM     25  C   UNL     1       2.160   2.451  17.955  0.00  0.00    +0.000 A 
ATOM     26  C   UNL     1       2.418   3.822  18.058  0.00  0.00    +0.000 A 
ENDBRANCH   6  21
BRANCH   6  27
ATOM     27  O   UNL     1       3.631   6.095  20.030  0.00  0.00    +0.000 OA
ATOM     28  H   UNL     1       4.320   6.387  19.409  0.00  0.00    +0.000 HD
ENDBRANCH   6  27
TORSDOF 4
ENDMDL
MODEL 6
REMARK VINA RESULT:      -8.0      1.657      7.689
REMARK  Name = 
REMARK  5 active torsions:
REMARK  status: ('A' for Active; 'I' for Inactive)
REMARK    1  A    between atoms: C_1  and  C_2
REMARK    2  A    between atoms: C_4  and  C_5
REMARK    3  A    between atoms: C_11  and  C_12
REMARK    4  A    between atoms: C_17  and  O_18
REMARK    5  A    between atoms: C_17  and  C_19
REMARK                            x       y       z     vdW  Elec       q    Type
REMARK                         _______ _______ _______ _____ _____    ______ ____
ROOT
ATOM      1  C   UNL     1       1.112   9.770  18.576  0.00  0.00    +0.000 C 
ATOM      2  O   UNL     1       1.342  10.258  17.465  0.00  0.00    +0.000 OA
ATOM      3  N   UNL     1       1.853   8.678  19.031  0.00  0.00    +0.000 N 
ATOM      4  C   UNL     1       1.751   8.032  20.338  0.00  0.00    +0.000 C 
ATOM      5  C   UNL     1       1.490   6.540  20.166  0.00  0.00    +0.000 C 
ATOM      6  C   UNL     1       2.571   5.866  19.295  0.00  0.00    +0.000 C 
ATOM      7  C   UNL     1       2.733   6.650  17.973  0.00  0.00    +0.000 C 
ATOM      8  C   UNL     1       2.927   8.146  18.200  0.00  0.00    +0.000 C 
ENDROOT
BRANCH   1  13
ATOM      9  C   UNL     1      -0.730  11.463  22.700  0.00  0.00    +0.000 C 
ATOM     10  C   UNL     1      -0.771  11.090  21.274  0.00  0.00    +0.000 A 
ATOM     11  N   UNL     1      -1.750  11.214  20.411  0.00  0.00    +0.000 NA
ATOM     12  C   UNL     1      -1.222  10.715  19.229  0.00  0.00    +0.000 A 
ATOM     13  C   UNL     1       0.088  10.329  19.431  0.00  0.00    +0.000 A 
ATOM     14  O   UNL     1       0.359  10.527  20.768  0.00  0.00    +0.000 OA
BRANCH  12  15
ATOM     15  C   UNL     1      -2.011  10.720  18.005  0.00  0.00    +0.000 A 
ATOM     16  C   UNL     1      -3.063  11.616  17.785  0.00  0.00    +0.000 A 
ATOM     17  C   UNL     1      -3.887  11.486  16.665  0.00  0.00    +0.000 A 
ATOM     18  C   UNL     1      -3.665  10.459  15.746  0.00  0.00    +0.000 A 
ATOM     19  C   UNL     1      -2.594   9.585  15.931  0.00  0.00    +0.000 A 
ATOM     20  C   UNL     1      -1.771   9.720  17.049  0.00  0.00    +0.000 A 
ENDBRANCH  12  15
ENDBRANCH   1  13
BRANCH   6  21
ATOM     21  C   UNL     1       2.203   4.385  19.098  0.00  0.00    +0.000 A 
ATOM     22  C   UNL     1       2.824   3.584  18.127  0.00  0.00    +0.000 A 
ATOM     23  C   UNL     1       2.373   2.286  17.858  0.00  0.00    +0.000 A 
ATOM     24  C   UNL     1       1.308   1.756  18.575  0.00  0.00    +0.000 A 
ATOM     25  C   UNL     1       0.709   2.509  19.578  0.00  0.00    +0.000 A 
ATOM     26  C   UNL     1       1.153   3.809  19.841  0.00  0.00    +0.000 A 
ENDBRANCH   6  21
BRANCH   6  27
ATOM     27  O   UNL     1       3.824   5.963  19.988  0.00  0.00    +0.000 OA
ATOM     28  H   UNL     1       4.528   5.636  19.403  0.00  0.00    +0.000 HD
ENDBRANCH   6  27
TORSDOF 4
ENDMDL
MODEL 7
REMARK VINA RESULT:      -8.0      5.844      8.036
REMARK  Name = 
REMARK  5 active torsions:
REMARK  status: ('A' for Active; 'I' for Inactive)
REMARK    1  A    between atoms: C_1  and  C_2
REMARK    2  A    between atoms: C_4  and  C_5
REMARK    3  A    between atoms: C_11  and  C_12
REMARK    4  A    between atoms: C_17  and  O_18
REMARK    5  A    between atoms: C_17  and  C_19
REMARK                            x       y       z     vdW  Elec       q    Type
REMARK                         _______ _______ _______ _____ _____    ______ ____
ROOT
ATOM      1  C   UNL     1      -4.244  12.915  23.090  0.00  0.00    +0.000 C 
ATOM      2  O   UNL     1      -4.986  12.240  23.810  0.00  0.00    +0.000 OA
ATOM      3  N   UNL     1      -4.506  13.031  21.723  0.00  0.00    +0.000 N 
ATOM      4  C   UNL     1      -3.770  13.840  20.755  0.00  0.00    +0.000 C 
ATOM      5  C   UNL     1      -3.297  12.969  19.597  0.00  0.00    +0.000 C 
ATOM      6  C   UNL     1      -4.469  12.224  18.924  0.00  0.00    +0.000 C 
ATOM      7  C   UNL     1      -5.293  11.479  19.998  0.00  0.00    +0.000 C 
ATOM      8  C   UNL     1      -5.685  12.380  21.164  0.00  0.00    +0.000 C 
ENDROOT
BRANCH   1  13
ATOM      9  C   UNL     1      -2.008  16.193  25.832  0.00  0.00    +0.000 C 
ATOM     10  C   UNL     1      -2.071  15.080  24.867  0.00  0.00    +0.000 A 
ATOM     11  N   UNL     1      -1.093  14.413  24.302  0.00  0.00    +0.000 NA
ATOM     12  C   UNL     1      -1.739  13.481  23.504  0.00  0.00    +0.000 A 
ATOM     13  C   UNL     1      -3.106  13.611  23.648  0.00  0.00    +0.000 A 
ATOM     14  O   UNL     1      -3.316  14.680  24.492  0.00  0.00    +0.000 OA
BRANCH  12  15
ATOM     15  C   UNL     1      -0.975  12.510  22.733  0.00  0.00    +0.000 A 
ATOM     16  C   UNL     1      -0.196  12.866  21.626  0.00  0.00    +0.000 A 
ATOM     17  C   UNL     1       0.396  11.885  20.827  0.00  0.00    +0.000 A 
ATOM     18  C   UNL     1       0.219  10.534  21.128  0.00  0.00    +0.000 A 
ATOM     19  C   UNL     1      -0.519  10.166  22.253  0.00  0.00    +0.000 A 
ATOM     20  C   UNL     1      -1.105  11.149  23.050  0.00  0.00    +0.000 A 
ENDBRANCH  12  15
ENDBRANCH   1  13
BRANCH   6  21
ATOM     21  C   UNL     1      -3.912  11.308  17.821  0.00  0.00    +0.000 A 
ATOM     22  C   UNL     1      -2.772  10.512  18.016  0.00  0.00    +0.000 A 
ATOM     23  C   UNL     1      -2.190   9.803  16.959  0.00  0.00    +0.000 A 
ATOM     24  C   UNL     1      -2.753   9.857  15.690  0.00  0.00    +0.000 A 
ATOM     25  C   UNL     1      -3.912  10.595  15.480  0.00  0.00    +0.000 A 
ATOM     26  C   UNL     1      -4.489  11.311  16.535  0.00  0.00    +0.000 A 
ENDBRANCH   6  21
BRANCH   6  27
ATOM     27  O   UNL     1      -5.341  13.203  18.341  0.00  0.00    +0.000 OA
ATOM     28  H   UNL     1      -5.448  13.001  17.396  0.00  0.00    +0.000 HD
ENDBRANCH   6  27
TORSDOF 4
ENDMDL
MODEL 8
REMARK VINA RESULT:      -8.0      1.273      1.462
REMARK  Name = 
REMARK  5 active torsions:
REMARK  status: ('A' for Active; 'I' for Inactive)
REMARK    1  A    between atoms: C_1  and  C_2
REMARK    2  A    between atoms: C_4  and  C_5
REMARK    3  A    between atoms: C_11  and  C_12
REMARK    4  A    between atoms: C_17  and  O_18
REMARK    5  A    between atoms: C_17  and  C_19
REMARK                            x       y       z     vdW  Elec       q    Type
REMARK                         _______ _______ _______ _____ _____    ______ ____
ROOT
ATOM      1  C   UNL     1       2.458   7.022  19.505  0.00  0.00    +0.000 C 
ATOM      2  O   UNL     1       2.313   6.431  20.579  0.00  0.00    +0.000 OA
ATOM      3  N   UNL     1       1.887   8.282  19.313  0.00  0.00    +0.000 N 
ATOM      4  C   UNL     1       2.022   9.135  18.134  0.00  0.00    +0.000 C 
ATOM      5  C   UNL     1       0.645   9.507  17.597  0.00  0.00    +0.000 C 
ATOM      6  C   UNL     1      -0.229  10.181  18.676  0.00  0.00    +0.000 C 
ATOM      7  C   UNL     1      -0.247   9.305  19.948  0.00  0.00    +0.000 C 
ATOM      8  C   UNL     1       1.153   8.908  20.406  0.00  0.00    +0.000 C 
ENDROOT
BRANCH   1  13
ATOM      9  C   UNL     1       5.735   6.966  15.967  0.00  0.00    +0.000 C 
ATOM     10  C   UNL     1       4.698   6.378  16.834  0.00  0.00    +0.000 A 
ATOM     11  N   UNL     1       4.248   5.147  16.874  0.00  0.00    +0.000 NA
ATOM     12  C   UNL     1       3.297   5.169  17.883  0.00  0.00    +0.000 A 
ATOM     13  C   UNL     1       3.234   6.432  18.436  0.00  0.00    +0.000 A 
ATOM     14  O   UNL     1       4.107   7.224  17.720  0.00  0.00    +0.000 OA
BRANCH  12  15
ATOM     15  C   UNL     1       2.589   3.954  18.261  0.00  0.00    +0.000 A 
ATOM     16  C   UNL     1       1.192   3.863  18.274  0.00  0.00    +0.000 A 
ATOM     17  C   UNL     1       0.557   2.730  18.788  0.00  0.00    +0.000 A 
ATOM     18  C   UNL     1       1.313   1.670  19.291  0.00  0.00    +0.000 A 
ATOM     19  C   UNL     1       2.705   1.729  19.245  0.00  0.00    +0.000 A 
ATOM     20  C   UNL     1       3.336   2.861  18.728  0.00  0.00    +0.000 A 
ENDBRANCH  12  15
ENDBRANCH   1  13
BRANCH   6  21
ATOM     21  C   UNL     1      -1.624  10.456  18.090  0.00  0.00    +0.000 A 
ATOM     22  C   UNL     1      -2.053   9.884  16.882  0.00  0.00    +0.000 A 
ATOM     23  C   UNL     1      -3.262  10.262  16.286  0.00  0.00    +0.000 A 
ATOM     24  C   UNL     1      -4.078  11.202  16.901  0.00  0.00    +0.000 A 
ATOM     25  C   UNL     1      -3.702  11.746  18.124  0.00  0.00    +0.000 A 
ATOM     26  C   UNL     1      -2.490  11.376  18.715  0.00  0.00    +0.000 A 
ENDBRANCH   6  21
BRANCH   6  27
ATOM     27  O   UNL     1       0.393  11.422  19.038  0.00  0.00    +0.000 OA
ATOM     28  H   UNL     1       0.301  12.044  18.297  0.00  0.00    +0.000 HD
ENDBRANCH   6  27
TORSDOF 4
ENDMDL
MODEL 9
REMARK VINA RESULT:      -7.9      2.319      7.717
REMARK  Name = 
REMARK  5 active torsions:
REMARK  status: ('A' for Active; 'I' for Inactive)
REMARK    1  A    between atoms: C_1  and  C_2
REMARK    2  A    between atoms: C_4  and  C_5
REMARK    3  A    between atoms: C_11  and  C_12
REMARK    4  A    between atoms: C_17  and  O_18
REMARK    5  A    between atoms: C_17  and  C_19
REMARK                            x       y       z     vdW  Elec       q    Type
REMARK                         _______ _______ _______ _____ _____    ______ ____
ROOT
ATOM      1  C   UNL     1       0.919  10.054  20.128  0.00  0.00    +0.000 C 
ATOM      2  O   UNL     1       0.686   9.997  21.339  0.00  0.00    +0.000 OA
ATOM      3  N   UNL     1       1.234   8.895  19.417  0.00  0.00    +0.000 N 
ATOM      4  C   UNL     1       1.466   8.784  17.978  0.00  0.00    +0.000 C 
ATOM      5  C   UNL     1       2.824   8.143  17.715  0.00  0.00    +0.000 C 
ATOM      6  C   UNL     1       2.954   6.770  18.408  0.00  0.00    +0.000 C 
ATOM      7  C   UNL     1       2.582   6.908  19.901  0.00  0.00    +0.000 C 
ATOM      8  C   UNL     1       1.246   7.613  20.110  0.00  0.00    +0.000 C 
ENDROOT
BRANCH   1  13
ATOM      9  C   UNL     1       2.590  14.276  18.498  0.00  0.00    +0.000 C 
ATOM     10  C   UNL     1       1.573  13.223  18.680  0.00  0.00    +0.000 A 
ATOM     11  N   UNL     1       0.353  13.156  18.204  0.00  0.00    +0.000 NA
ATOM     12  C   UNL     1      -0.130  11.948  18.685  0.00  0.00    +0.000 A 
ATOM     13  C   UNL     1       0.851  11.315  19.422  0.00  0.00    +0.000 A 
ATOM     14  O   UNL     1       1.934  12.168  19.458  0.00  0.00    +0.000 OA
BRANCH  12  15
ATOM     15  C   UNL     1      -1.466  11.491  18.331  0.00  0.00    +0.000 A 
ATOM     16  C   UNL     1      -2.629  12.067  18.856  0.00  0.00    +0.000 A 
ATOM     17  C   UNL     1      -3.880  11.499  18.607  0.00  0.00    +0.000 A 
ATOM     18  C   UNL     1      -3.985  10.348  17.825  0.00  0.00    +0.000 A 
ATOM     19  C   UNL     1      -2.839   9.788  17.260  0.00  0.00    +0.000 A 
ATOM     20  C   UNL     1      -1.592  10.360  17.508  0.00  0.00    +0.000 A 
ENDBRANCH  12  15
ENDBRANCH   1  13
BRANCH   6  21
ATOM     21  C   UNL     1       4.370   6.220  18.167  0.00  0.00    +0.000 A 
ATOM     22  C   UNL     1       5.056   6.427  16.960  0.00  0.00    +0.000 A 
ATOM     23  C   UNL     1       6.277   5.794  16.699  0.00  0.00    +0.000 A 
ATOM     24  C   UNL     1       6.847   4.961  17.653  0.00  0.00    +0.000 A 
ATOM     25  C   UNL     1       6.215   4.779  18.878  0.00  0.00    +0.000 A 
ATOM     26  C   UNL     1       4.991   5.405  19.135  0.00  0.00    +0.000 A 
ENDBRANCH   6  21
BRANCH   6  27
ATOM     27  O   UNL     1       1.988   5.885  17.822  0.00  0.00    +0.000 OA
ATOM     28  H   UNL     1       2.220   5.747  16.889  0.00  0.00    +0.000 HD
ENDBRANCH   6  27
TORSDOF 4
ENDMDL
