MODEL 1
REMARK VINA RESULT:      -6.2      0.000      0.000
REMARK  Name = 
REMARK  14 active torsions:
REMARK  status: ('A' for Active; 'I' for Inactive)
REMARK    1  A    between atoms: C_1  and  C_2
REMARK    2  A    between atoms: C_2  and  N_3
REMARK    3  A    between atoms: N_5  and  C_6
REMARK    4  A    between atoms: C_8  and  C_9
REMARK    5  A    between atoms: C_9  and  O_10
REMARK    6  A    between atoms: O_10  and  P_11
REMARK    7  A    between atoms: C_14  and  O_15
REMARK    8  A    between atoms: O_15  and  C_16
REMARK    9  A    between atoms: C_16  and  C_17
REMARK   10  A    between atoms: C_16  and  C_18
REMARK   11  A    between atoms: C_19  and  O_20
REMARK   12  A    between atoms: O_20  and  C_21
REMARK   13  A    between atoms: C_21  and  C_22
REMARK   14  A    between atoms: C_21  and  C_23
REMARK                            x       y       z     vdW  Elec       q    Type
REMARK                         _______ _______ _______ _____ _____    ______ ____
ROOT
ATOM      1  C   UNL     1      -2.265  13.115  20.328  0.00  0.00    +0.000 C 
ATOM      2  O   UNL     1      -2.258  12.540  19.018  0.00  0.00    +0.000 OA
ATOM      3  C   UNL     1      -1.343  11.429  18.985  0.00  0.00    +0.000 C 
ATOM      4  C   UNL     1      -1.090  11.047  20.445  0.00  0.00    +0.000 C 
ATOM      5  C   UNL     1      -1.243  12.355  21.216  0.00  0.00    +0.000 C 
ENDROOT
BRANCH   1   8
ATOM      6  N   UNL     1      -5.696  12.350  20.964  0.00  0.00    +0.000 N 
ATOM      7  C   UNL     1      -4.651  12.476  20.126  0.00  0.00    +0.000 A 
ATOM      8  N   UNL     1      -3.638  13.012  20.833  0.00  0.00    +0.000 N 
ATOM      9  C   UNL     1      -4.092  13.415  22.081  0.00  0.00    +0.000 A 
ATOM     10  N   UNL     1      -3.387  14.062  23.037  0.00  0.00    +0.000 NA
ATOM     11  C   UNL     1      -3.980  14.062  24.198  0.00  0.00    +0.000 A 
ATOM     12  N   UNL     1      -3.377  14.589  25.292  0.00  0.00    +0.000 N 
ATOM     13  N   UNL     1      -5.225  13.520  24.418  0.00  0.00    +0.000 N 
ATOM     14  C   UNL     1      -6.029  12.925  23.461  0.00  0.00    +0.000 A 
ATOM     15  O   UNL     1      -7.136  12.487  23.771  0.00  0.00    +0.000 OA
ATOM     16  C   UNL     1      -5.360  12.893  22.197  0.00  0.00    +0.000 A 
ATOM     17  H   UNL     1      -2.535  15.138  25.145  0.00  0.00    +0.000 HD
ATOM     18  H   UNL     1      -3.899  14.848  26.119  0.00  0.00    +0.000 HD
ATOM     19  H   UNL     1      -5.602  13.515  25.355  0.00  0.00    +0.000 HD
BRANCH   6  21
ATOM     20  C   UNL     1      -6.721  10.715  19.472  0.00  0.00    +0.000 C 
ATOM     21  C   UNL     1      -6.944  11.680  20.617  0.00  0.00    +0.000 C 
ENDBRANCH   6  21
ENDBRANCH   1   8
BRANCH   3  22
ATOM     22  C   UNL     1      -1.964  10.197  18.317  0.00  0.00    +0.000 C 
BRANCH  22  23
ATOM     23  O   UNL     1      -1.698  10.042  16.937  0.00  0.00    +0.000 OA
BRANCH  23  24
ATOM     24  P   UNL     1      -2.887  10.725  16.023  0.00  0.00    +0.000 P 
ATOM     25  O   UNL     1      -2.857   9.951  14.712  0.00  0.00    +0.000 OA
ATOM     26  O   UNL     1      -4.146  10.735  16.851  0.00  0.00    +0.000 OA
ATOM     27  H   UNL     1      -2.300  12.009  15.910  0.00  0.00    +0.000 HD
ENDBRANCH  23  24
ENDBRANCH  22  23
ENDBRANCH   3  22
BRANCH   4  28
ATOM     28  O   UNL     1       0.092  10.270  20.590  0.00  0.00    +0.000 OA
BRANCH  28  29
ATOM     29  C   UNL     1      -0.032   9.036  21.302  0.00  0.00    +0.000 C 
ATOM     30  C   UNL     1       1.158   8.095  21.114  0.00  0.00    +0.000 C 
ATOM     31  C   UNL     1      -0.164   9.368  22.790  0.00  0.00    +0.000 C 
ENDBRANCH  28  29
ENDBRANCH   4  28
BRANCH   5  32
ATOM     32  O   UNL     1       0.008  13.022  21.438  0.00  0.00    +0.000 OA
BRANCH  32  33
ATOM     33  C   UNL     1       0.125  14.348  20.907  0.00  0.00    +0.000 C 
ATOM     34  C   UNL     1       0.583  15.405  21.911  0.00  0.00    +0.000 C 
ATOM     35  C   UNL     1       1.173  14.312  19.797  0.00  0.00    +0.000 C 
ENDBRANCH  32  33
ENDBRANCH   5  32
TORSDOF 9
ENDMDL
MODEL 2
REMARK VINA RESULT:      -6.0      3.134      5.300
REMARK  Name = 
REMARK  14 active torsions:
REMARK  status: ('A' for Active; 'I' for Inactive)
REMARK    1  A    between atoms: C_1  and  C_2
REMARK    2  A    between atoms: C_2  and  N_3
REMARK    3  A    between atoms: N_5  and  C_6
REMARK    4  A    between atoms: C_8  and  C_9
REMARK    5  A    between atoms: C_9  and  O_10
REMARK    6  A    between atoms: O_10  and  P_11
REMARK    7  A    between atoms: C_14  and  O_15
REMARK    8  A    between atoms: O_15  and  C_16
REMARK    9  A    between atoms: C_16  and  C_17
REMARK   10  A    between atoms: C_16  and  C_18
REMARK   11  A    between atoms: C_19  and  O_20
REMARK   12  A    between atoms: O_20  and  C_21
REMARK   13  A    between atoms: C_21  and  C_22
REMARK   14  A    between atoms: C_21  and  C_23
REMARK                            x       y       z     vdW  Elec       q    Type
REMARK                         _______ _______ _______ _____ _____    ______ ____
ROOT
ATOM      1  C   UNL     1      -2.088  13.086  20.394  0.00  0.00    +0.000 C 
ATOM      2  O   UNL     1      -1.420  11.927  20.904  0.00  0.00    +0.000 OA
ATOM      3  C   UNL     1      -0.949  12.193  22.239  0.00  0.00    +0.000 C 
ATOM      4  C   UNL     1      -1.723  13.421  22.723  0.00  0.00    +0.000 C 
ATOM      5  C   UNL     1      -2.013  14.217  21.454  0.00  0.00    +0.000 C 
ENDROOT
BRANCH   1   8
ATOM      6  N   UNL     1      -5.622  12.583  20.265  0.00  0.00    +0.000 N 
ATOM      7  C   UNL     1      -4.494  12.859  20.944  0.00  0.00    +0.000 A 
ATOM      8  N   UNL     1      -3.466  12.686  20.091  0.00  0.00    +0.000 N 
ATOM      9  C   UNL     1      -3.919  12.107  18.914  0.00  0.00    +0.000 A 
ATOM     10  N   UNL     1      -3.172  11.715  17.856  0.00  0.00    +0.000 NA
ATOM     11  C   UNL     1      -3.883  11.469  16.791  0.00  0.00    +0.000 A 
ATOM     12  N   UNL     1      -3.292  11.147  15.614  0.00  0.00    +0.000 N 
ATOM     13  N   UNL     1      -5.257  11.534  16.760  0.00  0.00    +0.000 N 
ATOM     14  C   UNL     1      -6.077  11.843  17.832  0.00  0.00    +0.000 A 
ATOM     15  O   UNL     1      -7.299  11.856  17.689  0.00  0.00    +0.000 OA
ATOM     16  C   UNL     1      -5.293  12.150  18.988  0.00  0.00    +0.000 A 
ATOM     17  H   UNL     1      -2.300  10.932  15.630  0.00  0.00    +0.000 HD
ATOM     18  H   UNL     1      -3.800  10.694  14.865  0.00  0.00    +0.000 HD
ATOM     19  H   UNL     1      -5.738  11.375  15.887  0.00  0.00    +0.000 HD
BRANCH   6  21
ATOM     20  C   UNL     1      -7.578  11.463  21.198  0.00  0.00    +0.000 C 
ATOM     21  C   UNL     1      -6.965  12.787  20.798  0.00  0.00    +0.000 C 
ENDBRANCH   6  21
ENDBRANCH   1   8
BRANCH   3  22
ATOM     22  C   UNL     1      -1.297  11.054  23.204  0.00  0.00    +0.000 C 
BRANCH  22  23
ATOM     23  O   UNL     1      -0.224  10.214  23.581  0.00  0.00    +0.000 OA
BRANCH  23  24
ATOM     24  P   UNL     1       0.506   9.553  22.260  0.00  0.00    +0.000 P 
ATOM     25  O   UNL     1       1.941   9.297  22.699  0.00  0.00    +0.000 OA
ATOM     26  O   UNL     1      -0.347   8.399  21.800  0.00  0.00    +0.000 OA
ATOM     27  H   UNL     1       0.390  10.686  21.416  0.00  0.00    +0.000 HD
ENDBRANCH  23  24
ENDBRANCH  22  23
ENDBRANCH   3  22
BRANCH   4  28
ATOM     28  O   UNL     1      -1.080  14.048  23.826  0.00  0.00    +0.000 OA
BRANCH  28  29
ATOM     29  C   UNL     1      -1.783  15.123  24.455  0.00  0.00    +0.000 C 
ATOM     30  C   UNL     1      -3.024  14.677  25.228  0.00  0.00    +0.000 C 
ATOM     31  C   UNL     1      -0.818  15.805  25.427  0.00  0.00    +0.000 C 
ENDBRANCH  28  29
ENDBRANCH   4  28
BRANCH   5  32
ATOM     32  O   UNL     1      -1.040  15.242  21.204  0.00  0.00    +0.000 OA
BRANCH  32  33
ATOM     33  C   UNL     1      -0.372  15.190  19.937  0.00  0.00    +0.000 C 
ATOM     34  C   UNL     1      -0.558  16.427  19.060  0.00  0.00    +0.000 C 
ATOM     35  C   UNL     1       1.126  15.065  20.208  0.00  0.00    +0.000 C 
ENDBRANCH  32  33
ENDBRANCH   5  32
TORSDOF 9
ENDMDL
MODEL 3
REMARK VINA RESULT:      -6.0      1.159      1.466
REMARK  Name = 
REMARK  14 active torsions:
REMARK  status: ('A' for Active; 'I' for Inactive)
REMARK    1  A    between atoms: C_1  and  C_2
REMARK    2  A    between atoms: C_2  and  N_3
REMARK    3  A    between atoms: N_5  and  C_6
REMARK    4  A    between atoms: C_8  and  C_9
REMARK    5  A    between atoms: C_9  and  O_10
REMARK    6  A    between atoms: O_10  and  P_11
REMARK    7  A    between atoms: C_14  and  O_15
REMARK    8  A    between atoms: O_15  and  C_16
REMARK    9  A    between atoms: C_16  and  C_17
REMARK   10  A    between atoms: C_16  and  C_18
REMARK   11  A    between atoms: C_19  and  O_20
REMARK   12  A    between atoms: O_20  and  C_21
REMARK   13  A    between atoms: C_21  and  C_22
REMARK   14  A    between atoms: C_21  and  C_23
REMARK                            x       y       z     vdW  Elec       q    Type
REMARK                         _______ _______ _______ _____ _____    ______ ____
ROOT
ATOM      1  C   UNL     1      -1.350  13.520  20.777  0.00  0.00    +0.000 C 
ATOM      2  O   UNL     1      -1.065  12.976  19.484  0.00  0.00    +0.000 OA
ATOM      3  C   UNL     1      -0.082  11.932  19.608  0.00  0.00    +0.000 C 
ATOM      4  C   UNL     1      -0.071  11.535  21.086  0.00  0.00    +0.000 C 
ATOM      5  C   UNL     1      -0.455  12.812  21.829  0.00  0.00    +0.000 C 
ENDROOT
BRANCH   1   8
ATOM      6  N   UNL     1      -4.786  12.542  20.741  0.00  0.00    +0.000 N 
ATOM      7  C   UNL     1      -3.622  12.785  20.111  0.00  0.00    +0.000 A 
ATOM      8  N   UNL     1      -2.781  13.311  21.022  0.00  0.00    +0.000 N 
ATOM      9  C   UNL     1      -3.468  13.591  22.195  0.00  0.00    +0.000 A 
ATOM     10  N   UNL     1      -2.980  14.193  23.305  0.00  0.00    +0.000 NA
ATOM     11  C   UNL     1      -3.764  14.072  24.339  0.00  0.00    +0.000 A 
ATOM     12  N   UNL     1      -3.393  14.539  25.557  0.00  0.00    +0.000 N 
ATOM     13  N   UNL     1      -4.992  13.455  24.297  0.00  0.00    +0.000 N 
ATOM     14  C   UNL     1      -5.581  12.900  23.172  0.00  0.00    +0.000 A 
ATOM     15  O   UNL     1      -6.696  12.386  23.251  0.00  0.00    +0.000 OA
ATOM     16  C   UNL     1      -4.703  13.001  22.048  0.00  0.00    +0.000 A 
ATOM     17  H   UNL     1      -2.574  15.138  25.600  0.00  0.00    +0.000 HD
ATOM     18  H   UNL     1      -4.065  14.706  26.294  0.00  0.00    +0.000 HD
ATOM     19  H   UNL     1      -5.525  13.358  25.149  0.00  0.00    +0.000 HD
BRANCH   6  21
ATOM     20  C   UNL     1      -6.960  12.832  19.673  0.00  0.00    +0.000 C 
ATOM     21  C   UNL     1      -5.912  11.842  20.131  0.00  0.00    +0.000 C 
ENDBRANCH   6  21
ENDBRANCH   1   8
BRANCH   3  22
ATOM     22  C   UNL     1      -0.482  10.676  18.825  0.00  0.00    +0.000 C 
BRANCH  22  23
ATOM     23  O   UNL     1      -1.828  10.265  18.961  0.00  0.00    +0.000 OA
BRANCH  23  24
ATOM     24  P   UNL     1      -2.562  10.144  17.491  0.00  0.00    +0.000 P 
ATOM     25  O   UNL     1      -4.028   9.886  17.811  0.00  0.00    +0.000 OA
ATOM     26  O   UNL     1      -2.180  11.363  16.691  0.00  0.00    +0.000 OA
ATOM     27  H   UNL     1      -1.887   8.976  17.058  0.00  0.00    +0.000 HD
ENDBRANCH  23  24
ENDBRANCH  22  23
ENDBRANCH   3  22
BRANCH   4  28
ATOM     28  O   UNL     1       1.118  10.838  21.436  0.00  0.00    +0.000 OA
BRANCH  28  29
ATOM     29  C   UNL     1       0.958   9.603  22.140  0.00  0.00    +0.000 C 
ATOM     30  C   UNL     1      -0.450   9.391  22.696  0.00  0.00    +0.000 C 
ATOM     31  C   UNL     1       1.277   8.467  21.165  0.00  0.00    +0.000 C 
ENDBRANCH  28  29
ENDBRANCH   4  28
BRANCH   5  32
ATOM     32  O   UNL     1       0.685  13.557  22.282  0.00  0.00    +0.000 OA
BRANCH  32  33
ATOM     33  C   UNL     1       0.926  14.810  21.627  0.00  0.00    +0.000 C 
ATOM     34  C   UNL     1       1.033  16.014  22.562  0.00  0.00    +0.000 C 
ATOM     35  C   UNL     1       2.262  14.700  20.896  0.00  0.00    +0.000 C 
ENDBRANCH  32  33
ENDBRANCH   5  32
TORSDOF 9
ENDMDL
MODEL 4
REMARK VINA RESULT:      -6.0      5.675      8.430
REMARK  Name = 
REMARK  14 active torsions:
REMARK  status: ('A' for Active; 'I' for Inactive)
REMARK    1  A    between atoms: C_1  and  C_2
REMARK    2  A    between atoms: C_2  and  N_3
REMARK    3  A    between atoms: N_5  and  C_6
REMARK    4  A    between atoms: C_8  and  C_9
REMARK    5  A    between atoms: C_9  and  O_10
REMARK    6  A    between atoms: O_10  and  P_11
REMARK    7  A    between atoms: C_14  and  O_15
REMARK    8  A    between atoms: O_15  and  C_16
REMARK    9  A    between atoms: C_16  and  C_17
REMARK   10  A    between atoms: C_16  and  C_18
REMARK   11  A    between atoms: C_19  and  O_20
REMARK   12  A    between atoms: O_20  and  C_21
REMARK   13  A    between atoms: C_21  and  C_22
REMARK   14  A    between atoms: C_21  and  C_23
REMARK                            x       y       z     vdW  Elec       q    Type
REMARK                         _______ _______ _______ _____ _____    ______ ____
ROOT
ATOM      1  C   UNL     1       2.698   6.983  19.814  0.00  0.00    +0.000 C 
ATOM      2  O   UNL     1       3.923   7.241  19.120  0.00  0.00    +0.000 OA
ATOM      3  C   UNL     1       4.112   6.250  18.093  0.00  0.00    +0.000 C 
ATOM      4  C   UNL     1       2.743   5.602  17.874  0.00  0.00    +0.000 C 
ATOM      5  C   UNL     1       2.052   5.698  19.231  0.00  0.00    +0.000 C 
ENDROOT
BRANCH   1   8
ATOM      6  N   UNL     1       0.599   9.626  18.646  0.00  0.00    +0.000 N 
ATOM      7  C   UNL     1       1.554   8.700  18.441  0.00  0.00    +0.000 A 
ATOM      8  N   UNL     1       1.852   8.168  19.642  0.00  0.00    +0.000 N 
ATOM      9  C   UNL     1       1.228   8.891  20.649  0.00  0.00    +0.000 A 
ATOM     10  N   UNL     1       1.350   8.705  21.984  0.00  0.00    +0.000 NA
ATOM     11  C   UNL     1       0.442   9.338  22.673  0.00  0.00    +0.000 A 
ATOM     12  N   UNL     1       0.359   9.196  24.019  0.00  0.00    +0.000 N 
ATOM     13  N   UNL     1      -0.503  10.165  22.111  0.00  0.00    +0.000 N 
ATOM     14  C   UNL     1      -0.620  10.463  20.764  0.00  0.00    +0.000 A 
ATOM     15  O   UNL     1      -1.498  11.232  20.376  0.00  0.00    +0.000 OA
ATOM     16  C   UNL     1       0.352   9.737  20.007  0.00  0.00    +0.000 A 
ATOM     17  H   UNL     1       1.128   8.728  24.490  0.00  0.00    +0.000 HD
ATOM     18  H   UNL     1      -0.135   9.862  24.599  0.00  0.00    +0.000 HD
ATOM     19  H   UNL     1      -1.204  10.587  22.704  0.00  0.00    +0.000 HD
BRANCH   6  21
ATOM     20  C   UNL     1      -1.460   9.725  17.340  0.00  0.00    +0.000 C 
ATOM     21  C   UNL     1      -0.093  10.333  17.573  0.00  0.00    +0.000 C 
ENDBRANCH   6  21
ENDBRANCH   1   8
BRANCH   3  22
ATOM     22  C   UNL     1       4.512   6.883  16.756  0.00  0.00    +0.000 C 
BRANCH  22  23
ATOM     23  O   UNL     1       5.757   6.475  16.226  0.00  0.00    +0.000 OA
BRANCH  23  24
ATOM     24  P   UNL     1       6.945   6.562  17.365  0.00  0.00    +0.000 P 
ATOM     25  O   UNL     1       7.675   5.230  17.264  0.00  0.00    +0.000 OA
ATOM     26  O   UNL     1       7.702   7.844  17.132  0.00  0.00    +0.000 OA
ATOM     27  H   UNL     1       6.093   6.631  18.495  0.00  0.00    +0.000 HD
ENDBRANCH  23  24
ENDBRANCH  22  23
ENDBRANCH   3  22
BRANCH   4  28
ATOM     28  O   UNL     1       2.853   4.346  17.218  0.00  0.00    +0.000 OA
BRANCH  28  29
ATOM     29  C   UNL     1       4.011   3.561  17.517  0.00  0.00    +0.000 C 
ATOM     30  C   UNL     1       3.687   2.175  18.075  0.00  0.00    +0.000 C 
ATOM     31  C   UNL     1       4.808   3.395  16.222  0.00  0.00    +0.000 C 
ENDBRANCH  28  29
ENDBRANCH   4  28
BRANCH   5  32
ATOM     32  O   UNL     1       2.206   4.509  20.020  0.00  0.00    +0.000 OA
BRANCH  32  33
ATOM     33  C   UNL     1       1.005   3.790  20.328  0.00  0.00    +0.000 C 
ATOM     34  C   UNL     1       0.461   2.927  19.190  0.00  0.00    +0.000 C 
ATOM     35  C   UNL     1       1.315   2.845  21.487  0.00  0.00    +0.000 C 
ENDBRANCH  32  33
ENDBRANCH   5  32
TORSDOF 9
ENDMDL
MODEL 5
REMARK VINA RESULT:      -6.0      2.480      3.669
REMARK  Name = 
REMARK  14 active torsions:
REMARK  status: ('A' for Active; 'I' for Inactive)
REMARK    1  A    between atoms: C_1  and  C_2
REMARK    2  A    between atoms: C_2  and  N_3
REMARK    3  A    between atoms: N_5  and  C_6
REMARK    4  A    between atoms: C_8  and  C_9
REMARK    5  A    between atoms: C_9  and  O_10
REMARK    6  A    between atoms: O_10  and  P_11
REMARK    7  A    between atoms: C_14  and  O_15
REMARK    8  A    between atoms: O_15  and  C_16
REMARK    9  A    between atoms: C_16  and  C_17
REMARK   10  A    between atoms: C_16  and  C_18
REMARK   11  A    between atoms: C_19  and  O_20
REMARK   12  A    between atoms: O_20  and  C_21
REMARK   13  A    between atoms: C_21  and  C_22
REMARK   14  A    between atoms: C_21  and  C_23
REMARK                            x       y       z     vdW  Elec       q    Type
REMARK                         _______ _______ _______ _____ _____    ______ ____
ROOT
ATOM      1  C   UNL     1      -1.101  12.880  20.090  0.00  0.00    +0.000 C 
ATOM      2  O   UNL     1       0.022  12.809  19.206  0.00  0.00    +0.000 OA
ATOM      3  C   UNL     1       0.999  11.897  19.742  0.00  0.00    +0.000 C 
ATOM      4  C   UNL     1       0.263  11.058  20.788  0.00  0.00    +0.000 C 
ATOM      5  C   UNL     1      -0.826  11.981  21.325  0.00  0.00    +0.000 C 
ENDROOT
BRANCH   1   8
ATOM      6  N   UNL     1      -3.424  11.433  17.793  0.00  0.00    +0.000 N 
ATOM      7  C   UNL     1      -2.200  11.905  18.093  0.00  0.00    +0.000 A 
ATOM      8  N   UNL     1      -2.274  12.444  19.325  0.00  0.00    +0.000 N 
ATOM      9  C   UNL     1      -3.598  12.495  19.740  0.00  0.00    +0.000 A 
ATOM     10  N   UNL     1      -4.074  13.038  20.885  0.00  0.00    +0.000 NA
ATOM     11  C   UNL     1      -5.306  12.695  21.139  0.00  0.00    +0.000 A 
ATOM     12  N   UNL     1      -5.916  13.076  22.288  0.00  0.00    +0.000 N 
ATOM     13  N   UNL     1      -6.070  11.918  20.299  0.00  0.00    +0.000 N 
ATOM     14  C   UNL     1      -5.666  11.409  19.076  0.00  0.00    +0.000 A 
ATOM     15  O   UNL     1      -6.443  10.736  18.401  0.00  0.00    +0.000 OA
ATOM     16  C   UNL     1      -4.302  11.754  18.818  0.00  0.00    +0.000 A 
ATOM     17  H   UNL     1      -5.450  13.777  22.856  0.00  0.00    +0.000 HD
ATOM     18  H   UNL     1      -6.923  13.065  22.390  0.00  0.00    +0.000 HD
ATOM     19  H   UNL     1      -7.002  11.654  20.584  0.00  0.00    +0.000 HD
BRANCH   6  21
ATOM     20  C   UNL     1      -2.498   9.889  16.146  0.00  0.00    +0.000 C 
ATOM     21  C   UNL     1      -3.725  10.649  16.600  0.00  0.00    +0.000 C 
ENDBRANCH   6  21
ENDBRANCH   1   8
BRANCH   3  22
ATOM     22  C   UNL     1       1.508  10.917  18.679  0.00  0.00    +0.000 C 
BRANCH  22  23
ATOM     23  O   UNL     1       0.742   9.742  18.503  0.00  0.00    +0.000 OA
BRANCH  23  24
ATOM     24  P   UNL     1       1.701   8.460  18.117  0.00  0.00    +0.000 P 
ATOM     25  O   UNL     1       2.677   9.005  17.084  0.00  0.00    +0.000 OA
ATOM     26  O   UNL     1       2.228   7.883  19.406  0.00  0.00    +0.000 OA
ATOM     27  H   UNL     1       0.688   7.658  17.536  0.00  0.00    +0.000 HD
ENDBRANCH  23  24
ENDBRANCH  22  23
ENDBRANCH   3  22
BRANCH   4  28
ATOM     28  O   UNL     1       1.166  10.424  21.686  0.00  0.00    +0.000 OA
BRANCH  28  29
ATOM     29  C   UNL     1       0.704   9.236  22.333  0.00  0.00    +0.000 C 
ATOM     30  C   UNL     1       0.093   9.484  23.712  0.00  0.00    +0.000 C 
ATOM     31  C   UNL     1      -0.359   8.600  21.433  0.00  0.00    +0.000 C 
ENDBRANCH  28  29
ENDBRANCH   4  28
BRANCH   5  32
ATOM     32  O   UNL     1      -0.434  12.669  22.522  0.00  0.00    +0.000 OA
BRANCH  32  33
ATOM     33  C   UNL     1      -0.808  14.050  22.613  0.00  0.00    +0.000 C 
ATOM     34  C   UNL     1      -1.370  14.476  23.968  0.00  0.00    +0.000 C 
ATOM     35  C   UNL     1       0.447  14.886  22.376  0.00  0.00    +0.000 C 
ENDBRANCH  32  33
ENDBRANCH   5  32
TORSDOF 9
ENDMDL
MODEL 6
REMARK VINA RESULT:      -6.0      0.946      1.190
REMARK  Name = 
REMARK  14 active torsions:
REMARK  status: ('A' for Active; 'I' for Inactive)
REMARK    1  A    between atoms: C_1  and  C_2
REMARK    2  A    between atoms: C_2  and  N_3
REMARK    3  A    between atoms: N_5  and  C_6
REMARK    4  A    between atoms: C_8  and  C_9
REMARK    5  A    between atoms: C_9  and  O_10
REMARK    6  A    between atoms: O_10  and  P_11
REMARK    7  A    between atoms: C_14  and  O_15
REMARK    8  A    between atoms: O_15  and  C_16
REMARK    9  A    between atoms: C_16  and  C_17
REMARK   10  A    between atoms: C_16  and  C_18
REMARK   11  A    between atoms: C_19  and  O_20
REMARK   12  A    between atoms: O_20  and  C_21
REMARK   13  A    between atoms: C_21  and  C_22
REMARK   14  A    between atoms: C_21  and  C_23
REMARK                            x       y       z     vdW  Elec       q    Type
REMARK                         _______ _______ _______ _____ _____    ______ ____
ROOT
ATOM      1  C   UNL     1      -2.288  13.399  20.693  0.00  0.00    +0.000 C 
ATOM      2  O   UNL     1      -2.051  12.820  19.405  0.00  0.00    +0.000 OA
ATOM      3  C   UNL     1      -1.084  11.760  19.526  0.00  0.00    +0.000 C 
ATOM      4  C   UNL     1      -1.037  11.398  21.012  0.00  0.00    +0.000 C 
ATOM      5  C   UNL     1      -1.376  12.699  21.735  0.00  0.00    +0.000 C 
ENDROOT
BRANCH   1   8
ATOM      6  N   UNL     1      -5.689  12.333  20.942  0.00  0.00    +0.000 N 
ATOM      7  C   UNL     1      -4.524  12.413  20.273  0.00  0.00    +0.000 A 
ATOM      8  N   UNL     1      -3.715  13.223  20.983  0.00  0.00    +0.000 N 
ATOM      9  C   UNL     1      -4.429  13.823  22.011  0.00  0.00    +0.000 A 
ATOM     10  N   UNL     1      -3.978  14.752  22.886  0.00  0.00    +0.000 NA
ATOM     11  C   UNL     1      -4.773  14.924  23.904  0.00  0.00    +0.000 A 
ATOM     12  N   UNL     1      -4.437  15.754  24.922  0.00  0.00    +0.000 N 
ATOM     13  N   UNL     1      -5.980  14.279  24.047  0.00  0.00    +0.000 N 
ATOM     14  C   UNL     1      -6.533  13.387  23.144  0.00  0.00    +0.000 A 
ATOM     15  O   UNL     1      -7.631  12.881  23.371  0.00  0.00    +0.000 OA
ATOM     16  C   UNL     1      -5.641  13.171  22.046  0.00  0.00    +0.000 A 
ATOM     17  H   UNL     1      -3.639  16.367  24.784  0.00  0.00    +0.000 HD
ATOM     18  H   UNL     1      -5.126  16.114  25.570  0.00  0.00    +0.000 HD
ATOM     19  H   UNL     1      -6.522  14.428  24.886  0.00  0.00    +0.000 HD
BRANCH   6  21
ATOM     20  C   UNL     1      -7.168  11.655  19.123  0.00  0.00    +0.000 C 
ATOM     21  C   UNL     1      -6.781  11.439  20.571  0.00  0.00    +0.000 C 
ENDBRANCH   6  21
ENDBRANCH   1   8
BRANCH   3  22
ATOM     22  C   UNL     1      -1.529  10.494  18.785  0.00  0.00    +0.000 C 
BRANCH  22  23
ATOM     23  O   UNL     1      -1.328  10.494  17.386  0.00  0.00    +0.000 OA
BRANCH  23  24
ATOM     24  P   UNL     1      -2.716  10.109  16.586  0.00  0.00    +0.000 P 
ATOM     25  O   UNL     1      -3.797  10.130  17.658  0.00  0.00    +0.000 OA
ATOM     26  O   UNL     1      -2.828  11.033  15.401  0.00  0.00    +0.000 OA
ATOM     27  H   UNL     1      -2.342   8.794  16.217  0.00  0.00    +0.000 HD
ENDBRANCH  23  24
ENDBRANCH  22  23
ENDBRANCH   3  22
BRANCH   4  28
ATOM     28  O   UNL     1       0.149  10.687  21.344  0.00  0.00    +0.000 OA
BRANCH  28  29
ATOM     29  C   UNL     1      -0.016   9.360  21.851  0.00  0.00    +0.000 C 
ATOM     30  C   UNL     1       1.095   8.399  21.431  0.00  0.00    +0.000 C 
ATOM     31  C   UNL     1      -0.040   9.445  23.379  0.00  0.00    +0.000 C 
ENDBRANCH  28  29
ENDBRANCH   4  28
BRANCH   5  32
ATOM     32  O   UNL     1      -0.210  13.433  22.137  0.00  0.00    +0.000 OA
BRANCH  32  33
ATOM     33  C   UNL     1      -0.395  14.832  22.387  0.00  0.00    +0.000 C 
ATOM     34  C   UNL     1      -0.782  15.184  23.822  0.00  0.00    +0.000 C 
ATOM     35  C   UNL     1       0.933  15.532  22.105  0.00  0.00    +0.000 C 
ENDBRANCH  32  33
ENDBRANCH   5  32
TORSDOF 9
ENDMDL
MODEL 7
REMARK VINA RESULT:      -5.9      6.177      9.337
REMARK  Name = 
REMARK  14 active torsions:
REMARK  status: ('A' for Active; 'I' for Inactive)
REMARK    1  A    between atoms: C_1  and  C_2
REMARK    2  A    between atoms: C_2  and  N_3
REMARK    3  A    between atoms: N_5  and  C_6
REMARK    4  A    between atoms: C_8  and  C_9
REMARK    5  A    between atoms: C_9  and  O_10
REMARK    6  A    between atoms: O_10  and  P_11
REMARK    7  A    between atoms: C_14  and  O_15
REMARK    8  A    between atoms: O_15  and  C_16
REMARK    9  A    between atoms: C_16  and  C_17
REMARK   10  A    between atoms: C_16  and  C_18
REMARK   11  A    between atoms: C_19  and  O_20
REMARK   12  A    between atoms: O_20  and  C_21
REMARK   13  A    between atoms: C_21  and  C_22
REMARK   14  A    between atoms: C_21  and  C_23
REMARK                            x       y       z     vdW  Elec       q    Type
REMARK                         _______ _______ _______ _____ _____    ______ ____
ROOT
ATOM      1  C   UNL     1       2.155   6.157  19.435  0.00  0.00    +0.000 C 
ATOM      2  O   UNL     1       3.431   5.926  20.041  0.00  0.00    +0.000 OA
ATOM      3  C   UNL     1       4.264   5.177  19.137  0.00  0.00    +0.000 C 
ATOM      4  C   UNL     1       3.618   5.313  17.757  0.00  0.00    +0.000 C 
ATOM      5  C   UNL     1       2.128   5.469  18.044  0.00  0.00    +0.000 C 
ENDROOT
BRANCH   1   8
ATOM      6  N   UNL     1       1.896   9.585  18.465  0.00  0.00    +0.000 N 
ATOM      7  C   UNL     1       2.410   8.351  18.311  0.00  0.00    +0.000 A 
ATOM      8  N   UNL     1       1.980   7.610  19.350  0.00  0.00    +0.000 N 
ATOM      9  C   UNL     1       1.346   8.422  20.280  0.00  0.00    +0.000 A 
ATOM     10  N   UNL     1       0.851   8.053  21.485  0.00  0.00    +0.000 NA
ATOM     11  C   UNL     1       0.071   8.953  22.015  0.00  0.00    +0.000 A 
ATOM     12  N   UNL     1      -0.581   8.715  23.179  0.00  0.00    +0.000 N 
ATOM     13  N   UNL     1      -0.173  10.181  21.445  0.00  0.00    +0.000 N 
ATOM     14  C   UNL     1       0.375  10.648  20.262  0.00  0.00    +0.000 A 
ATOM     15  O   UNL     1       0.095  11.774  19.856  0.00  0.00    +0.000 OA
ATOM     16  C   UNL     1       1.199   9.644  19.663  0.00  0.00    +0.000 A 
ATOM     17  H   UNL     1      -0.308   7.894  23.711  0.00  0.00    +0.000 HD
ATOM     18  H   UNL     1      -0.961   9.465  23.743  0.00  0.00    +0.000 HD
ATOM     19  H   UNL     1      -0.825  10.810  21.891  0.00  0.00    +0.000 HD
BRANCH   6  21
ATOM     20  C   UNL     1       2.716  11.848  18.068  0.00  0.00    +0.000 C 
ATOM     21  C   UNL     1       2.015  10.647  17.472  0.00  0.00    +0.000 C 
ENDBRANCH   6  21
ENDBRANCH   1   8
BRANCH   3  22
ATOM     22  C   UNL     1       5.668   5.781  19.020  0.00  0.00    +0.000 C 
BRANCH  22  23
ATOM     23  O   UNL     1       6.723   4.861  18.828  0.00  0.00    +0.000 OA
BRANCH  23  24
ATOM     24  P   UNL     1       8.151   5.470  19.382  0.00  0.00    +0.000 P 
ATOM     25  O   UNL     1       8.195   6.895  18.849  0.00  0.00    +0.000 OA
ATOM     26  O   UNL     1       8.198   5.231  20.870  0.00  0.00    +0.000 OA
ATOM     27  H   UNL     1       9.001   4.594  18.663  0.00  0.00    +0.000 HD
ENDBRANCH  23  24
ENDBRANCH  22  23
ENDBRANCH   3  22
BRANCH   4  28
ATOM     28  O   UNL     1       4.068   4.303  16.861  0.00  0.00    +0.000 OA
BRANCH  28  29
ATOM     29  C   UNL     1       4.778   4.742  15.700  0.00  0.00    +0.000 C 
ATOM     30  C   UNL     1       5.189   6.213  15.750  0.00  0.00    +0.000 C 
ATOM     31  C   UNL     1       6.040   3.885  15.574  0.00  0.00    +0.000 C 
ENDBRANCH  28  29
ENDBRANCH   4  28
BRANCH   5  32
ATOM     32  O   UNL     1       1.413   4.226  17.976  0.00  0.00    +0.000 OA
BRANCH  32  33
ATOM     33  C   UNL     1       1.700   3.272  19.006  0.00  0.00    +0.000 C 
ATOM     34  C   UNL     1       0.556   3.022  19.988  0.00  0.00    +0.000 C 
ATOM     35  C   UNL     1       1.997   1.936  18.330  0.00  0.00    +0.000 C 
ENDBRANCH  32  33
ENDBRANCH   5  32
TORSDOF 9
ENDMDL
MODEL 8
REMARK VINA RESULT:      -5.8      3.104      5.539
REMARK  Name = 
REMARK  14 active torsions:
REMARK  status: ('A' for Active; 'I' for Inactive)
REMARK    1  A    between atoms: C_1  and  C_2
REMARK    2  A    between atoms: C_2  and  N_3
REMARK    3  A    between atoms: N_5  and  C_6
REMARK    4  A    between atoms: C_8  and  C_9
REMARK    5  A    between atoms: C_9  and  O_10
REMARK    6  A    between atoms: O_10  and  P_11
REMARK    7  A    between atoms: C_14  and  O_15
REMARK    8  A    between atoms: O_15  and  C_16
REMARK    9  A    between atoms: C_16  and  C_17
REMARK   10  A    between atoms: C_16  and  C_18
REMARK   11  A    between atoms: C_19  and  O_20
REMARK   12  A    between atoms: O_20  and  C_21
REMARK   13  A    between atoms: C_21  and  C_22
REMARK   14  A    between atoms: C_21  and  C_23
REMARK                            x       y       z     vdW  Elec       q    Type
REMARK                         _______ _______ _______ _____ _____    ______ ____
ROOT
ATOM      1  C   UNL     1      -0.677  12.932  18.401  0.00  0.00    +0.000 C 
ATOM      2  O   UNL     1       0.233  11.884  18.748  0.00  0.00    +0.000 OA
ATOM      3  C   UNL     1       1.123  12.343  19.782  0.00  0.00    +0.000 C 
ATOM      4  C   UNL     1       0.464  13.584  20.386  0.00  0.00    +0.000 C 
ATOM      5  C   UNL     1      -0.333  14.194  19.236  0.00  0.00    +0.000 C 
ENDROOT
BRANCH   1   8
ATOM      6  N   UNL     1      -3.958  12.241  19.633  0.00  0.00    +0.000 N 
ATOM      7  C   UNL     1      -2.691  12.654  19.819  0.00  0.00    +0.000 A 
ATOM      8  N   UNL     1      -2.029  12.430  18.668  0.00  0.00    +0.000 N 
ATOM      9  C   UNL     1      -2.822  11.690  17.801  0.00  0.00    +0.000 A 
ATOM     10  N   UNL     1      -2.474  11.209  16.585  0.00  0.00    +0.000 NA
ATOM     11  C   UNL     1      -3.496  10.800  15.886  0.00  0.00    +0.000 A 
ATOM     12  N   UNL     1      -3.343  10.368  14.610  0.00  0.00    +0.000 N 
ATOM     13  N   UNL     1      -4.788  10.793  16.358  0.00  0.00    +0.000 N 
ATOM     14  C   UNL     1      -5.191  11.188  17.622  0.00  0.00    +0.000 A 
ATOM     15  O   UNL     1      -6.378  11.123  17.940  0.00  0.00    +0.000 OA
ATOM     16  C   UNL     1      -4.074  11.673  18.373  0.00  0.00    +0.000 A 
ATOM     17  H   UNL     1      -2.397  10.206  14.280  0.00  0.00    +0.000 HD
ATOM     18  H   UNL     1      -4.044   9.802  14.148  0.00  0.00    +0.000 HD
ATOM     19  H   UNL     1      -5.536  10.504  15.743  0.00  0.00    +0.000 HD
BRANCH   6  21
ATOM     20  C   UNL     1      -4.456  12.791  21.958  0.00  0.00    +0.000 C 
ATOM     21  C   UNL     1      -5.030  12.442  20.602  0.00  0.00    +0.000 C 
ENDBRANCH   6  21
ENDBRANCH   1   8
BRANCH   3  22
ATOM     22  C   UNL     1       1.252  11.323  20.919  0.00  0.00    +0.000 C 
BRANCH  22  23
ATOM     23  O   UNL     1       0.323  11.457  21.977  0.00  0.00    +0.000 OA
BRANCH  23  24
ATOM     24  P   UNL     1      -0.261   9.988  22.443  0.00  0.00    +0.000 P 
ATOM     25  O   UNL     1       0.041   9.063  21.272  0.00  0.00    +0.000 OA
ATOM     26  O   UNL     1       0.317   9.681  23.801  0.00  0.00    +0.000 OA
ATOM     27  H   UNL     1      -1.627  10.359  22.505  0.00  0.00    +0.000 HD
ENDBRANCH  23  24
ENDBRANCH  22  23
ENDBRANCH   3  22
BRANCH   4  28
ATOM     28  O   UNL     1       1.398  14.380  21.106  0.00  0.00    +0.000 OA
BRANCH  28  29
ATOM     29  C   UNL     1       2.719  14.470  20.565  0.00  0.00    +0.000 C 
ATOM     30  C   UNL     1       3.107  15.879  20.120  0.00  0.00    +0.000 C 
ATOM     31  C   UNL     1       3.697  14.011  21.650  0.00  0.00    +0.000 C 
ENDBRANCH  28  29
ENDBRANCH   4  28
BRANCH   5  32
ATOM     32  O   UNL     1       0.387  15.224  18.544  0.00  0.00    +0.000 OA
BRANCH  32  33
ATOM     33  C   UNL     1      -0.268  16.494  18.433  0.00  0.00    +0.000 C 
ATOM     34  C   UNL     1      -0.731  17.097  19.758  0.00  0.00    +0.000 C 
ATOM     35  C   UNL     1       0.729  17.478  17.826  0.00  0.00    +0.000 C 
ENDBRANCH  32  33
ENDBRANCH   5  32
TORSDOF 9
ENDMDL
MODEL 9
REMARK VINA RESULT:      -5.7      2.819      4.468
REMARK  Name = 
REMARK  14 active torsions:
REMARK  status: ('A' for Active; 'I' for Inactive)
REMARK    1  A    between atoms: C_1  and  C_2
REMARK    2  A    between atoms: C_2  and  N_3
REMARK    3  A    between atoms: N_5  and  C_6
REMARK    4  A    between atoms: C_8  and  C_9
REMARK    5  A    between atoms: C_9  and  O_10
REMARK    6  A    between atoms: O_10  and  P_11
REMARK    7  A    between atoms: C_14  and  O_15
REMARK    8  A    between atoms: O_15  and  C_16
REMARK    9  A    between atoms: C_16  and  C_17
REMARK   10  A    between atoms: C_16  and  C_18
REMARK   11  A    between atoms: C_19  and  O_20
REMARK   12  A    between atoms: O_20  and  C_21
REMARK   13  A    between atoms: C_21  and  C_22
REMARK   14  A    between atoms: C_21  and  C_23
REMARK                            x       y       z     vdW  Elec       q    Type
REMARK                         _______ _______ _______ _____ _____    ______ ____
ROOT
ATOM      1  C   UNL     1      -1.515  12.845  21.856  0.00  0.00    +0.000 C 
ATOM      2  O   UNL     1      -1.347  14.222  22.208  0.00  0.00    +0.000 OA
ATOM      3  C   UNL     1      -0.148  14.731  21.596  0.00  0.00    +0.000 C 
ATOM      4  C   UNL     1       0.213  13.743  20.486  0.00  0.00    +0.000 C 
ATOM      5  C   UNL     1      -0.313  12.399  20.983  0.00  0.00    +0.000 C 
ENDROOT
BRANCH   1   8
ATOM      6  N   UNL     1      -4.197  12.247  19.573  0.00  0.00    +0.000 N 
ATOM      7  C   UNL     1      -2.898  12.489  19.830  0.00  0.00    +0.000 A 
ATOM      8  N   UNL     1      -2.796  12.739  21.150  0.00  0.00    +0.000 N 
ATOM      9  C   UNL     1      -4.061  12.852  21.710  0.00  0.00    +0.000 A 
ATOM     10  N   UNL     1      -4.362  13.173  22.990  0.00  0.00    +0.000 NA
ATOM     11  C   UNL     1      -5.606  12.931  23.298  0.00  0.00    +0.000 A 
ATOM     12  N   UNL     1      -6.060  13.111  24.563  0.00  0.00    +0.000 N 
ATOM     13  N   UNL     1      -6.536  12.462  22.401  0.00  0.00    +0.000 N 
ATOM     14  C   UNL     1      -6.309  12.201  21.060  0.00  0.00    +0.000 A 
ATOM     15  O   UNL     1      -7.225  11.797  20.346  0.00  0.00    +0.000 OA
ATOM     16  C   UNL     1      -4.935  12.430  20.733  0.00  0.00    +0.000 A 
ATOM     17  H   UNL     1      -5.456  13.603  25.213  0.00  0.00    +0.000 HD
ATOM     18  H   UNL     1      -7.047  13.198  24.770  0.00  0.00    +0.000 HD
ATOM     19  H   UNL     1      -7.471  12.254  22.723  0.00  0.00    +0.000 HD
BRANCH   6  21
ATOM     20  C   UNL     1      -3.647  10.988  17.557  0.00  0.00    +0.000 C 
ATOM     21  C   UNL     1      -4.701  11.798  18.279  0.00  0.00    +0.000 C 
ENDBRANCH   6  21
ENDBRANCH   1   8
BRANCH   3  22
ATOM     22  C   UNL     1      -0.385  16.083  20.913  0.00  0.00    +0.000 C 
BRANCH  22  23
ATOM     23  O   UNL     1      -1.262  16.070  19.805  0.00  0.00    +0.000 OA
BRANCH  23  24
ATOM     24  P   UNL     1      -1.178  17.485  18.964  0.00  0.00    +0.000 P 
ATOM     25  O   UNL     1      -0.394  17.139  17.705  0.00  0.00    +0.000 OA
ATOM     26  O   UNL     1      -2.580  18.024  18.842  0.00  0.00    +0.000 OA
ATOM     27  H   UNL     1      -0.401  18.199  19.909  0.00  0.00    +0.000 HD
ENDBRANCH  23  24
ENDBRANCH  22  23
ENDBRANCH   3  22
BRANCH   4  28
ATOM     28  O   UNL     1       1.571  13.872  20.084  0.00  0.00    +0.000 OA
BRANCH  28  29
ATOM     29  C   UNL     1       1.824  13.940  18.679  0.00  0.00    +0.000 C 
ATOM     30  C   UNL     1       2.783  15.061  18.280  0.00  0.00    +0.000 C 
ATOM     31  C   UNL     1       2.429  12.601  18.249  0.00  0.00    +0.000 C 
ENDBRANCH  28  29
ENDBRANCH   4  28
BRANCH   5  32
ATOM     32  O   UNL     1       0.691  11.622  21.653  0.00  0.00    +0.000 OA
BRANCH  32  33
ATOM     33  C   UNL     1       0.672  10.210  21.405  0.00  0.00    +0.000 C 
ATOM     34  C   UNL     1      -0.106   9.387  22.431  0.00  0.00    +0.000 C 
ATOM     35  C   UNL     1      -0.005   9.985  20.056  0.00  0.00    +0.000 C 
ENDBRANCH  32  33
ENDBRANCH   5  32
TORSDOF 9
ENDMDL
