MODEL 1
REMARK VINA RESULT:      -7.1      0.000      0.000
REMARK  Name = 
REMARK  3 active torsions:
REMARK  status: ('A' for Active; 'I' for Inactive)
REMARK    1  A    between atoms: C_1  and  C_2
REMARK    2  A    between atoms: C_5  and  C_6
REMARK    3  A    between atoms: C_7  and  C_8
REMARK                            x       y       z     vdW  Elec       q    Type
REMARK                         _______ _______ _______ _____ _____    ______ ____
ROOT
ATOM      1  C   UNL     1       4.858   4.161  17.746  0.00  0.00    +0.000 C 
ATOM      2  C   UNL     1       3.701   3.485  17.833  0.00  0.00    +0.000 C 
ENDROOT
BRANCH   1   7
ATOM      3  C   UNL     1       7.704   5.025  12.760  0.00  0.00    +0.000 C 
ATOM      4  C   UNL     1       6.980   4.787  14.053  0.00  0.00    +0.000 A 
ATOM      5  C   UNL     1       5.700   4.224  14.071  0.00  0.00    +0.000 A 
ATOM      6  C   UNL     1       5.033   4.020  15.284  0.00  0.00    +0.000 A 
ATOM      7  C   UNL     1       5.630   4.362  16.505  0.00  0.00    +0.000 A 
ATOM      8  C   UNL     1       6.909   4.934  16.480  0.00  0.00    +0.000 A 
ATOM      9  C   UNL     1       7.579   5.140  15.266  0.00  0.00    +0.000 A 
ENDBRANCH   1   7
BRANCH   2  10
ATOM     10  C   UNL     1       2.926   3.288  19.074  0.00  0.00    +0.000 A 
ATOM     11  C   UNL     1       1.617   3.793  19.118  0.00  0.00    +0.000 A 
ATOM     12  C   UNL     1       0.835   3.676  20.273  0.00  0.00    +0.000 A 
ATOM     13  C   UNL     1       1.354   3.059  21.410  0.00  0.00    +0.000 A 
ATOM     14  C   UNL     1       2.654   2.564  21.390  0.00  0.00    +0.000 A 
ATOM     15  C   UNL     1       3.430   2.682  20.235  0.00  0.00    +0.000 A 
ATOM     16  F   UNL     1       4.685   2.209  20.276  0.00  0.00    +0.000 F 
ENDBRANCH   2  10
TORSDOF 2
ENDMDL
MODEL 2
REMARK VINA RESULT:      -7.0      5.883      8.461
REMARK  Name = 
REMARK  3 active torsions:
REMARK  status: ('A' for Active; 'I' for Inactive)
REMARK    1  A    between atoms: C_1  and  C_2
REMARK    2  A    between atoms: C_5  and  C_6
REMARK    3  A    between atoms: C_7  and  C_8
REMARK                            x       y       z     vdW  Elec       q    Type
REMARK                         _______ _______ _______ _____ _____    ______ ____
ROOT
ATOM      1  C   UNL     1       8.633   8.268  18.637  0.00  0.00    +0.000 C 
ATOM      2  C   UNL     1       8.549   9.570  18.318  0.00  0.00    +0.000 C 
ENDROOT
BRANCH   1   7
ATOM      3  C   UNL     1       4.954   4.238  16.656  0.00  0.00    +0.000 C 
ATOM      4  C   UNL     1       5.896   5.280  17.185  0.00  0.00    +0.000 A 
ATOM      5  C   UNL     1       5.840   6.601  16.731  0.00  0.00    +0.000 A 
ATOM      6  C   UNL     1       6.732   7.558  17.225  0.00  0.00    +0.000 A 
ATOM      7  C   UNL     1       7.693   7.223  18.189  0.00  0.00    +0.000 A 
ATOM      8  C   UNL     1       7.751   5.896  18.633  0.00  0.00    +0.000 A 
ATOM      9  C   UNL     1       6.858   4.935  18.139  0.00  0.00    +0.000 A 
ENDBRANCH   1   7
BRANCH   2  10
ATOM     10  C   UNL     1       9.492  10.614  18.764  0.00  0.00    +0.000 A 
ATOM     11  C   UNL     1      10.231  11.294  17.782  0.00  0.00    +0.000 A 
ATOM     12  C   UNL     1      11.170  12.271  18.132  0.00  0.00    +0.000 A 
ATOM     13  C   UNL     1      11.394  12.579  19.472  0.00  0.00    +0.000 A 
ATOM     14  C   UNL     1      10.680  11.908  20.460  0.00  0.00    +0.000 A 
ATOM     15  C   UNL     1       9.744  10.934  20.107  0.00  0.00    +0.000 A 
ATOM     16  F   UNL     1       9.100  10.300  21.098  0.00  0.00    +0.000 F 
ENDBRANCH   2  10
TORSDOF 2
ENDMDL
MODEL 3
REMARK VINA RESULT:      -7.0      1.841      7.007
REMARK  Name = 
REMARK  3 active torsions:
REMARK  status: ('A' for Active; 'I' for Inactive)
REMARK    1  A    between atoms: C_1  and  C_2
REMARK    2  A    between atoms: C_5  and  C_6
REMARK    3  A    between atoms: C_7  and  C_8
REMARK                            x       y       z     vdW  Elec       q    Type
REMARK                         _______ _______ _______ _____ _____    ______ ____
ROOT
ATOM      1  C   UNL     1       4.462   4.508  16.541  0.00  0.00    +0.000 C 
ATOM      2  C   UNL     1       5.245   3.685  15.824  0.00  0.00    +0.000 C 
ENDROOT
BRANCH   1   7
ATOM      3  C   UNL     1       1.309   2.901  21.143  0.00  0.00    +0.000 C 
ATOM      4  C   UNL     1       2.132   3.331  19.964  0.00  0.00    +0.000 A 
ATOM      5  C   UNL     1       1.541   3.952  18.859  0.00  0.00    +0.000 A 
ATOM      6  C   UNL     1       2.319   4.337  17.762  0.00  0.00    +0.000 A 
ATOM      7  C   UNL     1       3.704   4.119  17.745  0.00  0.00    +0.000 A 
ATOM      8  C   UNL     1       4.289   3.488  18.851  0.00  0.00    +0.000 A 
ATOM      9  C   UNL     1       3.511   3.102  19.950  0.00  0.00    +0.000 A 
ENDBRANCH   1   7
BRANCH   2  10
ATOM     10  C   UNL     1       6.007   4.075  14.621  0.00  0.00    +0.000 A 
ATOM     11  C   UNL     1       5.699   3.431  13.412  0.00  0.00    +0.000 A 
ATOM     12  C   UNL     1       6.404   3.723  12.238  0.00  0.00    +0.000 A 
ATOM     13  C   UNL     1       7.438   4.657  12.256  0.00  0.00    +0.000 A 
ATOM     14  C   UNL     1       7.766   5.296  13.448  0.00  0.00    +0.000 A 
ATOM     15  C   UNL     1       7.060   5.003  14.616  0.00  0.00    +0.000 A 
ATOM     16  F   UNL     1       7.431   5.628  15.743  0.00  0.00    +0.000 F 
ENDBRANCH   2  10
TORSDOF 2
ENDMDL
MODEL 4
REMARK VINA RESULT:      -7.0      5.878      8.511
REMARK  Name = 
REMARK  3 active torsions:
REMARK  status: ('A' for Active; 'I' for Inactive)
REMARK    1  A    between atoms: C_1  and  C_2
REMARK    2  A    between atoms: C_5  and  C_6
REMARK    3  A    between atoms: C_7  and  C_8
REMARK                            x       y       z     vdW  Elec       q    Type
REMARK                         _______ _______ _______ _____ _____    ______ ____
ROOT
ATOM      1  C   UNL     1       8.640   8.262  18.515  0.00  0.00    +0.000 C 
ATOM      2  C   UNL     1       8.496   9.589  18.367  0.00  0.00    +0.000 C 
ENDROOT
BRANCH   1   7
ATOM      3  C   UNL     1       4.762   4.209  17.020  0.00  0.00    +0.000 C 
ATOM      4  C   UNL     1       5.773   5.254  17.390  0.00  0.00    +0.000 A 
ATOM      5  C   UNL     1       6.784   4.986  18.317  0.00  0.00    +0.000 A 
ATOM      6  C   UNL     1       7.712   5.975  18.660  0.00  0.00    +0.000 A 
ATOM      7  C   UNL     1       7.659   7.249  18.080  0.00  0.00    +0.000 A 
ATOM      8  C   UNL     1       6.638   7.516  17.158  0.00  0.00    +0.000 A 
ATOM      9  C   UNL     1       5.708   6.527  16.814  0.00  0.00    +0.000 A 
ENDBRANCH   1   7
BRANCH   2  10
ATOM     10  C   UNL     1       9.479  10.602  18.800  0.00  0.00    +0.000 A 
ATOM     11  C   UNL     1      10.258  11.224  17.811  0.00  0.00    +0.000 A 
ATOM     12  C   UNL     1      11.235  12.168  18.149  0.00  0.00    +0.000 A 
ATOM     13  C   UNL     1      11.458  12.498  19.485  0.00  0.00    +0.000 A 
ATOM     14  C   UNL     1      10.704  11.882  20.479  0.00  0.00    +0.000 A 
ATOM     15  C   UNL     1       9.730  10.942  20.138  0.00  0.00    +0.000 A 
ATOM     16  F   UNL     1       9.048  10.360  21.136  0.00  0.00    +0.000 F 
ENDBRANCH   2  10
TORSDOF 2
ENDMDL
MODEL 5
REMARK VINA RESULT:      -7.0      6.017      7.736
REMARK  Name = 
REMARK  3 active torsions:
REMARK  status: ('A' for Active; 'I' for Inactive)
REMARK    1  A    between atoms: C_1  and  C_2
REMARK    2  A    between atoms: C_5  and  C_6
REMARK    3  A    between atoms: C_7  and  C_8
REMARK                            x       y       z     vdW  Elec       q    Type
REMARK                         _______ _______ _______ _____ _____    ______ ____
ROOT
ATOM      1  C   UNL     1       8.335   9.414  18.366  0.00  0.00    +0.000 C 
ATOM      2  C   UNL     1       8.543   8.090  18.457  0.00  0.00    +0.000 C 
ENDROOT
BRANCH   1   7
ATOM      3  C   UNL     1      12.066  13.631  19.778  0.00  0.00    +0.000 C 
ATOM      4  C   UNL     1      11.114  12.528  19.419  0.00  0.00    +0.000 A 
ATOM      5  C   UNL     1      10.900  12.163  18.087  0.00  0.00    +0.000 A 
ATOM      6  C   UNL     1      10.001  11.140  17.768  0.00  0.00    +0.000 A 
ATOM      7  C   UNL     1       9.302  10.452  18.769  0.00  0.00    +0.000 A 
ATOM      8  C   UNL     1       9.513  10.829  20.102  0.00  0.00    +0.000 A 
ATOM      9  C   UNL     1      10.413  11.853  20.424  0.00  0.00    +0.000 A 
ENDBRANCH   1   7
BRANCH   2  10
ATOM     10  C   UNL     1       7.577   7.050  18.050  0.00  0.00    +0.000 A 
ATOM     11  C   UNL     1       6.592   7.401  17.111  0.00  0.00    +0.000 A 
ATOM     12  C   UNL     1       5.621   6.478  16.705  0.00  0.00    +0.000 A 
ATOM     13  C   UNL     1       5.611   5.191  17.238  0.00  0.00    +0.000 A 
ATOM     14  C   UNL     1       6.571   4.829  18.178  0.00  0.00    +0.000 A 
ATOM     15  C   UNL     1       7.539   5.752  18.580  0.00  0.00    +0.000 A 
ATOM     16  F   UNL     1       8.427   5.361  19.507  0.00  0.00    +0.000 F 
ENDBRANCH   2  10
TORSDOF 2
ENDMDL
MODEL 6
REMARK VINA RESULT:      -7.0      6.209      9.049
REMARK  Name = 
REMARK  3 active torsions:
REMARK  status: ('A' for Active; 'I' for Inactive)
REMARK    1  A    between atoms: C_1  and  C_2
REMARK    2  A    between atoms: C_5  and  C_6
REMARK    3  A    between atoms: C_7  and  C_8
REMARK                            x       y       z     vdW  Elec       q    Type
REMARK                         _______ _______ _______ _____ _____    ______ ____
ROOT
ATOM      1  C   UNL     1       8.361   8.892  17.652  0.00  0.00    +0.000 C 
ATOM      2  C   UNL     1       8.656   9.774  18.621  0.00  0.00    +0.000 C 
ENDROOT
BRANCH   1   7
ATOM      3  C   UNL     1       5.330   4.038  18.626  0.00  0.00    +0.000 C 
ATOM      4  C   UNL     1       6.118   5.286  18.357  0.00  0.00    +0.000 A 
ATOM      5  C   UNL     1       7.326   5.533  19.017  0.00  0.00    +0.000 A 
ATOM      6  C   UNL     1       8.044   6.707  18.764  0.00  0.00    +0.000 A 
ATOM      7  C   UNL     1       7.580   7.655  17.842  0.00  0.00    +0.000 A 
ATOM      8  C   UNL     1       6.365   7.406  17.191  0.00  0.00    +0.000 A 
ATOM      9  C   UNL     1       5.644   6.231  17.443  0.00  0.00    +0.000 A 
ENDBRANCH   1   7
BRANCH   2  10
ATOM     10  C   UNL     1       9.434  11.013  18.431  0.00  0.00    +0.000 A 
ATOM     11  C   UNL     1      10.697  11.096  19.039  0.00  0.00    +0.000 A 
ATOM     12  C   UNL     1      11.476  12.254  18.932  0.00  0.00    +0.000 A 
ATOM     13  C   UNL     1      11.000  13.355  18.223  0.00  0.00    +0.000 A 
ATOM     14  C   UNL     1       9.746  13.297  17.623  0.00  0.00    +0.000 A 
ATOM     15  C   UNL     1       8.972  12.139  17.732  0.00  0.00    +0.000 A 
ATOM     16  F   UNL     1       7.761  12.143  17.156  0.00  0.00    +0.000 F 
ENDBRANCH   2  10
TORSDOF 2
ENDMDL
MODEL 7
REMARK VINA RESULT:      -6.9      6.167      8.536
REMARK  Name = 
REMARK  3 active torsions:
REMARK  status: ('A' for Active; 'I' for Inactive)
REMARK    1  A    between atoms: C_1  and  C_2
REMARK    2  A    between atoms: C_5  and  C_6
REMARK    3  A    between atoms: C_7  and  C_8
REMARK                            x       y       z     vdW  Elec       q    Type
REMARK                         _______ _______ _______ _____ _____    ______ ____
ROOT
ATOM      1  C   UNL     1       8.622   8.253  18.766  0.00  0.00    +0.000 C 
ATOM      2  C   UNL     1       8.613   9.562  18.463  0.00  0.00    +0.000 C 
ENDROOT
BRANCH   1   7
ATOM      3  C   UNL     1       5.166   4.154  16.541  0.00  0.00    +0.000 C 
ATOM      4  C   UNL     1       6.069   5.214  17.100  0.00  0.00    +0.000 A 
ATOM      5  C   UNL     1       7.002   4.915  18.097  0.00  0.00    +0.000 A 
ATOM      6  C   UNL     1       7.830   5.916  18.617  0.00  0.00    +0.000 A 
ATOM      7  C   UNL     1       7.753   7.234  18.147  0.00  0.00    +0.000 A 
ATOM      8  C   UNL     1       6.810   7.530  17.154  0.00  0.00    +0.000 A 
ATOM      9  C   UNL     1       5.980   6.529  16.633  0.00  0.00    +0.000 A 
ENDBRANCH   1   7
BRANCH   2  10
ATOM     10  C   UNL     1       9.486  10.580  19.079  0.00  0.00    +0.000 A 
ATOM     11  C   UNL     1       9.279  10.890  20.433  0.00  0.00    +0.000 A 
ATOM     12  C   UNL     1      10.043  11.871  21.075  0.00  0.00    +0.000 A 
ATOM     13  C   UNL     1      11.023  12.568  20.370  0.00  0.00    +0.000 A 
ATOM     14  C   UNL     1      11.234  12.284  19.025  0.00  0.00    +0.000 A 
ATOM     15  C   UNL     1      10.470  11.304  18.388  0.00  0.00    +0.000 A 
ATOM     16  F   UNL     1      10.696  11.085  17.084  0.00  0.00    +0.000 F 
ENDBRANCH   2  10
TORSDOF 2
ENDMDL
MODEL 8
REMARK VINA RESULT:      -6.9      1.850      7.061
REMARK  Name = 
REMARK  3 active torsions:
REMARK  status: ('A' for Active; 'I' for Inactive)
REMARK    1  A    between atoms: C_1  and  C_2
REMARK    2  A    between atoms: C_5  and  C_6
REMARK    3  A    between atoms: C_7  and  C_8
REMARK                            x       y       z     vdW  Elec       q    Type
REMARK                         _______ _______ _______ _____ _____    ______ ____
ROOT
ATOM      1  C   UNL     1       4.181   4.389  16.376  0.00  0.00    +0.000 C 
ATOM      2  C   UNL     1       5.252   3.730  15.904  0.00  0.00    +0.000 C 
ENDROOT
BRANCH   1   7
ATOM      3  C   UNL     1       1.436   2.935  21.280  0.00  0.00    +0.000 C 
ATOM      4  C   UNL     1       2.131   3.303  20.002  0.00  0.00    +0.000 A 
ATOM      5  C   UNL     1       3.270   2.614  19.575  0.00  0.00    +0.000 A 
ATOM      6  C   UNL     1       3.914   2.977  18.387  0.00  0.00    +0.000 A 
ATOM      7  C   UNL     1       3.432   4.027  17.595  0.00  0.00    +0.000 A 
ATOM      8  C   UNL     1       2.296   4.721  18.033  0.00  0.00    +0.000 A 
ATOM      9  C   UNL     1       1.650   4.359  19.222  0.00  0.00    +0.000 A 
ENDBRANCH   1   7
BRANCH   2  10
ATOM     10  C   UNL     1       6.004   4.094  14.688  0.00  0.00    +0.000 A 
ATOM     11  C   UNL     1       5.683   3.428  13.494  0.00  0.00    +0.000 A 
ATOM     12  C   UNL     1       6.377   3.695  12.308  0.00  0.00    +0.000 A 
ATOM     13  C   UNL     1       7.413   4.627  12.298  0.00  0.00    +0.000 A 
ATOM     14  C   UNL     1       7.754   5.288  13.474  0.00  0.00    +0.000 A 
ATOM     15  C   UNL     1       7.058   5.019  14.655  0.00  0.00    +0.000 A 
ATOM     16  F   UNL     1       7.441   5.666  15.766  0.00  0.00    +0.000 F 
ENDBRANCH   2  10
TORSDOF 2
ENDMDL
MODEL 9
REMARK VINA RESULT:      -6.9      1.343      1.791
REMARK  Name = 
REMARK  3 active torsions:
REMARK  status: ('A' for Active; 'I' for Inactive)
REMARK    1  A    between atoms: C_1  and  C_2
REMARK    2  A    between atoms: C_5  and  C_6
REMARK    3  A    between atoms: C_7  and  C_8
REMARK                            x       y       z     vdW  Elec       q    Type
REMARK                         _______ _______ _______ _____ _____    ______ ____
ROOT
ATOM      1  C   UNL     1       4.382   3.565  16.990  0.00  0.00    +0.000 C 
ATOM      2  C   UNL     1       4.009   4.270  18.072  0.00  0.00    +0.000 C 
ENDROOT
BRANCH   1   7
ATOM      3  C   UNL     1       8.110   5.359  12.919  0.00  0.00    +0.000 C 
ATOM      4  C   UNL     1       7.160   4.882  13.977  0.00  0.00    +0.000 A 
ATOM      5  C   UNL     1       6.033   4.122  13.647  0.00  0.00    +0.000 A 
ATOM      6  C   UNL     1       5.150   3.695  14.644  0.00  0.00    +0.000 A 
ATOM      7  C   UNL     1       5.373   4.008  15.992  0.00  0.00    +0.000 A 
ATOM      8  C   UNL     1       6.498   4.778  16.315  0.00  0.00    +0.000 A 
ATOM      9  C   UNL     1       7.384   5.207  15.318  0.00  0.00    +0.000 A 
ENDBRANCH   1   7
BRANCH   2  10
ATOM     10  C   UNL     1       3.020   3.825  19.073  0.00  0.00    +0.000 A 
ATOM     11  C   UNL     1       3.501   3.264  20.267  0.00  0.00    +0.000 A 
ATOM     12  C   UNL     1       2.622   2.788  21.246  0.00  0.00    +0.000 A 
ATOM     13  C   UNL     1       1.245   2.855  21.045  0.00  0.00    +0.000 A 
ATOM     14  C   UNL     1       0.750   3.396  19.862  0.00  0.00    +0.000 A 
ATOM     15  C   UNL     1       1.629   3.871  18.888  0.00  0.00    +0.000 A 
ATOM     16  F   UNL     1       1.101   4.361  17.756  0.00  0.00    +0.000 F 
ENDBRANCH   2  10
TORSDOF 2
ENDMDL
