MODEL 1
REMARK VINA RESULT:      -8.6      0.000      0.000
REMARK  Name = 
REMARK  3 active torsions:
REMARK  status: ('A' for Active; 'I' for Inactive)
REMARK    1  A    between atoms: C_1  and  N_2
REMARK    2  A    between atoms: C_4  and  C_5
REMARK    3  A    between atoms: C_11  and  C_12
REMARK                            x       y       z     vdW  Elec       q    Type
REMARK                         _______ _______ _______ _____ _____    ______ ____
ROOT
ATOM      1  C   UNL     1       4.598   5.182  16.950  0.00  0.00    +0.000 C 
ATOM      2  C   UNL     1       5.865   4.774  17.130  0.00  0.00    +0.000 C 
ATOM      3  C   UNL     1       6.692   4.668  18.358  0.00  0.00    +0.000 C 
ATOM      4  O   UNL     1       6.381   4.777  19.525  0.00  0.00    +0.000 OA
ATOM      5  N   UNL     1       7.957   4.397  17.860  0.00  0.00    +0.000 N 
ATOM      6  N   UNL     1       8.030   4.234  16.500  0.00  0.00    +0.000 NA
ATOM      7  C   UNL     1       6.816   4.417  16.035  0.00  0.00    +0.000 C 
ATOM      8  H   UNL     1       8.770   4.251  18.446  0.00  0.00    +0.000 HD
ENDROOT
BRANCH   1  12
ATOM      9  C   UNL     1       1.767   8.026  19.818  0.00  0.00    +0.000 C 
ATOM     10  N   UNL     1       2.344   6.845  19.216  0.00  0.00    +0.000 N 
ATOM     11  C   UNL     1       3.293   6.863  18.234  0.00  0.00    +0.000 A 
ATOM     12  C   UNL     1       3.598   5.564  17.899  0.00  0.00    +0.000 A 
ATOM     13  C   UNL     1       2.814   4.700  18.750  0.00  0.00    +0.000 A 
ATOM     14  C   UNL     1       2.652   3.300  18.943  0.00  0.00    +0.000 A 
ATOM     15 BR   UNL     1       3.568   2.004  17.902  0.00  0.00    +0.000 Br
ATOM     16  C   UNL     1       1.778   2.813  19.928  0.00  0.00    +0.000 A 
ATOM     17  C   UNL     1       1.046   3.684  20.722  0.00  0.00    +0.000 A 
ATOM     18  C   UNL     1       1.163   5.062  20.552  0.00  0.00    +0.000 A 
ATOM     19  C   UNL     1       2.045   5.548  19.571  0.00  0.00    +0.000 A 
ENDBRANCH   1  12
BRANCH   7  20
ATOM     20  C   UNL     1       6.497   4.229  14.652  0.00  0.00    +0.000 A 
ATOM     21  C   UNL     1       5.463   3.568  14.016  0.00  0.00    +0.000 A 
ATOM     22  N   UNL     1       5.503   3.584  12.631  0.00  0.00    +0.000 NA
ATOM     23  N   UNL     1       6.565   4.230  12.185  0.00  0.00    +0.000 NA
ATOM     24  S   UNL     1       7.534   4.817  13.416  0.00  0.00    +0.000 S 
ENDBRANCH   7  20
TORSDOF 2
ENDMDL
MODEL 2
REMARK VINA RESULT:      -7.5      1.704      2.596
REMARK  Name = 
REMARK  3 active torsions:
REMARK  status: ('A' for Active; 'I' for Inactive)
REMARK    1  A    between atoms: C_1  and  N_2
REMARK    2  A    between atoms: C_4  and  C_5
REMARK    3  A    between atoms: C_11  and  C_12
REMARK                            x       y       z     vdW  Elec       q    Type
REMARK                         _______ _______ _______ _____ _____    ______ ____
ROOT
ATOM      1  C   UNL     1       4.405   3.913  16.519  0.00  0.00    +0.000 C 
ATOM      2  C   UNL     1       5.726   4.147  16.431  0.00  0.00    +0.000 C 
ATOM      3  C   UNL     1       6.736   4.443  17.476  0.00  0.00    +0.000 C 
ATOM      4  O   UNL     1       6.652   4.397  18.685  0.00  0.00    +0.000 OA
ATOM      5  N   UNL     1       7.854   4.797  16.738  0.00  0.00    +0.000 N 
ATOM      6  N   UNL     1       7.719   4.685  15.377  0.00  0.00    +0.000 NA
ATOM      7  C   UNL     1       6.492   4.276  15.155  0.00  0.00    +0.000 C 
ATOM      8  H   UNL     1       8.744   5.050  17.153  0.00  0.00    +0.000 HD
ENDROOT
BRANCH   1  12
ATOM      9  C   UNL     1       1.458   1.866  19.904  0.00  0.00    +0.000 C 
ATOM     10  N   UNL     1       2.200   2.867  19.169  0.00  0.00    +0.000 N 
ATOM     11  C   UNL     1       3.008   2.600  18.100  0.00  0.00    +0.000 A 
ATOM     12  C   UNL     1       3.555   3.783  17.662  0.00  0.00    +0.000 A 
ATOM     13  C   UNL     1       3.025   4.841  18.491  0.00  0.00    +0.000 A 
ATOM     14  C   UNL     1       3.151   6.255  18.577  0.00  0.00    +0.000 A 
ATOM     15 BR   UNL     1       4.292   7.260  17.440  0.00  0.00    +0.000 Br
ATOM     16  C   UNL     1       2.427   6.977  19.539  0.00  0.00    +0.000 A 
ATOM     17  C   UNL     1       1.586   6.327  20.431  0.00  0.00    +0.000 A 
ATOM     18  C   UNL     1       1.449   4.941  20.390  0.00  0.00    +0.000 A 
ATOM     19  C   UNL     1       2.168   4.221  19.420  0.00  0.00    +0.000 A 
ENDBRANCH   1  12
BRANCH   7  20
ATOM     20  C   UNL     1       6.024   3.958  13.841  0.00  0.00    +0.000 A 
ATOM     21  C   UNL     1       4.779   3.606  13.354  0.00  0.00    +0.000 A 
ATOM     22  N   UNL     1       4.717   3.345  11.995  0.00  0.00    +0.000 NA
ATOM     23  N   UNL     1       5.902   3.469  11.424  0.00  0.00    +0.000 NA
ATOM     24  S   UNL     1       7.105   3.889  12.508  0.00  0.00    +0.000 S 
ENDBRANCH   7  20
TORSDOF 2
ENDMDL
MODEL 3
REMARK VINA RESULT:      -6.6      2.659      4.049
REMARK  Name = 
REMARK  3 active torsions:
REMARK  status: ('A' for Active; 'I' for Inactive)
REMARK    1  A    between atoms: C_1  and  N_2
REMARK    2  A    between atoms: C_4  and  C_5
REMARK    3  A    between atoms: C_11  and  C_12
REMARK                            x       y       z     vdW  Elec       q    Type
REMARK                         _______ _______ _______ _____ _____    ______ ____
ROOT
ATOM      1  C   UNL     1       3.570   6.410  18.026  0.00  0.00    +0.000 C 
ATOM      2  C   UNL     1       3.259   5.153  17.668  0.00  0.00    +0.000 C 
ATOM      3  C   UNL     1       1.950   4.460  17.579  0.00  0.00    +0.000 C 
ATOM      4  O   UNL     1       0.822   4.899  17.658  0.00  0.00    +0.000 OA
ATOM      5  N   UNL     1       2.310   3.138  17.369  0.00  0.00    +0.000 N 
ATOM      6  N   UNL     1       3.657   2.912  17.229  0.00  0.00    +0.000 NA
ATOM      7  C   UNL     1       4.248   4.075  17.368  0.00  0.00    +0.000 C 
ATOM      8  H   UNL     1       1.642   2.387  17.247  0.00  0.00    +0.000 HD
ENDROOT
BRANCH   1  12
ATOM      9  C   UNL     1       1.474  10.869  17.791  0.00  0.00    +0.000 C 
ATOM     10  N   UNL     1       1.811   9.545  18.266  0.00  0.00    +0.000 N 
ATOM     11  C   UNL     1       2.655   8.685  17.622  0.00  0.00    +0.000 A 
ATOM     12  C   UNL     1       2.732   7.522  18.352  0.00  0.00    +0.000 A 
ATOM     13  C   UNL     1       1.914   7.694  19.531  0.00  0.00    +0.000 A 
ATOM     14  C   UNL     1       1.567   6.924  20.676  0.00  0.00    +0.000 A 
ATOM     15 BR   UNL     1       2.180   5.148  20.948  0.00  0.00    +0.000 Br
ATOM     16  C   UNL     1       0.729   7.459  21.666  0.00  0.00    +0.000 A 
ATOM     17  C   UNL     1       0.211   8.741  21.542  0.00  0.00    +0.000 A 
ATOM     18  C   UNL     1       0.512   9.519  20.427  0.00  0.00    +0.000 A 
ATOM     19  C   UNL     1       1.360   8.984  19.441  0.00  0.00    +0.000 A 
ENDBRANCH   1  12
BRANCH   7  20
ATOM     20  C   UNL     1       5.659   4.235  17.187  0.00  0.00    +0.000 A 
ATOM     21  C   UNL     1       6.692   4.472  18.075  0.00  0.00    +0.000 A 
ATOM     22  N   UNL     1       7.951   4.591  17.513  0.00  0.00    +0.000 NA
ATOM     23  N   UNL     1       7.908   4.472  16.198  0.00  0.00    +0.000 NA
ATOM     24  S   UNL     1       6.358   4.226  15.618  0.00  0.00    +0.000 S 
ENDBRANCH   7  20
TORSDOF 2
ENDMDL
MODEL 4
REMARK VINA RESULT:      -6.4      2.059      2.858
REMARK  Name = 
REMARK  3 active torsions:
REMARK  status: ('A' for Active; 'I' for Inactive)
REMARK    1  A    between atoms: C_1  and  N_2
REMARK    2  A    between atoms: C_4  and  C_5
REMARK    3  A    between atoms: C_11  and  C_12
REMARK                            x       y       z     vdW  Elec       q    Type
REMARK                         _______ _______ _______ _____ _____    ______ ____
ROOT
ATOM      1  C   UNL     1       5.264   3.932  17.842  0.00  0.00    +0.000 C 
ATOM      2  C   UNL     1       6.217   4.867  17.689  0.00  0.00    +0.000 C 
ATOM      3  C   UNL     1       6.962   5.673  18.688  0.00  0.00    +0.000 C 
ATOM      4  O   UNL     1       7.006   5.580  19.896  0.00  0.00    +0.000 OA
ATOM      5  N   UNL     1       7.634   6.597  17.904  0.00  0.00    +0.000 N 
ATOM      6  N   UNL     1       7.487   6.436  16.549  0.00  0.00    +0.000 NA
ATOM      7  C   UNL     1       6.685   5.410  16.380  0.00  0.00    +0.000 C 
ATOM      8  H   UNL     1       8.257   7.302  18.278  0.00  0.00    +0.000 HD
ENDROOT
BRANCH   1  12
ATOM      9  C   UNL     1       4.792   0.977  21.763  0.00  0.00    +0.000 C 
ATOM     10  N   UNL     1       4.488   1.987  20.774  0.00  0.00    +0.000 N 
ATOM     11  C   UNL     1       5.327   2.353  19.760  0.00  0.00    +0.000 A 
ATOM     12  C   UNL     1       4.717   3.341  19.025  0.00  0.00    +0.000 A 
ATOM     13  C   UNL     1       3.412   3.570  19.602  0.00  0.00    +0.000 A 
ATOM     14  C   UNL     1       2.294   4.409  19.342  0.00  0.00    +0.000 A 
ATOM     15 BR   UNL     1       2.270   5.690  17.941  0.00  0.00    +0.000 Br
ATOM     16  C   UNL     1       1.141   4.327  20.138  0.00  0.00    +0.000 A 
ATOM     17  C   UNL     1       1.075   3.438  21.202  0.00  0.00    +0.000 A 
ATOM     18  C   UNL     1       2.156   2.612  21.500  0.00  0.00    +0.000 A 
ATOM     19  C   UNL     1       3.306   2.690  20.695  0.00  0.00    +0.000 A 
ENDBRANCH   1  12
BRANCH   7  20
ATOM     20  C   UNL     1       6.381   4.891  15.081  0.00  0.00    +0.000 A 
ATOM     21  C   UNL     1       5.260   4.270  14.564  0.00  0.00    +0.000 A 
ATOM     22  N   UNL     1       5.348   3.879  13.238  0.00  0.00    +0.000 NA
ATOM     23  N   UNL     1       6.529   4.170  12.724  0.00  0.00    +0.000 NA
ATOM     24  S   UNL     1       7.553   4.905  13.825  0.00  0.00    +0.000 S 
ENDBRANCH   7  20
TORSDOF 2
ENDMDL
MODEL 5
REMARK VINA RESULT:      -6.3      6.791      9.661
REMARK  Name = 
REMARK  3 active torsions:
REMARK  status: ('A' for Active; 'I' for Inactive)
REMARK    1  A    between atoms: C_1  and  N_2
REMARK    2  A    between atoms: C_4  and  C_5
REMARK    3  A    between atoms: C_11  and  C_12
REMARK                            x       y       z     vdW  Elec       q    Type
REMARK                         _______ _______ _______ _____ _____    ______ ____
ROOT
ATOM      1  C   UNL     1      -1.079  11.216  19.326  0.00  0.00    +0.000 C 
ATOM      2  C   UNL     1       0.091  11.730  18.909  0.00  0.00    +0.000 C 
ATOM      3  C   UNL     1       0.455  13.101  18.474  0.00  0.00    +0.000 C 
ATOM      4  O   UNL     1      -0.175  14.136  18.532  0.00  0.00    +0.000 OA
ATOM      5  N   UNL     1       1.734  12.938  17.967  0.00  0.00    +0.000 N 
ATOM      6  N   UNL     1       2.261  11.678  18.097  0.00  0.00    +0.000 NA
ATOM      7  C   UNL     1       1.339  10.944  18.674  0.00  0.00    +0.000 C 
ATOM      8  H   UNL     1       2.290  13.698  17.592  0.00  0.00    +0.000 HD
ENDROOT
BRANCH   1  12
ATOM      9  C   UNL     1      -4.673  13.643  21.675  0.00  0.00    +0.000 C 
ATOM     10  N   UNL     1      -3.972  12.911  20.644  0.00  0.00    +0.000 N 
ATOM     11  C   UNL     1      -2.673  12.499  20.736  0.00  0.00    +0.000 A 
ATOM     12  C   UNL     1      -2.339  11.846  19.573  0.00  0.00    +0.000 A 
ATOM     13  C   UNL     1      -3.514  11.828  18.733  0.00  0.00    +0.000 A 
ATOM     14  C   UNL     1      -3.867  11.323  17.450  0.00  0.00    +0.000 A 
ATOM     15 BR   UNL     1      -2.631  10.428  16.320  0.00  0.00    +0.000 Br
ATOM     16  C   UNL     1      -5.171  11.482  16.956  0.00  0.00    +0.000 A 
ATOM     17  C   UNL     1      -6.136  12.146  17.700  0.00  0.00    +0.000 A 
ATOM     18  C   UNL     1      -5.826  12.670  18.952  0.00  0.00    +0.000 A 
ATOM     19  C   UNL     1      -4.521  12.501  19.449  0.00  0.00    +0.000 A 
ENDBRANCH   1  12
BRANCH   7  20
ATOM     20  C   UNL     1       1.578   9.585  19.054  0.00  0.00    +0.000 A 
ATOM     21  C   UNL     1       1.380   8.900  20.238  0.00  0.00    +0.000 A 
ATOM     22  N   UNL     1       1.762   7.568  20.232  0.00  0.00    +0.000 NA
ATOM     23  N   UNL     1       2.274   7.216  19.067  0.00  0.00    +0.000 NA
ATOM     24  S   UNL     1       2.313   8.477  17.967  0.00  0.00    +0.000 S 
ENDBRANCH   7  20
TORSDOF 2
ENDMDL
MODEL 6
REMARK VINA RESULT:      -6.2      3.774      7.063
REMARK  Name = 
REMARK  3 active torsions:
REMARK  status: ('A' for Active; 'I' for Inactive)
REMARK    1  A    between atoms: C_1  and  N_2
REMARK    2  A    between atoms: C_4  and  C_5
REMARK    3  A    between atoms: C_11  and  C_12
REMARK                            x       y       z     vdW  Elec       q    Type
REMARK                         _______ _______ _______ _____ _____    ______ ____
ROOT
ATOM      1  C   UNL     1       2.688   6.896  19.563  0.00  0.00    +0.000 C 
ATOM      2  C   UNL     1       2.201   7.999  18.970  0.00  0.00    +0.000 C 
ATOM      3  C   UNL     1       2.427   8.558  17.614  0.00  0.00    +0.000 C 
ATOM      4  O   UNL     1       2.986   8.078  16.650  0.00  0.00    +0.000 OA
ATOM      5  N   UNL     1       1.826   9.804  17.686  0.00  0.00    +0.000 N 
ATOM      6  N   UNL     1       1.181  10.078  18.866  0.00  0.00    +0.000 NA
ATOM      7  C   UNL     1       1.351   9.029  19.637  0.00  0.00    +0.000 C 
ATOM      8  H   UNL     1       1.788  10.454  16.910  0.00  0.00    +0.000 HD
ENDROOT
BRANCH   1  12
ATOM      9  C   UNL     1       6.444   4.635  17.303  0.00  0.00    +0.000 C 
ATOM     10  N   UNL     1       5.193   4.830  18.002  0.00  0.00    +0.000 N 
ATOM     11  C   UNL     1       4.721   6.044  18.415  0.00  0.00    +0.000 A 
ATOM     12  C   UNL     1       3.517   5.849  19.051  0.00  0.00    +0.000 A 
ATOM     13  C   UNL     1       3.218   4.437  18.993  0.00  0.00    +0.000 A 
ATOM     14  C   UNL     1       2.168   3.578  19.422  0.00  0.00    +0.000 A 
ATOM     15 BR   UNL     1       0.657   4.201  20.388  0.00  0.00    +0.000 Br
ATOM     16  C   UNL     1       2.218   2.202  19.151  0.00  0.00    +0.000 A 
ATOM     17  C   UNL     1       3.295   1.650  18.472  0.00  0.00    +0.000 A 
ATOM     18  C   UNL     1       4.352   2.454  18.051  0.00  0.00    +0.000 A 
ATOM     19  C   UNL     1       4.296   3.834  18.316  0.00  0.00    +0.000 A 
ENDBRANCH   1  12
BRANCH   7  20
ATOM     20  C   UNL     1       0.729   8.924  20.922  0.00  0.00    +0.000 A 
ATOM     21  C   UNL     1      -0.477   8.388  21.332  0.00  0.00    +0.000 A 
ATOM     22  N   UNL     1      -0.751   8.493  22.686  0.00  0.00    +0.000 NA
ATOM     23  N   UNL     1       0.216   9.123  23.328  0.00  0.00    +0.000 NA
ATOM     24  S   UNL     1       1.460   9.605  22.319  0.00  0.00    +0.000 S 
ENDBRANCH   7  20
TORSDOF 2
ENDMDL
MODEL 7
REMARK VINA RESULT:      -6.1      8.628     12.565
REMARK  Name = 
REMARK  3 active torsions:
REMARK  status: ('A' for Active; 'I' for Inactive)
REMARK    1  A    between atoms: C_1  and  N_2
REMARK    2  A    between atoms: C_4  and  C_5
REMARK    3  A    between atoms: C_11  and  C_12
REMARK                            x       y       z     vdW  Elec       q    Type
REMARK                         _______ _______ _______ _____ _____    ______ ____
ROOT
ATOM      1  C   UNL     1      -3.127  11.681  19.290  0.00  0.00    +0.000 C 
ATOM      2  C   UNL     1      -4.173  11.646  18.447  0.00  0.00    +0.000 C 
ATOM      3  C   UNL     1      -4.233  11.520  16.970  0.00  0.00    +0.000 C 
ATOM      4  O   UNL     1      -3.360  11.263  16.168  0.00  0.00    +0.000 OA
ATOM      5  N   UNL     1      -5.567  11.765  16.689  0.00  0.00    +0.000 N 
ATOM      6  N   UNL     1      -6.375  11.945  17.784  0.00  0.00    +0.000 NA
ATOM      7  C   UNL     1      -5.599  11.852  18.839  0.00  0.00    +0.000 C 
ATOM      8  H   UNL     1      -5.957  11.743  15.754  0.00  0.00    +0.000 HD
ENDROOT
BRANCH   1  12
ATOM      9  C   UNL     1       1.144   9.582  17.996  0.00  0.00    +0.000 C 
ATOM     10  N   UNL     1       0.203  10.560  18.494  0.00  0.00    +0.000 N 
ATOM     11  C   UNL     1      -1.152  10.385  18.519  0.00  0.00    +0.000 A 
ATOM     12  C   UNL     1      -1.727  11.518  19.046  0.00  0.00    +0.000 A 
ATOM     13  C   UNL     1      -0.659  12.425  19.396  0.00  0.00    +0.000 A 
ATOM     14  C   UNL     1      -0.543  13.719  19.976  0.00  0.00    +0.000 A 
ATOM     15 BR   UNL     1      -2.049  14.762  20.478  0.00  0.00    +0.000 Br
ATOM     16  C   UNL     1       0.720  14.291  20.194  0.00  0.00    +0.000 A 
ATOM     17  C   UNL     1       1.877  13.615  19.836  0.00  0.00    +0.000 A 
ATOM     18  C   UNL     1       1.806  12.354  19.249  0.00  0.00    +0.000 A 
ATOM     19  C   UNL     1       0.539  11.779  19.040  0.00  0.00    +0.000 A 
ENDBRANCH   1  12
BRANCH   7  20
ATOM     20  C   UNL     1      -6.123  11.896  20.171  0.00  0.00    +0.000 A 
ATOM     21  C   UNL     1      -5.716  12.563  21.311  0.00  0.00    +0.000 A 
ATOM     22  N   UNL     1      -6.479  12.335  22.444  0.00  0.00    +0.000 NA
ATOM     23  N   UNL     1      -7.460  11.484  22.204  0.00  0.00    +0.000 NA
ATOM     24  S   UNL     1      -7.475  10.937  20.623  0.00  0.00    +0.000 S 
ENDBRANCH   7  20
TORSDOF 2
ENDMDL
MODEL 8
REMARK VINA RESULT:      -6.0      9.009     10.867
REMARK  Name = 
REMARK  3 active torsions:
REMARK  status: ('A' for Active; 'I' for Inactive)
REMARK    1  A    between atoms: C_1  and  N_2
REMARK    2  A    between atoms: C_4  and  C_5
REMARK    3  A    between atoms: C_11  and  C_12
REMARK                            x       y       z     vdW  Elec       q    Type
REMARK                         _______ _______ _______ _____ _____    ______ ____
ROOT
ATOM      1  C   UNL     1      -1.416  11.055  19.230  0.00  0.00    +0.000 C 
ATOM      2  C   UNL     1      -0.388  11.899  19.422  0.00  0.00    +0.000 C 
ATOM      3  C   UNL     1       0.075  13.068  18.634  0.00  0.00    +0.000 C 
ATOM      4  O   UNL     1      -0.449  13.646  17.705  0.00  0.00    +0.000 OA
ATOM      5  N   UNL     1       1.292  13.377  19.219  0.00  0.00    +0.000 N 
ATOM      6  N   UNL     1       1.624  12.623  20.317  0.00  0.00    +0.000 NA
ATOM      7  C   UNL     1       0.648  11.762  20.488  0.00  0.00    +0.000 C 
ATOM      8  H   UNL     1       1.877  14.149  18.922  0.00  0.00    +0.000 HD
ENDROOT
BRANCH   1  12
ATOM      9  C   UNL     1      -3.755  10.388  14.939  0.00  0.00    +0.000 C 
ATOM     10  N   UNL     1      -3.502  10.790  16.305  0.00  0.00    +0.000 N 
ATOM     11  C   UNL     1      -2.339  10.548  16.979  0.00  0.00    +0.000 A 
ATOM     12  C   UNL     1      -2.458  11.061  18.250  0.00  0.00    +0.000 A 
ATOM     13  C   UNL     1      -3.758  11.684  18.348  0.00  0.00    +0.000 A 
ATOM     14  C   UNL     1      -4.499  12.391  19.334  0.00  0.00    +0.000 A 
ATOM     15 BR   UNL     1      -3.846  12.699  21.090  0.00  0.00    +0.000 Br
ATOM     16  C   UNL     1      -5.778  12.891  19.042  0.00  0.00    +0.000 A 
ATOM     17  C   UNL     1      -6.349  12.693  17.793  0.00  0.00    +0.000 A 
ATOM     18  C   UNL     1      -5.663  11.990  16.805  0.00  0.00    +0.000 A 
ATOM     19  C   UNL     1      -4.378  11.498  17.098  0.00  0.00    +0.000 A 
ENDBRANCH   1  12
BRANCH   7  20
ATOM     20  C   UNL     1       0.611  10.870  21.607  0.00  0.00    +0.000 A 
ATOM     21  C   UNL     1       1.407   9.800  21.973  0.00  0.00    +0.000 A 
ATOM     22  N   UNL     1       1.039   9.150  23.139  0.00  0.00    +0.000 NA
ATOM     23  N   UNL     1      -0.043   9.687  23.673  0.00  0.00    +0.000 NA
ATOM     24  S   UNL     1      -0.640  10.970  22.780  0.00  0.00    +0.000 S 
ENDBRANCH   7  20
TORSDOF 2
ENDMDL
MODEL 9
REMARK VINA RESULT:      -6.0      8.331     12.343
REMARK  Name = 
REMARK  3 active torsions:
REMARK  status: ('A' for Active; 'I' for Inactive)
REMARK    1  A    between atoms: C_1  and  N_2
REMARK    2  A    between atoms: C_4  and  C_5
REMARK    3  A    between atoms: C_11  and  C_12
REMARK                            x       y       z     vdW  Elec       q    Type
REMARK                         _______ _______ _______ _____ _____    ______ ____
ROOT
ATOM      1  C   UNL     1      -1.992  12.282  20.098  0.00  0.00    +0.000 C 
ATOM      2  C   UNL     1      -2.337  12.282  21.397  0.00  0.00    +0.000 C 
ATOM      3  C   UNL     1      -1.581  11.873  22.607  0.00  0.00    +0.000 C 
ATOM      4  O   UNL     1      -0.411  11.582  22.740  0.00  0.00    +0.000 OA
ATOM      5  N   UNL     1      -2.544  11.903  23.602  0.00  0.00    +0.000 N 
ATOM      6  N   UNL     1      -3.780  12.353  23.209  0.00  0.00    +0.000 NA
ATOM      7  C   UNL     1      -3.692  12.616  21.926  0.00  0.00    +0.000 C 
ATOM      8  H   UNL     1      -2.355  11.686  24.573  0.00  0.00    +0.000 HD
ENDROOT
BRANCH   1  12
ATOM      9  C   UNL     1       1.698   9.644  18.161  0.00  0.00    +0.000 C 
ATOM     10  N   UNL     1       0.930  10.781  18.619  0.00  0.00    +0.000 N 
ATOM     11  C   UNL     1      -0.327  10.700  19.149  0.00  0.00    +0.000 A 
ATOM     12  C   UNL     1      -0.749  11.971  19.462  0.00  0.00    +0.000 A 
ATOM     13  C   UNL     1       0.326  12.879  19.136  0.00  0.00    +0.000 A 
ATOM     14  C   UNL     1       0.563  14.280  19.214  0.00  0.00    +0.000 A 
ATOM     15 BR   UNL     1      -0.738  15.511  19.844  0.00  0.00    +0.000 Br
ATOM     16  C   UNL     1       1.794  14.818  18.808  0.00  0.00    +0.000 A 
ATOM     17  C   UNL     1       2.797  13.999  18.310  0.00  0.00    +0.000 A 
ATOM     18  C   UNL     1       2.598  12.625  18.200  0.00  0.00    +0.000 A 
ATOM     19  C   UNL     1       1.367  12.087  18.616  0.00  0.00    +0.000 A 
ENDBRANCH   1  12
BRANCH   7  20
ATOM     20  C   UNL     1      -4.776  13.200  21.196  0.00  0.00    +0.000 A 
ATOM     21  C   UNL     1      -5.006  14.483  20.736  0.00  0.00    +0.000 A 
ATOM     22  N   UNL     1      -6.207  14.677  20.073  0.00  0.00    +0.000 NA
ATOM     23  N   UNL     1      -6.921  13.566  20.030  0.00  0.00    +0.000 NA
ATOM     24  S   UNL     1      -6.169  12.280  20.791  0.00  0.00    +0.000 S 
ENDBRANCH   7  20
TORSDOF 2
ENDMDL
