MODEL 1
REMARK VINA RESULT:      -8.5      0.000      0.000
REMARK  Name = 
REMARK  2 active torsions:
REMARK  status: ('A' for Active; 'I' for Inactive)
REMARK    1  A    between atoms: C_1  and  C_2
REMARK    2  A    between atoms: C_7  and  C_8
REMARK                            x       y       z     vdW  Elec       q    Type
REMARK                         _______ _______ _______ _____ _____    ______ ____
ROOT
ATOM      1  C   UNL     1       8.017   5.205  12.602  0.00  0.00    +0.000 C 
ATOM      2  C   UNL     1       7.069   4.838  13.700  0.00  0.00    +0.000 A 
ATOM      3  N   UNL     1       5.882   4.321  13.348  0.00  0.00    +0.000 NA
ATOM      4  C   UNL     1       5.051   4.031  14.360  0.00  0.00    +0.000 A 
ATOM      5  C   UNL     1       5.361   4.241  15.693  0.00  0.00    +0.000 A 
ATOM      6  C   UNL     1       4.472   3.972  16.754  0.00  0.00    +0.000 A 
ATOM      7  C   UNL     1       4.776   4.369  18.064  0.00  0.00    +0.000 A 
ATOM      8  C   UNL     1       6.074   4.899  18.219  0.00  0.00    +0.000 A 
ATOM      9  N   UNL     1       6.515   5.365  19.462  0.00  0.00    +0.000 N 
ATOM     10  C   UNL     1       7.801   5.191  19.889  0.00  0.00    +0.000 C 
ATOM     11  O   UNL     1       8.154   5.475  21.029  0.00  0.00    +0.000 OA
ATOM     12  N   UNL     1       6.965   5.043  17.215  0.00  0.00    +0.000 NA
ATOM     13  C   UNL     1       6.611   4.777  15.949  0.00  0.00    +0.000 A 
ATOM     14  N   UNL     1       7.464   5.062  14.966  0.00  0.00    +0.000 NA
ATOM     15  H   UNL     1       5.860   5.596  20.190  0.00  0.00    +0.000 HD
ENDROOT
BRANCH   7  16
ATOM     16  C   UNL     1       3.769   4.209  19.170  0.00  0.00    +0.000 A 
ATOM     17  C   UNL     1       2.814   5.208  19.490  0.00  0.00    +0.000 A 
ATOM     18 CL   UNL     1       2.914   6.836  18.896  0.00  0.00    +0.000 Cl
ATOM     19  C   UNL     1       1.758   4.976  20.390  0.00  0.00    +0.000 A 
ATOM     20  C   UNL     1       1.695   3.794  21.111  0.00  0.00    +0.000 A 
ATOM     21  C   UNL     1       2.692   2.845  20.934  0.00  0.00    +0.000 A 
ATOM     22  C   UNL     1       3.693   3.031  19.963  0.00  0.00    +0.000 A 
ATOM     23 CL   UNL     1       4.797   1.697  19.811  0.00  0.00    +0.000 Cl
ENDBRANCH   7  16
TORSDOF 1
ENDMDL
MODEL 2
REMARK VINA RESULT:      -8.5      0.237      1.964
REMARK  Name = 
REMARK  2 active torsions:
REMARK  status: ('A' for Active; 'I' for Inactive)
REMARK    1  A    between atoms: C_1  and  C_2
REMARK    2  A    between atoms: C_7  and  C_8
REMARK                            x       y       z     vdW  Elec       q    Type
REMARK                         _______ _______ _______ _____ _____    ______ ____
ROOT
ATOM      1  C   UNL     1       8.051   5.279  12.581  0.00  0.00    +0.000 C 
ATOM      2  C   UNL     1       7.104   4.885  13.670  0.00  0.00    +0.000 A 
ATOM      3  N   UNL     1       5.925   4.356  13.306  0.00  0.00    +0.000 NA
ATOM      4  C   UNL     1       5.094   4.041  14.310  0.00  0.00    +0.000 A 
ATOM      5  C   UNL     1       5.395   4.238  15.647  0.00  0.00    +0.000 A 
ATOM      6  C   UNL     1       4.506   3.943  16.700  0.00  0.00    +0.000 A 
ATOM      7  C   UNL     1       4.797   4.327  18.017  0.00  0.00    +0.000 A 
ATOM      8  C   UNL     1       6.087   4.873  18.185  0.00  0.00    +0.000 A 
ATOM      9  N   UNL     1       6.517   5.329  19.436  0.00  0.00    +0.000 N 
ATOM     10  C   UNL     1       7.803   5.167  19.867  0.00  0.00    +0.000 C 
ATOM     11  O   UNL     1       8.147   5.441  21.012  0.00  0.00    +0.000 OA
ATOM     12  N   UNL     1       6.981   5.042  17.187  0.00  0.00    +0.000 NA
ATOM     13  C   UNL     1       6.636   4.788  15.916  0.00  0.00    +0.000 A 
ATOM     14  N   UNL     1       7.490   5.097  14.941  0.00  0.00    +0.000 NA
ATOM     15  H   UNL     1       5.855   5.541  20.164  0.00  0.00    +0.000 HD
ENDROOT
BRANCH   7  16
ATOM     16  C   UNL     1       3.788   4.138  19.116  0.00  0.00    +0.000 A 
ATOM     17  C   UNL     1       3.612   2.904  19.794  0.00  0.00    +0.000 A 
ATOM     18 CL   UNL     1       4.271   1.406  19.215  0.00  0.00    +0.000 Cl
ATOM     19  C   UNL     1       2.810   2.787  20.943  0.00  0.00    +0.000 A 
ATOM     20  C   UNL     1       2.042   3.856  21.377  0.00  0.00    +0.000 A 
ATOM     21  C   UNL     1       2.074   5.042  20.657  0.00  0.00    +0.000 A 
ATOM     22  C   UNL     1       2.950   5.195  19.568  0.00  0.00    +0.000 A 
ATOM     23 CL   UNL     1       2.928   6.778  18.851  0.00  0.00    +0.000 Cl
ENDBRANCH   7  16
TORSDOF 1
ENDMDL
MODEL 3
REMARK VINA RESULT:      -6.8      3.179      6.393
REMARK  Name = 
REMARK  2 active torsions:
REMARK  status: ('A' for Active; 'I' for Inactive)
REMARK    1  A    between atoms: C_1  and  C_2
REMARK    2  A    between atoms: C_7  and  C_8
REMARK                            x       y       z     vdW  Elec       q    Type
REMARK                         _______ _______ _______ _____ _____    ______ ____
ROOT
ATOM      1  C   UNL     1      -0.175   8.563  21.661  0.00  0.00    +0.000 C 
ATOM      2  C   UNL     1       0.874   8.178  20.666  0.00  0.00    +0.000 A 
ATOM      3  N   UNL     1       1.144   9.050  19.682  0.00  0.00    +0.000 NA
ATOM      4  C   UNL     1       2.070   8.657  18.795  0.00  0.00    +0.000 A 
ATOM      5  C   UNL     1       2.724   7.437  18.857  0.00  0.00    +0.000 A 
ATOM      6  C   UNL     1       3.669   7.009  17.903  0.00  0.00    +0.000 A 
ATOM      7  C   UNL     1       4.165   5.697  17.921  0.00  0.00    +0.000 A 
ATOM      8  C   UNL     1       3.754   4.941  19.039  0.00  0.00    +0.000 A 
ATOM      9  N   UNL     1       4.142   3.606  19.185  0.00  0.00    +0.000 N 
ATOM     10  C   UNL     1       4.447   3.066  20.403  0.00  0.00    +0.000 C 
ATOM     11  O   UNL     1       4.919   1.940  20.519  0.00  0.00    +0.000 OA
ATOM     12  N   UNL     1       2.941   5.401  20.014  0.00  0.00    +0.000 NA
ATOM     13  C   UNL     1       2.375   6.613  19.912  0.00  0.00    +0.000 A 
ATOM     14  N   UNL     1       1.469   6.981  20.817  0.00  0.00    +0.000 NA
ATOM     15  H   UNL     1       4.474   3.075  18.398  0.00  0.00    +0.000 HD
ENDROOT
BRANCH   7  16
ATOM     16  C   UNL     1       5.064   5.198  16.824  0.00  0.00    +0.000 A 
ATOM     17  C   UNL     1       4.640   4.255  15.851  0.00  0.00    +0.000 A 
ATOM     18 CL   UNL     1       3.185   3.322  16.012  0.00  0.00    +0.000 Cl
ATOM     19  C   UNL     1       5.416   3.941  14.722  0.00  0.00    +0.000 A 
ATOM     20  C   UNL     1       6.702   4.442  14.590  0.00  0.00    +0.000 A 
ATOM     21  C   UNL     1       7.211   5.256  15.592  0.00  0.00    +0.000 A 
ATOM     22  C   UNL     1       6.403   5.653  16.673  0.00  0.00    +0.000 A 
ATOM     23 CL   UNL     1       7.176   6.751  17.776  0.00  0.00    +0.000 Cl
ENDBRANCH   7  16
TORSDOF 1
ENDMDL
MODEL 4
REMARK VINA RESULT:      -6.5      1.590      1.738
REMARK  Name = 
REMARK  2 active torsions:
REMARK  status: ('A' for Active; 'I' for Inactive)
REMARK    1  A    between atoms: C_1  and  C_2
REMARK    2  A    between atoms: C_7  and  C_8
REMARK                            x       y       z     vdW  Elec       q    Type
REMARK                         _______ _______ _______ _____ _____    ______ ____
ROOT
ATOM      1  C   UNL     1       7.705   4.322  11.349  0.00  0.00    +0.000 C 
ATOM      2  C   UNL     1       6.884   4.315  12.599  0.00  0.00    +0.000 A 
ATOM      3  N   UNL     1       5.746   3.604  12.590  0.00  0.00    +0.000 NA
ATOM      4  C   UNL     1       5.025   3.645  13.720  0.00  0.00    +0.000 A 
ATOM      5  C   UNL     1       5.397   4.366  14.843  0.00  0.00    +0.000 A 
ATOM      6  C   UNL     1       4.620   4.440  16.016  0.00  0.00    +0.000 A 
ATOM      7  C   UNL     1       4.961   5.324  17.050  0.00  0.00    +0.000 A 
ATOM      8  C   UNL     1       6.195   5.982  16.861  0.00  0.00    +0.000 A 
ATOM      9  N   UNL     1       6.660   6.916  17.792  0.00  0.00    +0.000 N 
ATOM     10  C   UNL     1       7.983   7.026  18.114  0.00  0.00    +0.000 C 
ATOM     11  O   UNL     1       8.376   7.746  19.026  0.00  0.00    +0.000 OA
ATOM     12  N   UNL     1       6.993   5.814  15.785  0.00  0.00    +0.000 NA
ATOM     13  C   UNL     1       6.588   5.063  14.749  0.00  0.00    +0.000 A 
ATOM     14  N   UNL     1       7.334   5.030  13.646  0.00  0.00    +0.000 NA
ATOM     15  H   UNL     1       6.032   7.346  18.451  0.00  0.00    +0.000 HD
ENDROOT
BRANCH   7  16
ATOM     16  C   UNL     1       4.058   5.505  18.238  0.00  0.00    +0.000 A 
ATOM     17  C   UNL     1       3.218   6.638  18.400  0.00  0.00    +0.000 A 
ATOM     18 CL   UNL     1       3.387   8.082  17.451  0.00  0.00    +0.000 Cl
ATOM     19  C   UNL     1       2.240   6.710  19.408  0.00  0.00    +0.000 A 
ATOM     20  C   UNL     1       2.156   5.723  20.378  0.00  0.00    +0.000 A 
ATOM     21  C   UNL     1       3.054   4.666  20.341  0.00  0.00    +0.000 A 
ATOM     22  C   UNL     1       3.967   4.539  19.279  0.00  0.00    +0.000 A 
ATOM     23 CL   UNL     1       4.944   3.103  19.345  0.00  0.00    +0.000 Cl
ENDBRANCH   7  16
TORSDOF 1
ENDMDL
MODEL 5
REMARK VINA RESULT:      -6.4      3.233      6.346
REMARK  Name = 
REMARK  2 active torsions:
REMARK  status: ('A' for Active; 'I' for Inactive)
REMARK    1  A    between atoms: C_1  and  C_2
REMARK    2  A    between atoms: C_7  and  C_8
REMARK                            x       y       z     vdW  Elec       q    Type
REMARK                         _______ _______ _______ _____ _____    ______ ____
ROOT
ATOM      1  C   UNL     1      -0.274   8.640  21.746  0.00  0.00    +0.000 C 
ATOM      2  C   UNL     1       0.772   8.263  20.745  0.00  0.00    +0.000 A 
ATOM      3  N   UNL     1       1.035   9.140  19.763  0.00  0.00    +0.000 NA
ATOM      4  C   UNL     1       1.959   8.753  18.870  0.00  0.00    +0.000 A 
ATOM      5  C   UNL     1       2.616   7.535  18.923  0.00  0.00    +0.000 A 
ATOM      6  C   UNL     1       3.558   7.113  17.964  0.00  0.00    +0.000 A 
ATOM      7  C   UNL     1       4.057   5.803  17.974  0.00  0.00    +0.000 A 
ATOM      8  C   UNL     1       3.652   5.041  19.090  0.00  0.00    +0.000 A 
ATOM      9  N   UNL     1       4.045   3.705  19.228  0.00  0.00    +0.000 N 
ATOM     10  C   UNL     1       4.356   3.161  20.442  0.00  0.00    +0.000 C 
ATOM     11  O   UNL     1       4.831   2.035  20.550  0.00  0.00    +0.000 OA
ATOM     12  N   UNL     1       2.842   5.493  20.070  0.00  0.00    +0.000 NA
ATOM     13  C   UNL     1       2.273   6.705  19.976  0.00  0.00    +0.000 A 
ATOM     14  N   UNL     1       1.370   7.067  20.887  0.00  0.00    +0.000 NA
ATOM     15  H   UNL     1       4.374   3.179  18.436  0.00  0.00    +0.000 HD
ENDROOT
BRANCH   7  16
ATOM     16  C   UNL     1       4.953   5.311  16.870  0.00  0.00    +0.000 A 
ATOM     17  C   UNL     1       6.232   5.869  16.612  0.00  0.00    +0.000 A 
ATOM     18 CL   UNL     1       6.760   7.376  17.292  0.00  0.00    +0.000 Cl
ATOM     19  C   UNL     1       7.139   5.282  15.712  0.00  0.00    +0.000 A 
ATOM     20  C   UNL     1       6.755   4.204  14.929  0.00  0.00    +0.000 A 
ATOM     21  C   UNL     1       5.462   3.716  15.046  0.00  0.00    +0.000 A 
ATOM     22  C   UNL     1       4.585   4.235  16.016  0.00  0.00    +0.000 A 
ATOM     23 CL   UNL     1       3.043   3.436  16.085  0.00  0.00    +0.000 Cl
ENDBRANCH   7  16
TORSDOF 1
ENDMDL
MODEL 6
REMARK VINA RESULT:      -6.3      5.931      7.781
REMARK  Name = 
REMARK  2 active torsions:
REMARK  status: ('A' for Active; 'I' for Inactive)
REMARK    1  A    between atoms: C_1  and  C_2
REMARK    2  A    between atoms: C_7  and  C_8
REMARK                            x       y       z     vdW  Elec       q    Type
REMARK                         _______ _______ _______ _____ _____    ______ ____
ROOT
ATOM      1  C   UNL     1       4.667   4.516  19.066  0.00  0.00    +0.000 C 
ATOM      2  C   UNL     1       3.866   5.734  18.730  0.00  0.00    +0.000 A 
ATOM      3  N   UNL     1       3.968   6.220  17.484  0.00  0.00    +0.000 NA
ATOM      4  C   UNL     1       3.256   7.328  17.231  0.00  0.00    +0.000 A 
ATOM      5  C   UNL     1       2.459   7.960  18.171  0.00  0.00    +0.000 A 
ATOM      6  C   UNL     1       1.741   9.146  17.916  0.00  0.00    +0.000 A 
ATOM      7  C   UNL     1       1.095   9.832  18.954  0.00  0.00    +0.000 A 
ATOM      8  C   UNL     1       1.110   9.153  20.191  0.00  0.00    +0.000 A 
ATOM      9  N   UNL     1       0.530   9.722  21.329  0.00  0.00    +0.000 N 
ATOM     10  C   UNL     1      -0.140   8.974  22.255  0.00  0.00    +0.000 C 
ATOM     11  O   UNL     1      -0.765   9.485  23.179  0.00  0.00    +0.000 OA
ATOM     12  N   UNL     1       1.699   7.956  20.397  0.00  0.00    +0.000 NA
ATOM     13  C   UNL     1       2.421   7.377  19.425  0.00  0.00    +0.000 A 
ATOM     14  N   UNL     1       3.105   6.268  19.703  0.00  0.00    +0.000 NA
ATOM     15  H   UNL     1       0.346  10.710  21.376  0.00  0.00    +0.000 HD
ENDROOT
BRANCH   7  16
ATOM     16  C   UNL     1       0.449  11.168  18.709  0.00  0.00    +0.000 A 
ATOM     17  C   UNL     1      -0.954  11.330  18.569  0.00  0.00    +0.000 A 
ATOM     18 CL   UNL     1      -2.037   9.998  18.317  0.00  0.00    +0.000 Cl
ATOM     19  C   UNL     1      -1.564  12.596  18.535  0.00  0.00    +0.000 A 
ATOM     20  C   UNL     1      -0.793  13.748  18.494  0.00  0.00    +0.000 A 
ATOM     21  C   UNL     1       0.589  13.630  18.484  0.00  0.00    +0.000 A 
ATOM     22  C   UNL     1       1.202  12.372  18.619  0.00  0.00    +0.000 A 
ATOM     23 CL   UNL     1       2.938  12.426  18.688  0.00  0.00    +0.000 Cl
ENDBRANCH   7  16
TORSDOF 1
ENDMDL
MODEL 7
REMARK VINA RESULT:      -6.2      1.543      2.592
REMARK  Name = 
REMARK  2 active torsions:
REMARK  status: ('A' for Active; 'I' for Inactive)
REMARK    1  A    between atoms: C_1  and  C_2
REMARK    2  A    between atoms: C_7  and  C_8
REMARK                            x       y       z     vdW  Elec       q    Type
REMARK                         _______ _______ _______ _____ _____    ______ ____
ROOT
ATOM      1  C   UNL     1       7.758   4.324  11.253  0.00  0.00    +0.000 C 
ATOM      2  C   UNL     1       6.913   4.285  12.487  0.00  0.00    +0.000 A 
ATOM      3  N   UNL     1       5.770   3.583  12.434  0.00  0.00    +0.000 NA
ATOM      4  C   UNL     1       5.028   3.595  13.551  0.00  0.00    +0.000 A 
ATOM      5  C   UNL     1       5.382   4.279  14.702  0.00  0.00    +0.000 A 
ATOM      6  C   UNL     1       4.583   4.323  15.862  0.00  0.00    +0.000 A 
ATOM      7  C   UNL     1       4.911   5.172  16.929  0.00  0.00    +0.000 A 
ATOM      8  C   UNL     1       6.152   5.826  16.784  0.00  0.00    +0.000 A 
ATOM      9  N   UNL     1       6.606   6.728  17.752  0.00  0.00    +0.000 N 
ATOM     10  C   UNL     1       7.923   6.818  18.102  0.00  0.00    +0.000 C 
ATOM     11  O   UNL     1       8.304   7.506  19.044  0.00  0.00    +0.000 OA
ATOM     12  N   UNL     1       6.970   5.685  15.719  0.00  0.00    +0.000 NA
ATOM     13  C   UNL     1       6.581   4.969  14.653  0.00  0.00    +0.000 A 
ATOM     14  N   UNL     1       7.347   4.964  13.564  0.00  0.00    +0.000 NA
ATOM     15  H   UNL     1       5.969   7.143  18.411  0.00  0.00    +0.000 HD
ENDROOT
BRANCH   7  16
ATOM     16  C   UNL     1       3.986   5.324  18.105  0.00  0.00    +0.000 A 
ATOM     17  C   UNL     1       3.767   4.287  19.050  0.00  0.00    +0.000 A 
ATOM     18 CL   UNL     1       4.252   2.643  18.777  0.00  0.00    +0.000 Cl
ATOM     19  C   UNL     1       3.057   4.499  20.245  0.00  0.00    +0.000 A 
ATOM     20  C   UNL     1       2.417   5.707  20.479  0.00  0.00    +0.000 A 
ATOM     21  C   UNL     1       2.486   6.701  19.514  0.00  0.00    +0.000 A 
ATOM     22  C   UNL     1       3.277   6.529  18.363  0.00  0.00    +0.000 A 
ATOM     23 CL   UNL     1       3.323   7.915  17.316  0.00  0.00    +0.000 Cl
ENDBRANCH   7  16
TORSDOF 1
ENDMDL
MODEL 8
REMARK VINA RESULT:      -6.2      9.184     10.237
REMARK  Name = 
REMARK  2 active torsions:
REMARK  status: ('A' for Active; 'I' for Inactive)
REMARK    1  A    between atoms: C_1  and  C_2
REMARK    2  A    between atoms: C_7  and  C_8
REMARK                            x       y       z     vdW  Elec       q    Type
REMARK                         _______ _______ _______ _____ _____    ______ ____
ROOT
ATOM      1  C   UNL     1       4.861  15.385  21.258  0.00  0.00    +0.000 C 
ATOM      2  C   UNL     1       3.746  14.682  20.550  0.00  0.00    +0.000 A 
ATOM      3  N   UNL     1       3.504  15.027  19.276  0.00  0.00    +0.000 NA
ATOM      4  C   UNL     1       2.480  14.394  18.686  0.00  0.00    +0.000 A 
ATOM      5  C   UNL     1       1.697  13.443  19.320  0.00  0.00    +0.000 A 
ATOM      6  C   UNL     1       0.596  12.806  18.712  0.00  0.00    +0.000 A 
ATOM      7  C   UNL     1      -0.261  11.985  19.458  0.00  0.00    +0.000 A 
ATOM      8  C   UNL     1       0.170  11.753  20.782  0.00  0.00    +0.000 A 
ATOM      9  N   UNL     1      -0.593  10.977  21.660  0.00  0.00    +0.000 N 
ATOM     10  C   UNL     1      -0.021  10.131  22.568  0.00  0.00    +0.000 C 
ATOM     11  O   UNL     1      -0.685   9.351  23.242  0.00  0.00    +0.000 OA
ATOM     12  N   UNL     1       1.293  12.273  21.321  0.00  0.00    +0.000 NA
ATOM     13  C   UNL     1       2.031  13.158  20.632  0.00  0.00    +0.000 A 
ATOM     14  N   UNL     1       3.052  13.759  21.241  0.00  0.00    +0.000 NA
ATOM     15  H   UNL     1      -1.568  10.803  21.482  0.00  0.00    +0.000 HD
ENDROOT
BRANCH   7  16
ATOM     16  C   UNL     1      -1.513  11.419  18.845  0.00  0.00    +0.000 A 
ATOM     17  C   UNL     1      -2.799  11.975  19.072  0.00  0.00    +0.000 A 
ATOM     18 CL   UNL     1      -3.122  13.127  20.329  0.00  0.00    +0.000 Cl
ATOM     19  C   UNL     1      -3.932  11.564  18.347  0.00  0.00    +0.000 A 
ATOM     20  C   UNL     1      -3.858  10.489  17.475  0.00  0.00    +0.000 A 
ATOM     21  C   UNL     1      -2.649   9.823  17.331  0.00  0.00    +0.000 A 
ATOM     22  C   UNL     1      -1.491  10.293  17.977  0.00  0.00    +0.000 A 
ATOM     23 CL   UNL     1      -0.051   9.396  17.602  0.00  0.00    +0.000 Cl
ENDBRANCH   7  16
TORSDOF 1
ENDMDL
MODEL 9
REMARK VINA RESULT:      -6.2      4.067      6.567
REMARK  Name = 
REMARK  2 active torsions:
REMARK  status: ('A' for Active; 'I' for Inactive)
REMARK    1  A    between atoms: C_1  and  C_2
REMARK    2  A    between atoms: C_7  and  C_8
REMARK                            x       y       z     vdW  Elec       q    Type
REMARK                         _______ _______ _______ _____ _____    ______ ____
ROOT
ATOM      1  C   UNL     1      -0.652  11.172  20.576  0.00  0.00    +0.000 C 
ATOM      2  C   UNL     1       0.346  10.299  19.885  0.00  0.00    +0.000 A 
ATOM      3  N   UNL     1       0.930  10.780  18.777  0.00  0.00    +0.000 NA
ATOM      4  C   UNL     1       1.799   9.956  18.172  0.00  0.00    +0.000 A 
ATOM      5  C   UNL     1       2.097   8.683  18.630  0.00  0.00    +0.000 A 
ATOM      6  C   UNL     1       2.980   7.803  17.972  0.00  0.00    +0.000 A 
ATOM      7  C   UNL     1       3.105   6.469  18.385  0.00  0.00    +0.000 A 
ATOM      8  C   UNL     1       2.403   6.164  19.570  0.00  0.00    +0.000 A 
ATOM      9  N   UNL     1       2.407   4.867  20.094  0.00  0.00    +0.000 N 
ATOM     10  C   UNL     1       2.440   4.626  21.439  0.00  0.00    +0.000 C 
ATOM     11  O   UNL     1       2.582   3.497  21.897  0.00  0.00    +0.000 OA
ATOM     12  N   UNL     1       1.652   7.048  20.262  0.00  0.00    +0.000 NA
ATOM     13  C   UNL     1       1.442   8.283  19.781  0.00  0.00    +0.000 A 
ATOM     14  N   UNL     1       0.585   9.084  20.413  0.00  0.00    +0.000 NA
ATOM     15  H   UNL     1       2.659   4.079  19.522  0.00  0.00    +0.000 HD
ENDROOT
BRANCH   7  16
ATOM     16  C   UNL     1       3.939   5.494  17.600  0.00  0.00    +0.000 A 
ATOM     17  C   UNL     1       5.308   5.721  17.299  0.00  0.00    +0.000 A 
ATOM     18 CL   UNL     1       6.073   7.268  17.490  0.00  0.00    +0.000 Cl
ATOM     19  C   UNL     1       6.128   4.727  16.737  0.00  0.00    +0.000 A 
ATOM     20  C   UNL     1       5.586   3.520  16.321  0.00  0.00    +0.000 A 
ATOM     21  C   UNL     1       4.222   3.312  16.465  0.00  0.00    +0.000 A 
ATOM     22  C   UNL     1       3.417   4.263  17.118  0.00  0.00    +0.000 A 
ATOM     23 CL   UNL     1       1.754   3.789  17.296  0.00  0.00    +0.000 Cl
ENDBRANCH   7  16
TORSDOF 1
ENDMDL
