MODEL 1
REMARK VINA RESULT:      -8.4      0.000      0.000
REMARK  Name = 
REMARK  6 active torsions:
REMARK  status: ('A' for Active; 'I' for Inactive)
REMARK    1  A    between atoms: C_1  and  C_2
REMARK    2  A    between atoms: C_2  and  N_3
REMARK    3  A    between atoms: C_4  and  O_5
REMARK    4  A    between atoms: C_6  and  C_7
REMARK    5  A    between atoms: N_8  and  N_9
REMARK    6  A    between atoms: C_18  and  C_19
REMARK                            x       y       z     vdW  Elec       q    Type
REMARK                         _______ _______ _______ _____ _____    ______ ____
ROOT
ATOM      1  N   UNL     1       2.590   5.151  20.115  0.00  0.00    +0.000 N 
ATOM      2  C   UNL     1       2.192   6.471  20.013  0.00  0.00    +0.000 A 
ATOM      3  C   UNL     1       2.780   7.007  18.880  0.00  0.00    +0.000 A 
ATOM      4  C   UNL     1       3.517   5.956  18.255  0.00  0.00    +0.000 A 
ATOM      5  C   UNL     1       4.283   5.888  17.075  0.00  0.00    +0.000 A 
ATOM      6  C   UNL     1       4.925   4.705  16.712  0.00  0.00    +0.000 A 
ATOM      7  C   UNL     1       4.775   3.563  17.499  0.00  0.00    +0.000 A 
ATOM      8  C   UNL     1       4.007   3.596  18.673  0.00  0.00    +0.000 A 
ATOM      9  C   UNL     1       3.389   4.808  19.036  0.00  0.00    +0.000 A 
ENDROOT
BRANCH   6  10
ATOM     10  C   UNL     1       5.746   4.673  15.469  0.00  0.00    +0.000 C 
ATOM     11  N   UNL     1       6.675   5.563  15.294  0.00  0.00    +0.000 NA
ATOM     12  N   UNL     1       7.428   5.483  14.164  0.00  0.00    +0.000 N 
ATOM     13  C   UNL     1       7.161   4.722  13.059  0.00  0.00    +0.000 C 
ATOM     14  O   UNL     1       7.895   4.737  12.073  0.00  0.00    +0.000 OA
ATOM     15  C   UNL     1       5.876   3.949  13.084  0.00  0.00    +0.000 C 
ATOM     16  C   UNL     1       5.505   3.542  14.490  0.00  0.00    +0.000 C 
ATOM     17  H   UNL     1       8.247   6.081  14.124  0.00  0.00    +0.000 HD
ENDBRANCH   6  10
BRANCH   1  19
ATOM     18  C   UNL     1       1.140   3.292  20.866  0.00  0.00    +0.000 C 
ATOM     19  C   UNL     1       2.271   4.245  21.209  0.00  0.00    +0.000 C 
ENDBRANCH   1  19
BRANCH   2  20
ATOM     20  O   UNL     1       1.387   7.075  20.885  0.00  0.00    +0.000 OA
ATOM     21  H   UNL     1       1.092   6.452  21.569  0.00  0.00    +0.000 HD
ENDBRANCH   2  20
BRANCH   3  22
ATOM     22  C   UNL     1       2.627   8.382  18.438  0.00  0.00    +0.000 C 
ATOM     23  N   UNL     1       1.468   8.953  18.548  0.00  0.00    +0.000 NA
BRANCH  23  24
ATOM     24  N   UNL     1       1.493  10.277  18.140  0.00  0.00    +0.000 NA
ATOM     25  C   UNL     1       0.991  11.111  19.003  0.00  0.00    +0.000 C 
ATOM     26  C   UNL     1       1.020  12.586  18.670  0.00  0.00    +0.000 C 
ATOM     27  C   UNL     1      -0.406  13.119  18.708  0.00  0.00    +0.000 C 
ATOM     28  C   UNL     1      -1.076  12.833  20.053  0.00  0.00    +0.000 C 
ATOM     29  C   UNL     1      -1.050  11.341  20.392  0.00  0.00    +0.000 C 
ATOM     30  C   UNL     1       0.363  10.765  20.342  0.00  0.00    +0.000 C 
ENDBRANCH  23  24
ENDBRANCH   3  22
TORSDOF 5
ENDMDL
MODEL 2
REMARK VINA RESULT:      -8.0      2.275      7.988
REMARK  Name = 
REMARK  6 active torsions:
REMARK  status: ('A' for Active; 'I' for Inactive)
REMARK    1  A    between atoms: C_1  and  C_2
REMARK    2  A    between atoms: C_2  and  N_3
REMARK    3  A    between atoms: C_4  and  O_5
REMARK    4  A    between atoms: C_6  and  C_7
REMARK    5  A    between atoms: N_8  and  N_9
REMARK    6  A    between atoms: C_18  and  C_19
REMARK                            x       y       z     vdW  Elec       q    Type
REMARK                         _______ _______ _______ _____ _____    ______ ____
ROOT
ATOM      1  N   UNL     1       3.401   3.853  20.111  0.00  0.00    +0.000 N 
ATOM      2  C   UNL     1       4.518   3.798  19.297  0.00  0.00    +0.000 A 
ATOM      3  C   UNL     1       4.632   5.015  18.648  0.00  0.00    +0.000 A 
ATOM      4  C   UNL     1       3.574   5.845  19.127  0.00  0.00    +0.000 A 
ATOM      5  C   UNL     1       3.201   7.178  18.862  0.00  0.00    +0.000 A 
ATOM      6  C   UNL     1       2.080   7.736  19.475  0.00  0.00    +0.000 A 
ATOM      7  C   UNL     1       1.343   6.987  20.391  0.00  0.00    +0.000 A 
ATOM      8  C   UNL     1       1.697   5.661  20.686  0.00  0.00    +0.000 A 
ATOM      9  C   UNL     1       2.818   5.107  20.037  0.00  0.00    +0.000 A 
ENDROOT
BRANCH   6  10
ATOM     10  C   UNL     1       1.700   9.141  19.157  0.00  0.00    +0.000 C 
ATOM     11  N   UNL     1       2.156   9.697  18.076  0.00  0.00    +0.000 NA
ATOM     12  N   UNL     1       1.761  10.969  17.798  0.00  0.00    +0.000 N 
ATOM     13  C   UNL     1       1.133  11.832  18.655  0.00  0.00    +0.000 C 
ATOM     14  O   UNL     1       0.837  12.976  18.315  0.00  0.00    +0.000 OA
ATOM     15  C   UNL     1       0.919  11.335  20.054  0.00  0.00    +0.000 C 
ATOM     16  C   UNL     1       0.725   9.839  20.084  0.00  0.00    +0.000 C 
ATOM     17  H   UNL     1       1.994  11.324  16.877  0.00  0.00    +0.000 HD
ENDBRANCH   6  10
BRANCH   1  19
ATOM     18  C   UNL     1       1.610   2.156  20.300  0.00  0.00    +0.000 C 
ATOM     19  C   UNL     1       2.868   2.754  20.904  0.00  0.00    +0.000 C 
ENDBRANCH   1  19
BRANCH   2  20
ATOM     20  O   UNL     1       5.308   2.732  19.189  0.00  0.00    +0.000 OA
ATOM     21  H   UNL     1       5.933   2.839  18.453  0.00  0.00    +0.000 HD
ENDBRANCH   2  20
BRANCH   3  22
ATOM     22  C   UNL     1       5.667   5.347  17.684  0.00  0.00    +0.000 C 
ATOM     23  N   UNL     1       6.092   4.428  16.875  0.00  0.00    +0.000 NA
BRANCH  23  24
ATOM     24  N   UNL     1       7.034   4.908  15.980  0.00  0.00    +0.000 NA
ATOM     25  C   UNL     1       6.633   4.928  14.743  0.00  0.00    +0.000 C 
ATOM     26  C   UNL     1       7.573   5.485  13.697  0.00  0.00    +0.000 C 
ATOM     27  C   UNL     1       7.810   4.416  12.639  0.00  0.00    +0.000 C 
ATOM     28  C   UNL     1       6.493   3.918  12.041  0.00  0.00    +0.000 C 
ATOM     29  C   UNL     1       5.539   3.404  13.122  0.00  0.00    +0.000 C 
ATOM     30  C   UNL     1       5.294   4.444  14.214  0.00  0.00    +0.000 C 
ENDBRANCH  23  24
ENDBRANCH   3  22
TORSDOF 5
ENDMDL
MODEL 3
REMARK VINA RESULT:      -7.7      1.372      1.678
REMARK  Name = 
REMARK  6 active torsions:
REMARK  status: ('A' for Active; 'I' for Inactive)
REMARK    1  A    between atoms: C_1  and  C_2
REMARK    2  A    between atoms: C_2  and  N_3
REMARK    3  A    between atoms: C_4  and  O_5
REMARK    4  A    between atoms: C_6  and  C_7
REMARK    5  A    between atoms: N_8  and  N_9
REMARK    6  A    between atoms: C_18  and  C_19
REMARK                            x       y       z     vdW  Elec       q    Type
REMARK                         _______ _______ _______ _____ _____    ______ ____
ROOT
ATOM      1  N   UNL     1       2.078   3.721  19.680  0.00  0.00    +0.000 N 
ATOM      2  C   UNL     1       1.667   5.016  19.941  0.00  0.00    +0.000 A 
ATOM      3  C   UNL     1       2.421   5.868  19.153  0.00  0.00    +0.000 A 
ATOM      4  C   UNL     1       3.280   5.052  18.357  0.00  0.00    +0.000 A 
ATOM      5  C   UNL     1       4.234   5.344  17.362  0.00  0.00    +0.000 A 
ATOM      6  C   UNL     1       4.959   4.320  16.752  0.00  0.00    +0.000 A 
ATOM      7  C   UNL     1       4.711   2.992  17.096  0.00  0.00    +0.000 A 
ATOM      8  C   UNL     1       3.758   2.669  18.074  0.00  0.00    +0.000 A 
ATOM      9  C   UNL     1       3.054   3.719  18.697  0.00  0.00    +0.000 A 
ENDROOT
BRANCH   6  10
ATOM     10  C   UNL     1       5.977   4.664  15.720  0.00  0.00    +0.000 C 
ATOM     11  N   UNL     1       6.767   5.675  15.913  0.00  0.00    +0.000 NA
ATOM     12  N   UNL     1       7.707   5.940  14.966  0.00  0.00    +0.000 N 
ATOM     13  C   UNL     1       7.759   5.417  13.702  0.00  0.00    +0.000 C 
ATOM     14  O   UNL     1       8.641   5.739  12.907  0.00  0.00    +0.000 OA
ATOM     15  C   UNL     1       6.629   4.509  13.315  0.00  0.00    +0.000 C 
ATOM     16  C   UNL     1       6.092   3.759  14.510  0.00  0.00    +0.000 C 
ATOM     17  H   UNL     1       8.414   6.625  15.210  0.00  0.00    +0.000 HD
ENDBRANCH   6  10
BRANCH   1  19
ATOM     18  C   UNL     1       1.974   2.502  21.831  0.00  0.00    +0.000 C 
ATOM     19  C   UNL     1       1.605   2.522  20.358  0.00  0.00    +0.000 C 
ENDBRANCH   1  19
BRANCH   2  20
ATOM     20  O   UNL     1       0.712   5.331  20.813  0.00  0.00    +0.000 OA
ATOM     21  H   UNL     1       0.454   4.556  21.337  0.00  0.00    +0.000 HD
ENDBRANCH   2  20
BRANCH   3  22
ATOM     22  C   UNL     1       2.307   7.316  19.154  0.00  0.00    +0.000 C 
ATOM     23  N   UNL     1       1.313   7.869  19.778  0.00  0.00    +0.000 NA
BRANCH  23  24
ATOM     24  N   UNL     1       1.371   9.252  19.739  0.00  0.00    +0.000 NA
ATOM     25  C   UNL     1       1.077   9.830  20.866  0.00  0.00    +0.000 C 
ATOM     26  C   UNL     1       1.162  11.339  20.938  0.00  0.00    +0.000 C 
ATOM     27  C   UNL     1      -0.195  11.882  21.365  0.00  0.00    +0.000 C 
ATOM     28  C   UNL     1      -0.661  11.255  22.680  0.00  0.00    +0.000 C 
ATOM     29  C   UNL     1      -0.693   9.727  22.599  0.00  0.00    +0.000 C 
ATOM     30  C   UNL     1       0.647   9.147  22.153  0.00  0.00    +0.000 C 
ENDBRANCH  23  24
ENDBRANCH   3  22
TORSDOF 5
ENDMDL
MODEL 4
REMARK VINA RESULT:      -7.5      0.906      1.032
REMARK  Name = 
REMARK  6 active torsions:
REMARK  status: ('A' for Active; 'I' for Inactive)
REMARK    1  A    between atoms: C_1  and  C_2
REMARK    2  A    between atoms: C_2  and  N_3
REMARK    3  A    between atoms: C_4  and  O_5
REMARK    4  A    between atoms: C_6  and  C_7
REMARK    5  A    between atoms: N_8  and  N_9
REMARK    6  A    between atoms: C_18  and  C_19
REMARK                            x       y       z     vdW  Elec       q    Type
REMARK                         _______ _______ _______ _____ _____    ______ ____
ROOT
ATOM      1  N   UNL     1       2.586   4.898  20.375  0.00  0.00    +0.000 N 
ATOM      2  C   UNL     1       2.128   6.198  20.257  0.00  0.00    +0.000 A 
ATOM      3  C   UNL     1       2.604   6.711  19.063  0.00  0.00    +0.000 A 
ATOM      4  C   UNL     1       3.331   5.665  18.419  0.00  0.00    +0.000 A 
ATOM      5  C   UNL     1       4.006   5.580  17.185  0.00  0.00    +0.000 A 
ATOM      6  C   UNL     1       4.665   4.408  16.815  0.00  0.00    +0.000 A 
ATOM      7  C   UNL     1       4.623   3.294  17.652  0.00  0.00    +0.000 A 
ATOM      8  C   UNL     1       3.948   3.343  18.881  0.00  0.00    +0.000 A 
ATOM      9  C   UNL     1       3.311   4.544  19.248  0.00  0.00    +0.000 A 
ENDROOT
BRANCH   6  10
ATOM     10  C   UNL     1       5.387   4.359  15.513  0.00  0.00    +0.000 C 
ATOM     11  N   UNL     1       5.372   3.265  14.815  0.00  0.00    +0.000 NA
ATOM     12  N   UNL     1       6.013   3.266  13.615  0.00  0.00    +0.000 N 
ATOM     13  C   UNL     1       6.894   4.211  13.163  0.00  0.00    +0.000 C 
ATOM     14  O   UNL     1       7.442   4.109  12.067  0.00  0.00    +0.000 OA
ATOM     15  C   UNL     1       7.221   5.320  14.118  0.00  0.00    +0.000 C 
ATOM     16  C   UNL     1       6.053   5.629  15.024  0.00  0.00    +0.000 C 
ATOM     17  H   UNL     1       5.852   2.463  13.016  0.00  0.00    +0.000 HD
ENDBRANCH   6  10
BRANCH   1  19
ATOM     18  C   UNL     1       1.337   2.959  21.272  0.00  0.00    +0.000 C 
ATOM     19  C   UNL     1       2.390   4.024  21.523  0.00  0.00    +0.000 C 
ENDBRANCH   1  19
BRANCH   2  20
ATOM     20  O   UNL     1       1.370   6.804  21.168  0.00  0.00    +0.000 OA
ATOM     21  H   UNL     1       0.961   6.155  21.764  0.00  0.00    +0.000 HD
ENDBRANCH   2  20
BRANCH   3  22
ATOM     22  C   UNL     1       2.361   8.060  18.585  0.00  0.00    +0.000 C 
ATOM     23  N   UNL     1       1.493   8.800  19.203  0.00  0.00    +0.000 NA
BRANCH  23  24
ATOM     24  N   UNL     1       1.414  10.076  18.669  0.00  0.00    +0.000 NA
ATOM     25  C   UNL     1       0.936  10.968  19.486  0.00  0.00    +0.000 C 
ATOM     26  C   UNL     1       0.859  12.402  19.011  0.00  0.00    +0.000 C 
ATOM     27  C   UNL     1      -0.586  12.870  19.116  0.00  0.00    +0.000 C 
ATOM     28  C   UNL     1      -1.132  12.690  20.533  0.00  0.00    +0.000 C 
ATOM     29  C   UNL     1      -1.000  11.241  21.011  0.00  0.00    +0.000 C 
ATOM     30  C   UNL     1       0.435  10.729  20.900  0.00  0.00    +0.000 C 
ENDBRANCH  23  24
ENDBRANCH   3  22
TORSDOF 5
ENDMDL
MODEL 5
REMARK VINA RESULT:      -7.3      2.593      4.084
REMARK  Name = 
REMARK  6 active torsions:
REMARK  status: ('A' for Active; 'I' for Inactive)
REMARK    1  A    between atoms: C_1  and  C_2
REMARK    2  A    between atoms: C_2  and  N_3
REMARK    3  A    between atoms: C_4  and  O_5
REMARK    4  A    between atoms: C_6  and  C_7
REMARK    5  A    between atoms: N_8  and  N_9
REMARK    6  A    between atoms: C_18  and  C_19
REMARK                            x       y       z     vdW  Elec       q    Type
REMARK                         _______ _______ _______ _____ _____    ______ ____
ROOT
ATOM      1  N   UNL     1       0.521   8.936  20.729  0.00  0.00    +0.000 N 
ATOM      2  C   UNL     1       0.548  10.187  20.140  0.00  0.00    +0.000 A 
ATOM      3  C   UNL     1       1.447  10.143  19.089  0.00  0.00    +0.000 A 
ATOM      4  C   UNL     1       1.939   8.806  19.015  0.00  0.00    +0.000 A 
ATOM      5  C   UNL     1       2.839   8.158  18.145  0.00  0.00    +0.000 A 
ATOM      6  C   UNL     1       3.159   6.813  18.328  0.00  0.00    +0.000 A 
ATOM      7  C   UNL     1       2.553   6.088  19.353  0.00  0.00    +0.000 A 
ATOM      8  C   UNL     1       1.643   6.701  20.227  0.00  0.00    +0.000 A 
ATOM      9  C   UNL     1       1.353   8.067  20.042  0.00  0.00    +0.000 A 
ENDROOT
BRANCH   6  10
ATOM     10  C   UNL     1       4.131   6.163  17.404  0.00  0.00    +0.000 C 
ATOM     11  N   UNL     1       4.753   6.884  16.522  0.00  0.00    +0.000 NA
ATOM     12  N   UNL     1       5.659   6.265  15.718  0.00  0.00    +0.000 N 
ATOM     13  C   UNL     1       5.814   4.914  15.554  0.00  0.00    +0.000 C 
ATOM     14  O   UNL     1       6.650   4.451  14.782  0.00  0.00    +0.000 OA
ATOM     15  C   UNL     1       4.843   4.043  16.295  0.00  0.00    +0.000 C 
ATOM     16  C   UNL     1       4.404   4.684  17.589  0.00  0.00    +0.000 C 
ATOM     17  H   UNL     1       6.250   6.867  15.154  0.00  0.00    +0.000 HD
ENDBRANCH   6  10
BRANCH   1  19
ATOM     18  C   UNL     1       0.194   9.371  23.143  0.00  0.00    +0.000 C 
ATOM     19  C   UNL     1      -0.227   8.571  21.923  0.00  0.00    +0.000 C 
ENDBRANCH   1  19
BRANCH   2  20
ATOM     20  O   UNL     1      -0.180  11.221  20.557  0.00  0.00    +0.000 OA
ATOM     21  H   UNL     1      -1.074  11.188  20.177  0.00  0.00    +0.000 HD
ENDBRANCH   2  20
BRANCH   3  22
ATOM     22  C   UNL     1       1.777  11.270  18.233  0.00  0.00    +0.000 C 
ATOM     23  N   UNL     1       1.928  12.442  18.766  0.00  0.00    +0.000 NA
BRANCH  23  24
ATOM     24  N   UNL     1       2.296  13.400  17.835  0.00  0.00    +0.000 NA
ATOM     25  C   UNL     1       3.056  14.342  18.311  0.00  0.00    +0.000 C 
ATOM     26  C   UNL     1       3.554  15.407  17.359  0.00  0.00    +0.000 C 
ATOM     27  C   UNL     1       3.112  16.768  17.880  0.00  0.00    +0.000 C 
ATOM     28  C   UNL     1       3.582  16.998  19.317  0.00  0.00    +0.000 C 
ATOM     29  C   UNL     1       3.107  15.883  20.253  0.00  0.00    +0.000 C 
ATOM     30  C   UNL     1       3.515  14.500  19.750  0.00  0.00    +0.000 C 
ENDBRANCH  23  24
ENDBRANCH   3  22
TORSDOF 5
ENDMDL
MODEL 6
REMARK VINA RESULT:      -7.0      8.258     10.414
REMARK  Name = 
REMARK  6 active torsions:
REMARK  status: ('A' for Active; 'I' for Inactive)
REMARK    1  A    between atoms: C_1  and  C_2
REMARK    2  A    between atoms: C_2  and  N_3
REMARK    3  A    between atoms: C_4  and  O_5
REMARK    4  A    between atoms: C_6  and  C_7
REMARK    5  A    between atoms: N_8  and  N_9
REMARK    6  A    between atoms: C_18  and  C_19
REMARK                            x       y       z     vdW  Elec       q    Type
REMARK                         _______ _______ _______ _____ _____    ______ ____
ROOT
ATOM      1  N   UNL     1      -5.662  13.277  23.196  0.00  0.00    +0.000 N 
ATOM      2  C   UNL     1      -4.488  13.850  23.650  0.00  0.00    +0.000 A 
ATOM      3  C   UNL     1      -3.529  13.695  22.664  0.00  0.00    +0.000 A 
ATOM      4  C   UNL     1      -4.164  13.049  21.561  0.00  0.00    +0.000 A 
ATOM      5  C   UNL     1      -3.714  12.663  20.283  0.00  0.00    +0.000 A 
ATOM      6  C   UNL     1      -4.571  12.013  19.395  0.00  0.00    +0.000 A 
ATOM      7  C   UNL     1      -5.897  11.779  19.755  0.00  0.00    +0.000 A 
ATOM      8  C   UNL     1      -6.379  12.164  21.016  0.00  0.00    +0.000 A 
ATOM      9  C   UNL     1      -5.491  12.796  21.908  0.00  0.00    +0.000 A 
ENDROOT
BRANCH   6  10
ATOM     10  C   UNL     1      -4.057  11.597  18.060  0.00  0.00    +0.000 C 
ATOM     11  N   UNL     1      -4.894  11.398  17.088  0.00  0.00    +0.000 NA
ATOM     12  N   UNL     1      -4.388  11.053  15.873  0.00  0.00    +0.000 N 
ATOM     13  C   UNL     1      -3.109  10.641  15.610  0.00  0.00    +0.000 C 
ATOM     14  O   UNL     1      -2.754  10.327  14.476  0.00  0.00    +0.000 OA
ATOM     15  C   UNL     1      -2.202  10.505  16.797  0.00  0.00    +0.000 C 
ATOM     16  C   UNL     1      -2.556  11.497  17.878  0.00  0.00    +0.000 C 
ATOM     17  H   UNL     1      -5.037  11.063  15.093  0.00  0.00    +0.000 HD
ENDBRANCH   6  10
BRANCH   1  19
ATOM     18  C   UNL     1      -7.748  14.399  23.912  0.00  0.00    +0.000 C 
ATOM     19  C   UNL     1      -6.897  13.143  23.956  0.00  0.00    +0.000 C 
ENDBRANCH   1  19
BRANCH   2  20
ATOM     20  O   UNL     1      -4.357  14.431  24.840  0.00  0.00    +0.000 OA
ATOM     21  H   UNL     1      -4.280  15.395  24.747  0.00  0.00    +0.000 HD
ENDBRANCH   2  20
BRANCH   3  22
ATOM     22  C   UNL     1      -2.152  14.144  22.770  0.00  0.00    +0.000 C 
ATOM     23  N   UNL     1      -1.195  13.289  22.587  0.00  0.00    +0.000 NA
BRANCH  23  24
ATOM     24  N   UNL     1       0.058  13.876  22.662  0.00  0.00    +0.000 NA
ATOM     25  C   UNL     1       0.638  14.046  21.511  0.00  0.00    +0.000 C 
ATOM     26  C   UNL     1       1.988  14.728  21.485  0.00  0.00    +0.000 C 
ATOM     27  C   UNL     1       2.988  13.796  20.815  0.00  0.00    +0.000 C 
ATOM     28  C   UNL     1       2.516  13.375  19.422  0.00  0.00    +0.000 C 
ATOM     29  C   UNL     1       1.128  12.732  19.466  0.00  0.00    +0.000 C 
ATOM     30  C   UNL     1       0.100  13.630  20.152  0.00  0.00    +0.000 C 
ENDBRANCH  23  24
ENDBRANCH   3  22
TORSDOF 5
ENDMDL
MODEL 7
REMARK VINA RESULT:      -7.0      4.039     10.964
REMARK  Name = 
REMARK  6 active torsions:
REMARK  status: ('A' for Active; 'I' for Inactive)
REMARK    1  A    between atoms: C_1  and  C_2
REMARK    2  A    between atoms: C_2  and  N_3
REMARK    3  A    between atoms: C_4  and  O_5
REMARK    4  A    between atoms: C_6  and  C_7
REMARK    5  A    between atoms: N_8  and  N_9
REMARK    6  A    between atoms: C_18  and  C_19
REMARK                            x       y       z     vdW  Elec       q    Type
REMARK                         _______ _______ _______ _____ _____    ______ ____
ROOT
ATOM      1  N   UNL     1       1.136  12.375  18.762  0.00  0.00    +0.000 N 
ATOM      2  C   UNL     1       1.391  11.023  18.902  0.00  0.00    +0.000 A 
ATOM      3  C   UNL     1       0.460  10.503  19.785  0.00  0.00    +0.000 A 
ATOM      4  C   UNL     1      -0.413  11.572  20.149  0.00  0.00    +0.000 A 
ATOM      5  C   UNL     1      -1.550  11.646  20.978  0.00  0.00    +0.000 A 
ATOM      6  C   UNL     1      -2.209  12.860  21.172  0.00  0.00    +0.000 A 
ATOM      7  C   UNL     1      -1.768  14.004  20.509  0.00  0.00    +0.000 A 
ATOM      8  C   UNL     1      -0.646  13.959  19.667  0.00  0.00    +0.000 A 
ATOM      9  C   UNL     1       0.021  12.729  19.505  0.00  0.00    +0.000 A 
ENDROOT
BRANCH   6  10
ATOM     10  C   UNL     1      -3.395  12.909  22.072  0.00  0.00    +0.000 C 
ATOM     11  N   UNL     1      -3.422  12.163  23.135  0.00  0.00    +0.000 NA
ATOM     12  N   UNL     1      -4.505  12.259  23.953  0.00  0.00    +0.000 N 
ATOM     13  C   UNL     1      -5.696  12.866  23.659  0.00  0.00    +0.000 C 
ATOM     14  O   UNL     1      -6.628  12.878  24.461  0.00  0.00    +0.000 OA
ATOM     15  C   UNL     1      -5.829  13.426  22.274  0.00  0.00    +0.000 C 
ATOM     16  C   UNL     1      -4.497  13.894  21.739  0.00  0.00    +0.000 C 
ATOM     17  H   UNL     1      -4.434  11.797  24.853  0.00  0.00    +0.000 HD
ENDBRANCH   6  10
BRANCH   1  19
ATOM     18  C   UNL     1       3.067  13.921  18.802  0.00  0.00    +0.000 C 
ATOM     19  C   UNL     1       1.934  13.318  17.992  0.00  0.00    +0.000 C 
ENDBRANCH   1  19
BRANCH   2  20
ATOM     20  O   UNL     1       2.377  10.383  18.277  0.00  0.00    +0.000 OA
ATOM     21  H   UNL     1       3.177  10.932  18.244  0.00  0.00    +0.000 HD
ENDBRANCH   2  20
BRANCH   3  22
ATOM     22  C   UNL     1       0.408   9.116  20.213  0.00  0.00    +0.000 C 
ATOM     23  N   UNL     1       1.510   8.513  20.530  0.00  0.00    +0.000 NA
BRANCH  23  24
ATOM     24  N   UNL     1       1.294   7.218  20.972  0.00  0.00    +0.000 NA
ATOM     25  C   UNL     1       1.941   6.310  20.302  0.00  0.00    +0.000 C 
ATOM     26  C   UNL     1       1.810   4.869  20.743  0.00  0.00    +0.000 C 
ATOM     27  C   UNL     1       1.291   4.049  19.569  0.00  0.00    +0.000 C 
ATOM     28  C   UNL     1       2.182   4.208  18.336  0.00  0.00    +0.000 C 
ATOM     29  C   UNL     1       2.340   5.678  17.938  0.00  0.00    +0.000 C 
ATOM     30  C   UNL     1       2.839   6.537  19.098  0.00  0.00    +0.000 C 
ENDBRANCH  23  24
ENDBRANCH   3  22
TORSDOF 5
ENDMDL
MODEL 8
REMARK VINA RESULT:      -6.8      3.655      7.083
REMARK  Name = 
REMARK  6 active torsions:
REMARK  status: ('A' for Active; 'I' for Inactive)
REMARK    1  A    between atoms: C_1  and  C_2
REMARK    2  A    between atoms: C_2  and  N_3
REMARK    3  A    between atoms: C_4  and  O_5
REMARK    4  A    between atoms: C_6  and  C_7
REMARK    5  A    between atoms: N_8  and  N_9
REMARK    6  A    between atoms: C_18  and  C_19
REMARK                            x       y       z     vdW  Elec       q    Type
REMARK                         _______ _______ _______ _____ _____    ______ ____
ROOT
ATOM      1  N   UNL     1      -1.075  12.247  22.228  0.00  0.00    +0.000 N 
ATOM      2  C   UNL     1      -0.767  13.346  21.446  0.00  0.00    +0.000 A 
ATOM      3  C   UNL     1       0.084  12.926  20.438  0.00  0.00    +0.000 A 
ATOM      4  C   UNL     1       0.252  11.517  20.593  0.00  0.00    +0.000 A 
ATOM      5  C   UNL     1       0.966  10.547  19.862  0.00  0.00    +0.000 A 
ATOM      6  C   UNL     1       0.969   9.213  20.267  0.00  0.00    +0.000 A 
ATOM      7  C   UNL     1       0.226   8.823  21.381  0.00  0.00    +0.000 A 
ATOM      8  C   UNL     1      -0.506   9.763  22.122  0.00  0.00    +0.000 A 
ATOM      9  C   UNL     1      -0.475  11.111  21.711  0.00  0.00    +0.000 A 
ENDROOT
BRANCH   6  10
ATOM     10  C   UNL     1       1.752   8.216  19.485  0.00  0.00    +0.000 C 
ATOM     11  N   UNL     1       2.101   7.097  20.043  0.00  0.00    +0.000 NA
ATOM     12  N   UNL     1       2.786   6.195  19.289  0.00  0.00    +0.000 N 
ATOM     13  C   UNL     1       3.376   6.429  18.077  0.00  0.00    +0.000 C 
ATOM     14  O   UNL     1       3.997   5.549  17.482  0.00  0.00    +0.000 OA
ATOM     15  C   UNL     1       3.305   7.838  17.568  0.00  0.00    +0.000 C 
ATOM     16  C   UNL     1       2.046   8.528  18.031  0.00  0.00    +0.000 C 
ATOM     17  H   UNL     1       2.904   5.270  19.688  0.00  0.00    +0.000 HD
ENDBRANCH   6  10
BRANCH   1  19
ATOM     18  C   UNL     1      -3.349  12.483  23.176  0.00  0.00    +0.000 C 
ATOM     19  C   UNL     1      -1.871  12.264  23.447  0.00  0.00    +0.000 C 
ENDBRANCH   1  19
BRANCH   2  20
ATOM     20  O   UNL     1      -1.231  14.573  21.672  0.00  0.00    +0.000 OA
ATOM     21  H   UNL     1      -1.778  14.593  22.475  0.00  0.00    +0.000 HD
ENDBRANCH   2  20
BRANCH   3  22
ATOM     22  C   UNL     1       0.654  13.792  19.421  0.00  0.00    +0.000 C 
ATOM     23  N   UNL     1       1.160  14.931  19.775  0.00  0.00    +0.000 NA
BRANCH  23  24
ATOM     24  N   UNL     1       1.715  15.616  18.706  0.00  0.00    +0.000 NA
ATOM     25  C   UNL     1       1.178  16.779  18.481  0.00  0.00    +0.000 C 
ATOM     26  C   UNL     1       1.751  17.626  17.366  0.00  0.00    +0.000 C 
ATOM     27  C   UNL     1       0.637  17.946  16.379  0.00  0.00    +0.000 C 
ATOM     28  C   UNL     1      -0.552  18.613  17.073  0.00  0.00    +0.000 C 
ATOM     29  C   UNL     1      -1.084  17.762  18.228  0.00  0.00    +0.000 C 
ATOM     30  C   UNL     1       0.012  17.402  19.228  0.00  0.00    +0.000 C 
ENDBRANCH  23  24
ENDBRANCH   3  22
TORSDOF 5
ENDMDL
MODEL 9
REMARK VINA RESULT:      -6.8      3.503      6.747
REMARK  Name = 
REMARK  6 active torsions:
REMARK  status: ('A' for Active; 'I' for Inactive)
REMARK    1  A    between atoms: C_1  and  C_2
REMARK    2  A    between atoms: C_2  and  N_3
REMARK    3  A    between atoms: C_4  and  O_5
REMARK    4  A    between atoms: C_6  and  C_7
REMARK    5  A    between atoms: N_8  and  N_9
REMARK    6  A    between atoms: C_18  and  C_19
REMARK                            x       y       z     vdW  Elec       q    Type
REMARK                         _______ _______ _______ _____ _____    ______ ____
ROOT
ATOM      1  N   UNL     1      -0.719  11.738  22.323  0.00  0.00    +0.000 N 
ATOM      2  C   UNL     1      -0.090  12.765  21.642  0.00  0.00    +0.000 A 
ATOM      3  C   UNL     1       0.848  12.202  20.795  0.00  0.00    +0.000 A 
ATOM      4  C   UNL     1       0.744  10.786  20.937  0.00  0.00    +0.000 A 
ATOM      5  C   UNL     1       1.407   9.706  20.320  0.00  0.00    +0.000 A 
ATOM      6  C   UNL     1       1.109   8.392  20.680  0.00  0.00    +0.000 A 
ATOM      7  C   UNL     1       0.118   8.139  21.628  0.00  0.00    +0.000 A 
ATOM      8  C   UNL     1      -0.568   9.193  22.250  0.00  0.00    +0.000 A 
ATOM      9  C   UNL     1      -0.235  10.513  21.891  0.00  0.00    +0.000 A 
ENDROOT
BRANCH   6  10
ATOM     10  C   UNL     1       1.843   7.273  20.025  0.00  0.00    +0.000 C 
ATOM     11  N   UNL     1       2.527   7.503  18.946  0.00  0.00    +0.000 NA
ATOM     12  N   UNL     1       3.213   6.466  18.394  0.00  0.00    +0.000 N 
ATOM     13  C   UNL     1       3.067   5.139  18.698  0.00  0.00    +0.000 C 
ATOM     14  O   UNL     1       3.721   4.271  18.123  0.00  0.00    +0.000 OA
ATOM     15  C   UNL     1       2.001   4.804  19.698  0.00  0.00    +0.000 C 
ATOM     16  C   UNL     1       1.816   5.917  20.701  0.00  0.00    +0.000 C 
ATOM     17  H   UNL     1       3.866   6.699  17.654  0.00  0.00    +0.000 HD
ENDBRANCH   6  10
BRANCH   1  19
ATOM     18  C   UNL     1      -3.068  12.316  22.841  0.00  0.00    +0.000 C 
ATOM     19  C   UNL     1      -1.712  11.894  23.376  0.00  0.00    +0.000 C 
ENDBRANCH   1  19
BRANCH   2  20
ATOM     20  O   UNL     1      -0.374  14.054  21.815  0.00  0.00    +0.000 OA
ATOM     21  H   UNL     1      -0.965  14.178  22.576  0.00  0.00    +0.000 HD
ENDBRANCH   2  20
BRANCH   3  22
ATOM     22  C   UNL     1       1.734  12.955  19.924  0.00  0.00    +0.000 C 
ATOM     23  N   UNL     1       1.238  13.890  19.176  0.00  0.00    +0.000 NA
BRANCH  23  24
ATOM     24  N   UNL     1       2.211  14.554  18.447  0.00  0.00    +0.000 NA
ATOM     25  C   UNL     1       2.041  15.841  18.378  0.00  0.00    +0.000 C 
ATOM     26  C   UNL     1       3.081  16.661  17.647  0.00  0.00    +0.000 C 
ATOM     27  C   UNL     1       2.391  17.437  16.534  0.00  0.00    +0.000 C 
ATOM     28  C   UNL     1       1.242  18.291  17.074  0.00  0.00    +0.000 C 
ATOM     29  C   UNL     1       0.228  17.449  17.851  0.00  0.00    +0.000 C 
ATOM     30  C   UNL     1       0.888  16.638  18.964  0.00  0.00    +0.000 C 
ENDBRANCH  23  24
ENDBRANCH   3  22
TORSDOF 5
ENDMDL
