MODEL 1
REMARK VINA RESULT:      -7.3      0.000      0.000
REMARK  Name = 
REMARK  5 active torsions:
REMARK  status: ('A' for Active; 'I' for Inactive)
REMARK    1  A    between atoms: C_1  and  C_2
REMARK    2  A    between atoms: C_2  and  C_3
REMARK    3  A    between atoms: C_2  and  C_4
REMARK    4  A    between atoms: C_7  and  N_8
REMARK    5  A    between atoms: C_11  and  N_12
REMARK                            x       y       z     vdW  Elec       q    Type
REMARK                         _______ _______ _______ _____ _____    ______ ____
ROOT
ATOM      1  N   UNL     1       4.245   6.454  18.571  0.00  0.00    +0.000 NA
ATOM      2  C   UNL     1       4.632   5.062  18.831  0.00  0.00    +0.000 C 
ATOM      3  C   UNL     1       6.105   4.714  18.588  0.00  0.00    +0.000 C 
ATOM      4  C   UNL     1       6.638   5.240  17.243  0.00  0.00    +0.000 C 
ATOM      5  C   UNL     1       6.400   6.753  17.289  0.00  0.00    +0.000 C 
ATOM      6  C   UNL     1       4.927   7.095  17.456  0.00  0.00    +0.000 C 
ENDROOT
BRANCH   4   7
ATOM      7  N   UNL     1       6.128   4.578  16.023  0.00  0.00    +0.000 N 
ATOM      8  C   UNL     1       5.152   3.563  15.961  0.00  0.00    +0.000 C 
ATOM      9  O   UNL     1       4.549   3.022  16.876  0.00  0.00    +0.000 OA
ATOM     10  C   UNL     1       4.949   3.186  14.499  0.00  0.00    +0.000 C 
ATOM     11  C   UNL     1       6.029   3.950  13.813  0.00  0.00    +0.000 A 
ATOM     12  C   UNL     1       6.385   3.909  12.474  0.00  0.00    +0.000 A 
ATOM     13  C   UNL     1       7.465   4.685  12.061  0.00  0.00    +0.000 A 
ATOM     14  C   UNL     1       8.170   5.468  12.988  0.00  0.00    +0.000 A 
ATOM     15  C   UNL     1       7.802   5.489  14.339  0.00  0.00    +0.000 A 
ATOM     16  C   UNL     1       6.711   4.740  14.741  0.00  0.00    +0.000 A 
ENDBRANCH   4   7
BRANCH   1  20
ATOM     17  C   UNL     1       1.344   4.192  19.790  0.00  0.00    +0.000 C 
ATOM     18  C   UNL     1       1.976   5.275  20.691  0.00  0.00    +0.000 C 
ATOM     19  C   UNL     1       2.088   6.644  20.031  0.00  0.00    +0.000 C 
ATOM     20  C   UNL     1       2.768   6.645  18.644  0.00  0.00    +0.000 C 
ATOM     21  C   UNL     1       1.947   5.705  17.745  0.00  0.00    +0.000 C 
ATOM     22  C   UNL     1       1.732   4.299  18.299  0.00  0.00    +0.000 C 
BRANCH  17  24
ATOM     23  C   UNL     1       2.492   2.779  21.606  0.00  0.00    +0.000 C 
ATOM     24  C   UNL     1       1.655   2.753  20.320  0.00  0.00    +0.000 C 
ATOM     25  C   UNL     1       2.360   1.871  19.285  0.00  0.00    +0.000 C 
ENDBRANCH  17  24
ENDBRANCH   1  20
TORSDOF 3
ENDMDL
MODEL 2
REMARK VINA RESULT:      -7.3      8.263     11.211
REMARK  Name = 
REMARK  5 active torsions:
REMARK  status: ('A' for Active; 'I' for Inactive)
REMARK    1  A    between atoms: C_1  and  C_2
REMARK    2  A    between atoms: C_2  and  C_3
REMARK    3  A    between atoms: C_2  and  C_4
REMARK    4  A    between atoms: C_7  and  N_8
REMARK    5  A    between atoms: C_11  and  N_12
REMARK                            x       y       z     vdW  Elec       q    Type
REMARK                         _______ _______ _______ _____ _____    ______ ____
ROOT
ATOM      1  N   UNL     1      -3.196  12.243  19.086  0.00  0.00    +0.000 NA
ATOM      2  C   UNL     1      -2.896  12.720  20.442  0.00  0.00    +0.000 C 
ATOM      3  C   UNL     1      -1.490  13.290  20.661  0.00  0.00    +0.000 C 
ATOM      4  C   UNL     1      -0.377  12.397  20.083  0.00  0.00    +0.000 C 
ATOM      5  C   UNL     1      -0.719  12.253  18.596  0.00  0.00    +0.000 C 
ATOM      6  C   UNL     1      -2.086  11.619  18.382  0.00  0.00    +0.000 C 
ENDROOT
BRANCH   4   7
ATOM      7  N   UNL     1      -0.126  11.116  20.777  0.00  0.00    +0.000 N 
ATOM      8  C   UNL     1      -0.379  10.830  22.134  0.00  0.00    +0.000 C 
ATOM      9  O   UNL     1      -0.833  11.563  23.000  0.00  0.00    +0.000 OA
ATOM     10  C   UNL     1       0.039   9.390  22.404  0.00  0.00    +0.000 C 
ATOM     11  C   UNL     1       0.705   9.000  21.129  0.00  0.00    +0.000 A 
ATOM     12  C   UNL     1       1.371   7.820  20.840  0.00  0.00    +0.000 A 
ATOM     13  C   UNL     1       1.959   7.692  19.584  0.00  0.00    +0.000 A 
ATOM     14  C   UNL     1       1.882   8.741  18.656  0.00  0.00    +0.000 A 
ATOM     15  C   UNL     1       1.213   9.931  18.968  0.00  0.00    +0.000 A 
ATOM     16  C   UNL     1       0.605  10.043  20.206  0.00  0.00    +0.000 A 
ENDBRANCH   4   7
BRANCH   1  20
ATOM     17  C   UNL     1      -6.730  13.312  17.907  0.00  0.00    +0.000 C 
ATOM     18  C   UNL     1      -5.759  12.535  16.992  0.00  0.00    +0.000 C 
ATOM     19  C   UNL     1      -5.154  11.295  17.640  0.00  0.00    +0.000 C 
ATOM     20  C   UNL     1      -4.505  11.532  19.022  0.00  0.00    +0.000 C 
ATOM     21  C   UNL     1      -5.602  12.108  19.935  0.00  0.00    +0.000 C 
ATOM     22  C   UNL     1      -6.315  13.345  19.394  0.00  0.00    +0.000 C 
BRANCH  17  24
ATOM     23  C   UNL     1      -7.801  15.605  18.363  0.00  0.00    +0.000 C 
ATOM     24  C   UNL     1      -6.964  14.769  17.386  0.00  0.00    +0.000 C 
ATOM     25  C   UNL     1      -7.621  14.813  16.003  0.00  0.00    +0.000 C 
ENDBRANCH  17  24
ENDBRANCH   1  20
TORSDOF 3
ENDMDL
MODEL 3
REMARK VINA RESULT:      -6.7     10.044     11.658
REMARK  Name = 
REMARK  5 active torsions:
REMARK  status: ('A' for Active; 'I' for Inactive)
REMARK    1  A    between atoms: C_1  and  C_2
REMARK    2  A    between atoms: C_2  and  C_3
REMARK    3  A    between atoms: C_2  and  C_4
REMARK    4  A    between atoms: C_7  and  N_8
REMARK    5  A    between atoms: C_11  and  N_12
REMARK                            x       y       z     vdW  Elec       q    Type
REMARK                         _______ _______ _______ _____ _____    ______ ____
ROOT
ATOM      1  N   UNL     1       6.466  16.227  20.033  0.00  0.00    +0.000 NA
ATOM      2  C   UNL     1       7.448  17.272  19.716  0.00  0.00    +0.000 C 
ATOM      3  C   UNL     1       8.095  17.191  18.329  0.00  0.00    +0.000 C 
ATOM      4  C   UNL     1       8.591  15.778  17.972  0.00  0.00    +0.000 C 
ATOM      5  C   UNL     1       7.352  14.884  18.087  0.00  0.00    +0.000 C 
ATOM      6  C   UNL     1       6.756  14.909  19.486  0.00  0.00    +0.000 C 
ENDROOT
BRANCH   4   7
ATOM      7  N   UNL     1       9.771  15.283  18.713  0.00  0.00    +0.000 N 
ATOM      8  C   UNL     1      10.707  16.061  19.424  0.00  0.00    +0.000 C 
ATOM      9  O   UNL     1      10.747  17.275  19.563  0.00  0.00    +0.000 OA
ATOM     10  C   UNL     1      11.750  15.125  20.022  0.00  0.00    +0.000 C 
ATOM     11  C   UNL     1      11.394  13.812  19.413  0.00  0.00    +0.000 A 
ATOM     12  C   UNL     1      12.073  12.609  19.524  0.00  0.00    +0.000 A 
ATOM     13  C   UNL     1      11.575  11.511  18.826  0.00  0.00    +0.000 A 
ATOM     14  C   UNL     1      10.428  11.640  18.029  0.00  0.00    +0.000 A 
ATOM     15  C   UNL     1       9.761  12.866  17.921  0.00  0.00    +0.000 A 
ATOM     16  C   UNL     1      10.241  13.947  18.638  0.00  0.00    +0.000 A 
ENDBRANCH   4   7
BRANCH   1  20
ATOM     17  C   UNL     1       7.551  14.236  23.176  0.00  0.00    +0.000 C 
ATOM     18  C   UNL     1       8.136  15.626  22.842  0.00  0.00    +0.000 C 
ATOM     19  C   UNL     1       7.083  16.684  22.530  0.00  0.00    +0.000 C 
ATOM     20  C   UNL     1       6.044  16.274  21.462  0.00  0.00    +0.000 C 
ATOM     21  C   UNL     1       5.356  14.998  21.978  0.00  0.00    +0.000 C 
ATOM     22  C   UNL     1       6.298  13.858  22.356  0.00  0.00    +0.000 C 
BRANCH  17  24
ATOM     23  C   UNL     1       8.673  12.510  21.636  0.00  0.00    +0.000 C 
ATOM     24  C   UNL     1       8.633  13.114  23.046  0.00  0.00    +0.000 C 
ATOM     25  C   UNL     1       8.453  11.985  24.067  0.00  0.00    +0.000 C 
ENDBRANCH  17  24
ENDBRANCH   1  20
TORSDOF 3
ENDMDL
MODEL 4
REMARK VINA RESULT:      -6.7      8.421     11.091
REMARK  Name = 
REMARK  5 active torsions:
REMARK  status: ('A' for Active; 'I' for Inactive)
REMARK    1  A    between atoms: C_1  and  C_2
REMARK    2  A    between atoms: C_2  and  C_3
REMARK    3  A    between atoms: C_2  and  C_4
REMARK    4  A    between atoms: C_7  and  N_8
REMARK    5  A    between atoms: C_11  and  N_12
REMARK                            x       y       z     vdW  Elec       q    Type
REMARK                         _______ _______ _______ _____ _____    ______ ____
ROOT
ATOM      1  N   UNL     1       2.158  13.273  19.450  0.00  0.00    +0.000 NA
ATOM      2  C   UNL     1       1.515  13.061  20.753  0.00  0.00    +0.000 C 
ATOM      3  C   UNL     1       1.098  11.621  21.073  0.00  0.00    +0.000 C 
ATOM      4  C   UNL     1       0.345  10.937  19.918  0.00  0.00    +0.000 C 
ATOM      5  C   UNL     1       1.303  11.011  18.724  0.00  0.00    +0.000 C 
ATOM      6  C   UNL     1       1.656  12.446  18.362  0.00  0.00    +0.000 C 
ENDROOT
BRANCH   4   7
ATOM      7  N   UNL     1      -1.021  11.425  19.635  0.00  0.00    +0.000 N 
ATOM      8  C   UNL     1      -1.845  12.171  20.503  0.00  0.00    +0.000 C 
ATOM      9  O   UNL     1      -1.616  12.548  21.642  0.00  0.00    +0.000 OA
ATOM     10  C   UNL     1      -3.163  12.445  19.789  0.00  0.00    +0.000 C 
ATOM     11  C   UNL     1      -3.039  11.626  18.550  0.00  0.00    +0.000 A 
ATOM     12  C   UNL     1      -3.994  11.414  17.569  0.00  0.00    +0.000 A 
ATOM     13  C   UNL     1      -3.668  10.567  16.512  0.00  0.00    +0.000 A 
ATOM     14  C   UNL     1      -2.411   9.946  16.465  0.00  0.00    +0.000 A 
ATOM     15  C   UNL     1      -1.462  10.164  17.471  0.00  0.00    +0.000 A 
ATOM     16  C   UNL     1      -1.779  11.028  18.504  0.00  0.00    +0.000 A 
ENDBRANCH   4   7
BRANCH   1  20
ATOM     17  C   UNL     1       5.299  15.510  19.065  0.00  0.00    +0.000 C 
ATOM     18  C   UNL     1       4.575  14.896  17.848  0.00  0.00    +0.000 C 
ATOM     19  C   UNL     1       3.067  15.122  17.844  0.00  0.00    +0.000 C 
ATOM     20  C   UNL     1       2.344  14.722  19.150  0.00  0.00    +0.000 C 
ATOM     21  C   UNL     1       2.986  15.542  20.282  0.00  0.00    +0.000 C 
ATOM     22  C   UNL     1       4.504  15.430  20.387  0.00  0.00    +0.000 C 
BRANCH  17  24
ATOM     23  C   UNL     1       7.607  15.740  20.175  0.00  0.00    +0.000 C 
ATOM     24  C   UNL     1       6.721  14.887  19.259  0.00  0.00    +0.000 C 
ATOM     25  C   UNL     1       7.457  14.648  17.936  0.00  0.00    +0.000 C 
ENDBRANCH  17  24
ENDBRANCH   1  20
TORSDOF 3
ENDMDL
MODEL 5
REMARK VINA RESULT:      -6.7     10.271     13.553
REMARK  Name = 
REMARK  5 active torsions:
REMARK  status: ('A' for Active; 'I' for Inactive)
REMARK    1  A    between atoms: C_1  and  C_2
REMARK    2  A    between atoms: C_2  and  C_3
REMARK    3  A    between atoms: C_2  and  C_4
REMARK    4  A    between atoms: C_7  and  N_8
REMARK    5  A    between atoms: C_11  and  N_12
REMARK                            x       y       z     vdW  Elec       q    Type
REMARK                         _______ _______ _______ _____ _____    ______ ____
ROOT
ATOM      1  N   UNL     1      -3.635  11.787  18.860  0.00  0.00    +0.000 NA
ATOM      2  C   UNL     1      -3.984  12.400  20.149  0.00  0.00    +0.000 C 
ATOM      3  C   UNL     1      -5.470  12.382  20.524  0.00  0.00    +0.000 C 
ATOM      4  C   UNL     1      -6.390  12.839  19.377  0.00  0.00    +0.000 C 
ATOM      5  C   UNL     1      -6.074  11.891  18.216  0.00  0.00    +0.000 C 
ATOM      6  C   UNL     1      -4.613  11.966  17.797  0.00  0.00    +0.000 C 
ENDROOT
BRANCH   4   7
ATOM      7  N   UNL     1      -6.345  14.274  19.023  0.00  0.00    +0.000 N 
ATOM      8  C   UNL     1      -5.982  15.340  19.870  0.00  0.00    +0.000 C 
ATOM      9  O   UNL     1      -5.651  15.306  21.046  0.00  0.00    +0.000 OA
ATOM     10  C   UNL     1      -6.087  16.636  19.077  0.00  0.00    +0.000 C 
ATOM     11  C   UNL     1      -6.713  16.188  17.801  0.00  0.00    +0.000 A 
ATOM     12  C   UNL     1      -7.137  16.968  16.738  0.00  0.00    +0.000 A 
ATOM     13  C   UNL     1      -7.739  16.329  15.657  0.00  0.00    +0.000 A 
ATOM     14  C   UNL     1      -7.916  14.938  15.666  0.00  0.00    +0.000 A 
ATOM     15  C   UNL     1      -7.491  14.165  16.754  0.00  0.00    +0.000 A 
ATOM     16  C   UNL     1      -6.867  14.800  17.814  0.00  0.00    +0.000 A 
ENDBRANCH   4   7
BRANCH   1  20
ATOM     17  C   UNL     1      -0.283  10.487  20.307  0.00  0.00    +0.000 C 
ATOM     18  C   UNL     1      -0.951   9.841  19.074  0.00  0.00    +0.000 C 
ATOM     19  C   UNL     1      -1.360  10.837  17.996  0.00  0.00    +0.000 C 
ATOM     20  C   UNL     1      -2.209  12.028  18.497  0.00  0.00    +0.000 C 
ATOM     21  C   UNL     1      -1.377  12.745  19.574  0.00  0.00    +0.000 C 
ATOM     22  C   UNL     1      -0.875  11.856  20.708  0.00  0.00    +0.000 C 
BRANCH  17  24
ATOM     23  C   UNL     1      -0.574  10.259  22.851  0.00  0.00    +0.000 C 
ATOM     24  C   UNL     1      -0.294   9.520  21.537  0.00  0.00    +0.000 C 
ATOM     25  C   UNL     1       1.004   8.719  21.682  0.00  0.00    +0.000 C 
ENDBRANCH  17  24
ENDBRANCH   1  20
TORSDOF 3
ENDMDL
MODEL 6
REMARK VINA RESULT:      -6.6      9.283     13.047
REMARK  Name = 
REMARK  5 active torsions:
REMARK  status: ('A' for Active; 'I' for Inactive)
REMARK    1  A    between atoms: C_1  and  C_2
REMARK    2  A    between atoms: C_2  and  C_3
REMARK    3  A    between atoms: C_2  and  C_4
REMARK    4  A    between atoms: C_7  and  N_8
REMARK    5  A    between atoms: C_11  and  N_12
REMARK                            x       y       z     vdW  Elec       q    Type
REMARK                         _______ _______ _______ _____ _____    ______ ____
ROOT
ATOM      1  N   UNL     1      -0.280  12.459  22.063  0.00  0.00    +0.000 NA
ATOM      2  C   UNL     1      -0.275  13.846  22.545  0.00  0.00    +0.000 C 
ATOM      3  C   UNL     1      -1.289  14.183  23.643  0.00  0.00    +0.000 C 
ATOM      4  C   UNL     1      -2.706  13.662  23.340  0.00  0.00    +0.000 C 
ATOM      5  C   UNL     1      -2.538  12.151  23.149  0.00  0.00    +0.000 C 
ATOM      6  C   UNL     1      -1.587  11.820  22.009  0.00  0.00    +0.000 C 
ENDROOT
BRANCH   4   7
ATOM      7  N   UNL     1      -3.441  14.337  22.249  0.00  0.00    +0.000 N 
ATOM      8  C   UNL     1      -3.194  15.628  21.739  0.00  0.00    +0.000 C 
ATOM      9  O   UNL     1      -2.354  16.442  22.089  0.00  0.00    +0.000 OA
ATOM     10  C   UNL     1      -4.200  15.901  20.628  0.00  0.00    +0.000 C 
ATOM     11  C   UNL     1      -5.115  14.728  20.720  0.00  0.00    +0.000 A 
ATOM     12  C   UNL     1      -6.282  14.498  20.010  0.00  0.00    +0.000 A 
ATOM     13  C   UNL     1      -7.005  13.342  20.296  0.00  0.00    +0.000 A 
ATOM     14  C   UNL     1      -6.557  12.454  21.286  0.00  0.00    +0.000 A 
ATOM     15  C   UNL     1      -5.379  12.708  22.000  0.00  0.00    +0.000 A 
ATOM     16  C   UNL     1      -4.649  13.842  21.694  0.00  0.00    +0.000 A 
ENDBRANCH   4   7
BRANCH   1  20
ATOM     17  C   UNL     1      -1.008  11.581  18.359  0.00  0.00    +0.000 C 
ATOM     18  C   UNL     1      -0.814  13.037  18.835  0.00  0.00    +0.000 C 
ATOM     19  C   UNL     1       0.436  13.254  19.680  0.00  0.00    +0.000 C 
ATOM     20  C   UNL     1       0.596  12.280  20.870  0.00  0.00    +0.000 C 
ATOM     21  C   UNL     1       0.609  10.858  20.282  0.00  0.00    +0.000 C 
ATOM     22  C   UNL     1      -0.578  10.512  19.388  0.00  0.00    +0.000 C 
BRANCH  17  24
ATOM     23  C   UNL     1      -3.504  11.886  18.894  0.00  0.00    +0.000 C 
ATOM     24  C   UNL     1      -2.480  11.320  17.901  0.00  0.00    +0.000 C 
ATOM     25  C   UNL     1      -2.782   9.836  17.667  0.00  0.00    +0.000 C 
ENDBRANCH  17  24
ENDBRANCH   1  20
TORSDOF 3
ENDMDL
MODEL 7
REMARK VINA RESULT:      -6.6      9.964     13.387
REMARK  Name = 
REMARK  5 active torsions:
REMARK  status: ('A' for Active; 'I' for Inactive)
REMARK    1  A    between atoms: C_1  and  C_2
REMARK    2  A    between atoms: C_2  and  C_3
REMARK    3  A    between atoms: C_2  and  C_4
REMARK    4  A    between atoms: C_7  and  N_8
REMARK    5  A    between atoms: C_11  and  N_12
REMARK                            x       y       z     vdW  Elec       q    Type
REMARK                         _______ _______ _______ _____ _____    ______ ____
ROOT
ATOM      1  N   UNL     1      -2.960  12.099  19.792  0.00  0.00    +0.000 NA
ATOM      2  C   UNL     1      -3.370  12.813  21.008  0.00  0.00    +0.000 C 
ATOM      3  C   UNL     1      -4.841  12.665  21.414  0.00  0.00    +0.000 C 
ATOM      4  C   UNL     1      -5.817  12.873  20.241  0.00  0.00    +0.000 C 
ATOM      5  C   UNL     1      -5.398  11.838  19.191  0.00  0.00    +0.000 C 
ATOM      6  C   UNL     1      -3.959  12.035  18.736  0.00  0.00    +0.000 C 
ENDROOT
BRANCH   4   7
ATOM      7  N   UNL     1      -5.946  14.251  19.722  0.00  0.00    +0.000 N 
ATOM      8  C   UNL     1      -5.729  15.445  20.439  0.00  0.00    +0.000 C 
ATOM      9  O   UNL     1      -5.411  15.589  21.610  0.00  0.00    +0.000 OA
ATOM     10  C   UNL     1      -5.984  16.618  19.500  0.00  0.00    +0.000 C 
ATOM     11  C   UNL     1      -6.533  15.950  18.287  0.00  0.00    +0.000 A 
ATOM     12  C   UNL     1      -7.037  16.543  17.141  0.00  0.00    +0.000 A 
ATOM     13  C   UNL     1      -7.542  15.713  16.142  0.00  0.00    +0.000 A 
ATOM     14  C   UNL     1      -7.545  14.321  16.314  0.00  0.00    +0.000 A 
ATOM     15  C   UNL     1      -7.040  13.739  17.484  0.00  0.00    +0.000 A 
ATOM     16  C   UNL     1      -6.514  14.565  18.461  0.00  0.00    +0.000 A 
ENDBRANCH   4   7
BRANCH   1  20
ATOM     17  C   UNL     1       0.542  10.819  20.850  0.00  0.00    +0.000 C 
ATOM     18  C   UNL     1      -0.178  10.293  19.589  0.00  0.00    +0.000 C 
ATOM     19  C   UNL     1      -0.708  11.391  18.673  0.00  0.00    +0.000 C 
ATOM     20  C   UNL     1      -1.575  12.462  19.374  0.00  0.00    +0.000 C 
ATOM     21  C   UNL     1      -0.706  13.086  20.479  0.00  0.00    +0.000 C 
ATOM     22  C   UNL     1      -0.085  12.092  21.457  0.00  0.00    +0.000 C 
BRANCH  17  24
ATOM     23  C   UNL     1       0.677   8.298  21.340  0.00  0.00    +0.000 C 
ATOM     24  C   UNL     1       0.661   9.708  21.945  0.00  0.00    +0.000 C 
ATOM     25  C   UNL     1      -0.446   9.784  23.001  0.00  0.00    +0.000 C 
ENDBRANCH  17  24
ENDBRANCH   1  20
TORSDOF 3
ENDMDL
MODEL 8
REMARK VINA RESULT:      -6.6      9.337     11.613
REMARK  Name = 
REMARK  5 active torsions:
REMARK  status: ('A' for Active; 'I' for Inactive)
REMARK    1  A    between atoms: C_1  and  C_2
REMARK    2  A    between atoms: C_2  and  C_3
REMARK    3  A    between atoms: C_2  and  C_4
REMARK    4  A    between atoms: C_7  and  N_8
REMARK    5  A    between atoms: C_11  and  N_12
REMARK                            x       y       z     vdW  Elec       q    Type
REMARK                         _______ _______ _______ _____ _____    ______ ____
ROOT
ATOM      1  N   UNL     1       4.880  15.784  19.026  0.00  0.00    +0.000 NA
ATOM      2  C   UNL     1       5.880  16.756  19.487  0.00  0.00    +0.000 C 
ATOM      3  C   UNL     1       7.131  16.902  18.613  0.00  0.00    +0.000 C 
ATOM      4  C   UNL     1       7.752  15.551  18.214  0.00  0.00    +0.000 C 
ATOM      5  C   UNL     1       6.628  14.798  17.495  0.00  0.00    +0.000 C 
ATOM      6  C   UNL     1       5.415  14.590  18.389  0.00  0.00    +0.000 C 
ENDROOT
BRANCH   4   7
ATOM      7  N   UNL     1       8.412  14.780  19.289  0.00  0.00    +0.000 N 
ATOM      8  C   UNL     1       8.888  15.285  20.517  0.00  0.00    +0.000 C 
ATOM      9  O   UNL     1       8.867  16.433  20.933  0.00  0.00    +0.000 OA
ATOM     10  C   UNL     1       9.495  14.129  21.303  0.00  0.00    +0.000 C 
ATOM     11  C   UNL     1       9.470  13.014  20.315  0.00  0.00    +0.000 A 
ATOM     12  C   UNL     1       9.995  11.740  20.454  0.00  0.00    +0.000 A 
ATOM     13  C   UNL     1       9.892  10.869  19.372  0.00  0.00    +0.000 A 
ATOM     14  C   UNL     1       9.284  11.290  18.180  0.00  0.00    +0.000 A 
ATOM     15  C   UNL     1       8.767  12.585  18.054  0.00  0.00    +0.000 A 
ATOM     16  C   UNL     1       8.846  13.438  19.140  0.00  0.00    +0.000 A 
ENDBRANCH   4   7
BRANCH   1  20
ATOM     17  C   UNL     1       1.093  16.607  19.064  0.00  0.00    +0.000 C 
ATOM     18  C   UNL     1       1.626  15.209  18.684  0.00  0.00    +0.000 C 
ATOM     19  C   UNL     1       2.627  14.634  19.680  0.00  0.00    +0.000 C 
ATOM     20  C   UNL     1       3.803  15.572  20.036  0.00  0.00    +0.000 C 
ATOM     21  C   UNL     1       3.187  16.860  20.608  0.00  0.00    +0.000 C 
ATOM     22  C   UNL     1       2.141  17.531  19.722  0.00  0.00    +0.000 C 
BRANCH  17  24
ATOM     23  C   UNL     1       1.482  18.081  16.994  0.00  0.00    +0.000 C 
ATOM     24  C   UNL     1       0.445  17.326  17.834  0.00  0.00    +0.000 C 
ATOM     25  C   UNL     1      -0.678  18.292  18.227  0.00  0.00    +0.000 C 
ENDBRANCH  17  24
ENDBRANCH   1  20
TORSDOF 3
ENDMDL
MODEL 9
REMARK VINA RESULT:      -6.6      8.174     11.118
REMARK  Name = 
REMARK  5 active torsions:
REMARK  status: ('A' for Active; 'I' for Inactive)
REMARK    1  A    between atoms: C_1  and  C_2
REMARK    2  A    between atoms: C_2  and  C_3
REMARK    3  A    between atoms: C_2  and  C_4
REMARK    4  A    between atoms: C_7  and  N_8
REMARK    5  A    between atoms: C_11  and  N_12
REMARK                            x       y       z     vdW  Elec       q    Type
REMARK                         _______ _______ _______ _____ _____    ______ ____
ROOT
ATOM      1  N   UNL     1      -2.619  12.949  21.407  0.00  0.00    +0.000 NA
ATOM      2  C   UNL     1      -1.452  13.060  22.291  0.00  0.00    +0.000 C 
ATOM      3  C   UNL     1      -0.110  13.339  21.606  0.00  0.00    +0.000 C 
ATOM      4  C   UNL     1       0.149  12.433  20.389  0.00  0.00    +0.000 C 
ATOM      5  C   UNL     1      -1.041  12.678  19.455  0.00  0.00    +0.000 C 
ATOM      6  C   UNL     1      -2.367  12.329  20.114  0.00  0.00    +0.000 C 
ENDROOT
BRANCH   4   7
ATOM      7  N   UNL     1       0.421  11.007  20.669  0.00  0.00    +0.000 N 
ATOM      8  C   UNL     1       0.303  10.356  21.914  0.00  0.00    +0.000 C 
ATOM      9  O   UNL     1      -0.027  10.822  22.995  0.00  0.00    +0.000 OA
ATOM     10  C   UNL     1       0.689   8.894  21.725  0.00  0.00    +0.000 C 
ATOM     11  C   UNL     1       1.199   8.870  20.325  0.00  0.00    +0.000 A 
ATOM     12  C   UNL     1       1.783   7.811  19.648  0.00  0.00    +0.000 A 
ATOM     13  C   UNL     1       2.228   8.034  18.347  0.00  0.00    +0.000 A 
ATOM     14  C   UNL     1       2.094   9.300  17.760  0.00  0.00    +0.000 A 
ATOM     15  C   UNL     1       1.511  10.362  18.463  0.00  0.00    +0.000 A 
ATOM     16  C   UNL     1       1.043  10.130  19.745  0.00  0.00    +0.000 A 
ENDBRANCH   4   7
BRANCH   1  20
ATOM     17  C   UNL     1      -5.074  14.706  23.837  0.00  0.00    +0.000 C 
ATOM     18  C   UNL     1      -5.379  14.550  22.331  0.00  0.00    +0.000 C 
ATOM     19  C   UNL     1      -5.195  13.132  21.804  0.00  0.00    +0.000 C 
ATOM     20  C   UNL     1      -3.832  12.484  22.139  0.00  0.00    +0.000 C 
ATOM     21  C   UNL     1      -3.704  12.485  23.672  0.00  0.00    +0.000 C 
ATOM     22  C   UNL     1      -3.895  13.845  24.340  0.00  0.00    +0.000 C 
BRANCH  17  24
ATOM     23  C   UNL     1      -4.970  17.138  23.010  0.00  0.00    +0.000 C 
ATOM     24  C   UNL     1      -4.842  16.205  24.221  0.00  0.00    +0.000 C 
ATOM     25  C   UNL     1      -3.489  16.449  24.898  0.00  0.00    +0.000 C 
ENDBRANCH  17  24
ENDBRANCH   1  20
TORSDOF 3
ENDMDL
