MODEL 1
REMARK VINA RESULT:      -7.6      0.000      0.000
REMARK  Name = 
REMARK  8 active torsions:
REMARK  status: ('A' for Active; 'I' for Inactive)
REMARK    1  A    between atoms: C_1  and  N_2
REMARK    2  A    between atoms: N_2  and  C_3
REMARK    3  A    between atoms: N_2  and  C_4
REMARK    4  A    between atoms: C_7  and  N_8
REMARK    5  A    between atoms: C_10  and  C_11
REMARK    6  A    between atoms: N_15  and  C_16
REMARK    7  A    between atoms: C_19  and  C_20
REMARK    8  A    between atoms: C_27  and  C_28
REMARK                            x       y       z     vdW  Elec       q    Type
REMARK                         _______ _______ _______ _____ _____    ______ ____
ROOT
ATOM      1  N   UNL     1       2.045   7.350  19.933  0.00  0.00    +0.000 N 
ATOM      2  C   UNL     1       1.334   6.463  20.683  0.00  0.00    +0.000 A 
ATOM      3  C   UNL     1       1.983   5.244  20.551  0.00  0.00    +0.000 A 
ATOM      4  C   UNL     1       3.074   5.513  19.676  0.00  0.00    +0.000 A 
ATOM      5  N   UNL     1       3.988   4.594  19.277  0.00  0.00    +0.000 N 
ATOM      6  N   UNL     1       3.066   6.789  19.283  0.00  0.00    +0.000 NA
ATOM      7  H   UNL     1       4.060   3.722  19.800  0.00  0.00    +0.000 HD
ENDROOT
BRANCH   1  11
ATOM      8  C   UNL     1      -0.210  10.867  18.842  0.00  0.00    +0.000 C 
ATOM      9  C   UNL     1       1.030  10.490  18.000  0.00  0.00    +0.000 C 
ATOM     10  C   UNL     1       1.479   9.050  18.236  0.00  0.00    +0.000 C 
ATOM     11  C   UNL     1       1.778   8.774  19.721  0.00  0.00    +0.000 C 
ATOM     12  C   UNL     1       0.658   9.263  20.664  0.00  0.00    +0.000 C 
ATOM     13  C   UNL     1       0.200  10.692  20.322  0.00  0.00    +0.000 C 
BRANCH   8  15
ATOM     14  C   UNL     1      -2.660  10.768  18.930  0.00  0.00    +0.000 C 
ATOM     15  N   UNL     1      -1.428  10.094  18.491  0.00  0.00    +0.000 NA
ATOM     16  C   UNL     1      -1.543   9.859  17.042  0.00  0.00    +0.000 C 
ENDBRANCH   8  15
BRANCH  12  17
ATOM     17  C   UNL     1       1.156   9.239  22.057  0.00  0.00    +0.000 C 
ATOM     18  N   UNL     1       1.500   9.232  23.166  0.00  0.00    +0.000 NA
ENDBRANCH  12  17
ENDBRANCH   1  11
BRANCH   5  19
ATOM     19  C   UNL     1       4.699   4.572  18.057  0.00  0.00    +0.000 A 
ATOM     20  C   UNL     1       5.986   5.119  17.987  0.00  0.00    +0.000 A 
ATOM     21  C   UNL     1       6.690   5.144  16.775  0.00  0.00    +0.000 A 
ATOM     22  C   UNL     1       6.125   4.613  15.606  0.00  0.00    +0.000 A 
ATOM     23  C   UNL     1       4.830   4.087  15.667  0.00  0.00    +0.000 A 
ATOM     24  C   UNL     1       4.125   4.083  16.875  0.00  0.00    +0.000 A 
BRANCH  22  25
ATOM     25  C   UNL     1       6.878   4.591  14.300  0.00  0.00    +0.000 C 
ATOM     26  F   UNL     1       8.218   4.801  14.437  0.00  0.00    +0.000 F 
ATOM     27  F   UNL     1       6.756   3.400  13.649  0.00  0.00    +0.000 F 
ATOM     28  F   UNL     1       6.442   5.538  13.424  0.00  0.00    +0.000 F 
ENDBRANCH  22  25
ENDBRANCH   5  19
BRANCH   3  29
ATOM     29  C   UNL     1       1.614   3.983  21.151  0.00  0.00    +0.000 C 
ATOM     30  N   UNL     1       0.609   3.303  20.520  0.00  0.00    +0.000 N 
ATOM     31  O   UNL     1       2.180   3.510  22.133  0.00  0.00    +0.000 OA
ATOM     32  H   UNL     1       0.365   3.529  19.564  0.00  0.00    +0.000 HD
ATOM     33  H   UNL     1       0.440   2.357  20.833  0.00  0.00    +0.000 HD
ENDBRANCH   3  29
TORSDOF 6
ENDMDL
MODEL 2
REMARK VINA RESULT:      -7.5      0.077      1.120
REMARK  Name = 
REMARK  8 active torsions:
REMARK  status: ('A' for Active; 'I' for Inactive)
REMARK    1  A    between atoms: C_1  and  N_2
REMARK    2  A    between atoms: N_2  and  C_3
REMARK    3  A    between atoms: N_2  and  C_4
REMARK    4  A    between atoms: C_7  and  N_8
REMARK    5  A    between atoms: C_10  and  C_11
REMARK    6  A    between atoms: N_15  and  C_16
REMARK    7  A    between atoms: C_19  and  C_20
REMARK    8  A    between atoms: C_27  and  C_28
REMARK                            x       y       z     vdW  Elec       q    Type
REMARK                         _______ _______ _______ _____ _____    ______ ____
ROOT
ATOM      1  N   UNL     1       1.995   7.400  19.948  0.00  0.00    +0.000 N 
ATOM      2  C   UNL     1       1.296   6.500  20.694  0.00  0.00    +0.000 A 
ATOM      3  C   UNL     1       1.958   5.289  20.549  0.00  0.00    +0.000 A 
ATOM      4  C   UNL     1       3.043   5.578  19.673  0.00  0.00    +0.000 A 
ATOM      5  N   UNL     1       3.966   4.672  19.264  0.00  0.00    +0.000 N 
ATOM      6  N   UNL     1       3.020   6.856  19.290  0.00  0.00    +0.000 NA
ATOM      7  H   UNL     1       4.049   3.797  19.780  0.00  0.00    +0.000 HD
ENDROOT
BRANCH   1  11
ATOM      8  C   UNL     1      -0.291  10.898  18.857  0.00  0.00    +0.000 C 
ATOM      9  C   UNL     1       0.969  10.549  18.034  0.00  0.00    +0.000 C 
ATOM     10  C   UNL     1       1.435   9.113  18.262  0.00  0.00    +0.000 C 
ATOM     11  C   UNL     1       1.711   8.823  19.748  0.00  0.00    +0.000 C 
ATOM     12  C   UNL     1       0.567   9.285  20.676  0.00  0.00    +0.000 C 
ATOM     13  C   UNL     1       0.094  10.711  20.343  0.00  0.00    +0.000 C 
BRANCH   8  15
ATOM     14  C   UNL     1      -2.741  10.769  18.888  0.00  0.00    +0.000 C 
ATOM     15  N   UNL     1      -1.491  10.112  18.475  0.00  0.00    +0.000 NA
ATOM     16  C   UNL     1      -1.570   9.883  17.023  0.00  0.00    +0.000 C 
ENDBRANCH   8  15
BRANCH  12  17
ATOM     17  C   UNL     1       1.040   9.251  22.078  0.00  0.00    +0.000 C 
ATOM     18  N   UNL     1       1.379   9.264  23.188  0.00  0.00    +0.000 NA
ENDBRANCH  12  17
ENDBRANCH   1  11
BRANCH   5  19
ATOM     19  C   UNL     1       4.673   4.668  18.042  0.00  0.00    +0.000 A 
ATOM     20  C   UNL     1       4.122   4.046  16.915  0.00  0.00    +0.000 A 
ATOM     21  C   UNL     1       4.827   3.996  15.705  0.00  0.00    +0.000 A 
ATOM     22  C   UNL     1       6.100   4.577  15.592  0.00  0.00    +0.000 A 
ATOM     23  C   UNL     1       6.664   5.178  16.722  0.00  0.00    +0.000 A 
ATOM     24  C   UNL     1       5.963   5.207  17.931  0.00  0.00    +0.000 A 
BRANCH  22  25
ATOM     25  C   UNL     1       6.861   4.572  14.291  0.00  0.00    +0.000 C 
ATOM     26  F   UNL     1       6.746   3.405  13.594  0.00  0.00    +0.000 F 
ATOM     27  F   UNL     1       6.444   5.551  13.440  0.00  0.00    +0.000 F 
ATOM     28  F   UNL     1       8.197   4.772  14.460  0.00  0.00    +0.000 F 
ENDBRANCH  22  25
ENDBRANCH   5  19
BRANCH   3  29
ATOM     29  C   UNL     1       1.605   4.020  21.141  0.00  0.00    +0.000 C 
ATOM     30  N   UNL     1       0.589   3.345  20.522  0.00  0.00    +0.000 N 
ATOM     31  O   UNL     1       2.193   3.535  22.104  0.00  0.00    +0.000 OA
ATOM     32  H   UNL     1       0.324   3.583  19.575  0.00  0.00    +0.000 HD
ATOM     33  H   UNL     1       0.429   2.395  20.827  0.00  0.00    +0.000 HD
ENDBRANCH   3  29
TORSDOF 6
ENDMDL
MODEL 3
REMARK VINA RESULT:      -7.4      4.538      7.321
REMARK  Name = 
REMARK  8 active torsions:
REMARK  status: ('A' for Active; 'I' for Inactive)
REMARK    1  A    between atoms: C_1  and  N_2
REMARK    2  A    between atoms: N_2  and  C_3
REMARK    3  A    between atoms: N_2  and  C_4
REMARK    4  A    between atoms: C_7  and  N_8
REMARK    5  A    between atoms: C_10  and  C_11
REMARK    6  A    between atoms: N_15  and  C_16
REMARK    7  A    between atoms: C_19  and  C_20
REMARK    8  A    between atoms: C_27  and  C_28
REMARK                            x       y       z     vdW  Elec       q    Type
REMARK                         _______ _______ _______ _____ _____    ______ ____
ROOT
ATOM      1  N   UNL     1      -2.036  11.777  18.593  0.00  0.00    +0.000 N 
ATOM      2  C   UNL     1      -1.472  13.010  18.720  0.00  0.00    +0.000 A 
ATOM      3  C   UNL     1      -0.101  12.814  18.635  0.00  0.00    +0.000 A 
ATOM      4  C   UNL     1       0.048  11.407  18.470  0.00  0.00    +0.000 A 
ATOM      5  N   UNL     1       1.237  10.769  18.335  0.00  0.00    +0.000 N 
ATOM      6  N   UNL     1      -1.138  10.796  18.489  0.00  0.00    +0.000 NA
ATOM      7  H   UNL     1       2.060  11.320  18.096  0.00  0.00    +0.000 HD
ENDROOT
BRANCH   1  11
ATOM      8  C   UNL     1      -6.304  12.389  18.351  0.00  0.00    +0.000 C 
ATOM      9  C   UNL     1      -5.688  11.986  19.710  0.00  0.00    +0.000 C 
ATOM     10  C   UNL     1      -4.176  12.194  19.749  0.00  0.00    +0.000 C 
ATOM     11  C   UNL     1      -3.458  11.426  18.625  0.00  0.00    +0.000 C 
ATOM     12  C   UNL     1      -4.102  11.640  17.239  0.00  0.00    +0.000 C 
ATOM     13  C   UNL     1      -5.634  11.491  17.286  0.00  0.00    +0.000 C 
BRANCH   8  15
ATOM     14  C   UNL     1      -6.827  14.193  16.772  0.00  0.00    +0.000 C 
ATOM     15  N   UNL     1      -6.176  13.835  18.042  0.00  0.00    +0.000 NA
ATOM     16  C   UNL     1      -6.759  14.685  19.094  0.00  0.00    +0.000 C 
ENDBRANCH   8  15
BRANCH  12  17
ATOM     17  C   UNL     1      -3.552  10.645  16.292  0.00  0.00    +0.000 C 
ATOM     18  N   UNL     1      -3.144   9.827  15.577  0.00  0.00    +0.000 NA
ENDBRANCH  12  17
ENDBRANCH   1  11
BRANCH   5  19
ATOM     19  C   UNL     1       1.546   9.449  18.732  0.00  0.00    +0.000 A 
ATOM     20  C   UNL     1       1.292   9.035  20.044  0.00  0.00    +0.000 A 
ATOM     21  C   UNL     1       1.630   7.742  20.468  0.00  0.00    +0.000 A 
ATOM     22  C   UNL     1       2.224   6.830  19.583  0.00  0.00    +0.000 A 
ATOM     23  C   UNL     1       2.501   7.248  18.277  0.00  0.00    +0.000 A 
ATOM     24  C   UNL     1       2.179   8.545  17.867  0.00  0.00    +0.000 A 
BRANCH  22  25
ATOM     25  C   UNL     1       2.560   5.421  20.003  0.00  0.00    +0.000 C 
ATOM     26  F   UNL     1       1.954   4.464  19.243  0.00  0.00    +0.000 F 
ATOM     27  F   UNL     1       3.895   5.161  19.926  0.00  0.00    +0.000 F 
ATOM     28  F   UNL     1       2.203   5.154  21.289  0.00  0.00    +0.000 F 
ENDBRANCH  22  25
ENDBRANCH   5  19
BRANCH   3  29
ATOM     29  C   UNL     1       0.936  13.816  18.718  0.00  0.00    +0.000 C 
ATOM     30  N   UNL     1       0.663  14.878  19.535  0.00  0.00    +0.000 N 
ATOM     31  O   UNL     1       2.017  13.720  18.143  0.00  0.00    +0.000 OA
ATOM     32  H   UNL     1      -0.067  14.808  20.232  0.00  0.00    +0.000 HD
ATOM     33  H   UNL     1       1.429  15.509  19.723  0.00  0.00    +0.000 HD
ENDBRANCH   3  29
TORSDOF 6
ENDMDL
MODEL 4
REMARK VINA RESULT:      -7.2      4.630      7.338
REMARK  Name = 
REMARK  8 active torsions:
REMARK  status: ('A' for Active; 'I' for Inactive)
REMARK    1  A    between atoms: C_1  and  N_2
REMARK    2  A    between atoms: N_2  and  C_3
REMARK    3  A    between atoms: N_2  and  C_4
REMARK    4  A    between atoms: C_7  and  N_8
REMARK    5  A    between atoms: C_10  and  C_11
REMARK    6  A    between atoms: N_15  and  C_16
REMARK    7  A    between atoms: C_19  and  C_20
REMARK    8  A    between atoms: C_27  and  C_28
REMARK                            x       y       z     vdW  Elec       q    Type
REMARK                         _______ _______ _______ _____ _____    ______ ____
ROOT
ATOM      1  N   UNL     1      -1.361  12.282  20.394  0.00  0.00    +0.000 N 
ATOM      2  C   UNL     1      -0.754  13.444  20.026  0.00  0.00    +0.000 A 
ATOM      3  C   UNL     1       0.300  13.079  19.201  0.00  0.00    +0.000 A 
ATOM      4  C   UNL     1       0.241  11.657  19.155  0.00  0.00    +0.000 A 
ATOM      5  N   UNL     1       1.092  10.873  18.446  0.00  0.00    +0.000 N 
ATOM      6  N   UNL     1      -0.750  11.196  19.919  0.00  0.00    +0.000 NA
ATOM      7  H   UNL     1       1.657  11.305  17.717  0.00  0.00    +0.000 HD
ENDROOT
BRANCH   1  11
ATOM      8  C   UNL     1      -4.478  13.411  23.162  0.00  0.00    +0.000 C 
ATOM      9  C   UNL     1      -3.371  12.445  23.644  0.00  0.00    +0.000 C 
ATOM     10  C   UNL     1      -2.152  12.452  22.726  0.00  0.00    +0.000 C 
ATOM     11  C   UNL     1      -2.521  12.106  21.272  0.00  0.00    +0.000 C 
ATOM     12  C   UNL     1      -3.728  12.913  20.747  0.00  0.00    +0.000 C 
ATOM     13  C   UNL     1      -4.892  12.929  21.753  0.00  0.00    +0.000 C 
BRANCH   8  15
ATOM     14  C   UNL     1      -5.135  15.723  22.673  0.00  0.00    +0.000 C 
ATOM     15  N   UNL     1      -4.075  14.839  23.182  0.00  0.00    +0.000 NA
ATOM     16  C   UNL     1      -3.723  15.302  24.535  0.00  0.00    +0.000 C 
ENDBRANCH   8  15
BRANCH  12  17
ATOM     17  C   UNL     1      -4.197  12.309  19.479  0.00  0.00    +0.000 C 
ATOM     18  N   UNL     1      -4.528  11.799  18.491  0.00  0.00    +0.000 NA
ENDBRANCH  12  17
ENDBRANCH   1  11
BRANCH   5  19
ATOM     19  C   UNL     1       1.493   9.554  18.755  0.00  0.00    +0.000 A 
ATOM     20  C   UNL     1       1.266   9.035  20.034  0.00  0.00    +0.000 A 
ATOM     21  C   UNL     1       1.695   7.743  20.371  0.00  0.00    +0.000 A 
ATOM     22  C   UNL     1       2.353   6.937  19.430  0.00  0.00    +0.000 A 
ATOM     23  C   UNL     1       2.602   7.462  18.157  0.00  0.00    +0.000 A 
ATOM     24  C   UNL     1       2.189   8.758  17.834  0.00  0.00    +0.000 A 
BRANCH  22  25
ATOM     25  C   UNL     1       2.787   5.531  19.755  0.00  0.00    +0.000 C 
ATOM     26  F   UNL     1       4.141   5.372  19.798  0.00  0.00    +0.000 F 
ATOM     27  F   UNL     1       2.329   5.113  20.968  0.00  0.00    +0.000 F 
ATOM     28  F   UNL     1       2.335   4.617  18.853  0.00  0.00    +0.000 F 
ENDBRANCH  22  25
ENDBRANCH   5  19
BRANCH   3  29
ATOM     29  C   UNL     1       1.253  13.953  18.557  0.00  0.00    +0.000 C 
ATOM     30  N   UNL     1       1.078  15.289  18.791  0.00  0.00    +0.000 N 
ATOM     31  O   UNL     1       2.193  13.546  17.879  0.00  0.00    +0.000 OA
ATOM     32  H   UNL     1       0.518  15.598  19.575  0.00  0.00    +0.000 HD
ATOM     33  H   UNL     1       1.817  15.901  18.475  0.00  0.00    +0.000 HD
ENDBRANCH   3  29
TORSDOF 6
ENDMDL
MODEL 5
REMARK VINA RESULT:      -7.2      2.745      4.681
REMARK  Name = 
REMARK  8 active torsions:
REMARK  status: ('A' for Active; 'I' for Inactive)
REMARK    1  A    between atoms: C_1  and  N_2
REMARK    2  A    between atoms: N_2  and  C_3
REMARK    3  A    between atoms: N_2  and  C_4
REMARK    4  A    between atoms: C_7  and  N_8
REMARK    5  A    between atoms: C_10  and  C_11
REMARK    6  A    between atoms: N_15  and  C_16
REMARK    7  A    between atoms: C_19  and  C_20
REMARK    8  A    between atoms: C_27  and  C_28
REMARK                            x       y       z     vdW  Elec       q    Type
REMARK                         _______ _______ _______ _____ _____    ______ ____
ROOT
ATOM      1  N   UNL     1      -0.560   9.970  19.447  0.00  0.00    +0.000 N 
ATOM      2  C   UNL     1      -0.655  10.254  20.775  0.00  0.00    +0.000 A 
ATOM      3  C   UNL     1       0.358   9.537  21.394  0.00  0.00    +0.000 A 
ATOM      4  C   UNL     1       0.998   8.836  20.332  0.00  0.00    +0.000 A 
ATOM      5  N   UNL     1       2.063   8.010  20.486  0.00  0.00    +0.000 N 
ATOM      6  N   UNL     1       0.397   9.084  19.167  0.00  0.00    +0.000 NA
ATOM      7  H   UNL     1       2.597   8.062  21.351  0.00  0.00    +0.000 HD
ENDROOT
BRANCH   1  11
ATOM      8  C   UNL     1      -4.145  11.384  17.499  0.00  0.00    +0.000 C 
ATOM      9  C   UNL     1      -3.549  10.026  17.063  0.00  0.00    +0.000 C 
ATOM     10  C   UNL     1      -2.552   9.474  18.078  0.00  0.00    +0.000 C 
ATOM     11  C   UNL     1      -1.402  10.460  18.354  0.00  0.00    +0.000 C 
ATOM     12  C   UNL     1      -1.894  11.893  18.647  0.00  0.00    +0.000 C 
ATOM     13  C   UNL     1      -2.953  12.359  17.632  0.00  0.00    +0.000 C 
BRANCH   8  15
ATOM     14  C   UNL     1      -5.403  12.635  19.193  0.00  0.00    +0.000 C 
ATOM     15  N   UNL     1      -4.961  11.308  18.736  0.00  0.00    +0.000 NA
ATOM     16  C   UNL     1      -6.164  10.476  18.563  0.00  0.00    +0.000 C 
ENDBRANCH   8  15
BRANCH  12  17
ATOM     17  C   UNL     1      -0.740  12.819  18.595  0.00  0.00    +0.000 C 
ATOM     18  N   UNL     1       0.134  13.580  18.535  0.00  0.00    +0.000 NA
ENDBRANCH  12  17
ENDBRANCH   1  11
BRANCH   5  19
ATOM     19  C   UNL     1       2.392   6.887  19.694  0.00  0.00    +0.000 A 
ATOM     20  C   UNL     1       2.091   5.598  20.148  0.00  0.00    +0.000 A 
ATOM     21  C   UNL     1       2.447   4.470  19.396  0.00  0.00    +0.000 A 
ATOM     22  C   UNL     1       3.105   4.608  18.165  0.00  0.00    +0.000 A 
ATOM     23  C   UNL     1       3.429   5.893  17.719  0.00  0.00    +0.000 A 
ATOM     24  C   UNL     1       3.088   7.013  18.483  0.00  0.00    +0.000 A 
BRANCH  22  25
ATOM     25  C   UNL     1       3.463   3.412  17.318  0.00  0.00    +0.000 C 
ATOM     26  F   UNL     1       2.379   2.756  16.813  0.00  0.00    +0.000 F 
ATOM     27  F   UNL     1       4.225   3.749  16.240  0.00  0.00    +0.000 F 
ATOM     28  F   UNL     1       4.178   2.476  18.001  0.00  0.00    +0.000 F 
ENDBRANCH  22  25
ENDBRANCH   5  19
BRANCH   3  29
ATOM     29  C   UNL     1       0.672   9.498  22.803  0.00  0.00    +0.000 C 
ATOM     30  N   UNL     1      -0.406   9.463  23.645  0.00  0.00    +0.000 N 
ATOM     31  O   UNL     1       1.819   9.450  23.240  0.00  0.00    +0.000 OA
ATOM     32  H   UNL     1      -1.315   9.192  23.294  0.00  0.00    +0.000 HD
ATOM     33  H   UNL     1      -0.209   9.285  24.620  0.00  0.00    +0.000 HD
ENDBRANCH   3  29
TORSDOF 6
ENDMDL
MODEL 6
REMARK VINA RESULT:      -7.1      4.455      6.836
REMARK  Name = 
REMARK  8 active torsions:
REMARK  status: ('A' for Active; 'I' for Inactive)
REMARK    1  A    between atoms: C_1  and  N_2
REMARK    2  A    between atoms: N_2  and  C_3
REMARK    3  A    between atoms: N_2  and  C_4
REMARK    4  A    between atoms: C_7  and  N_8
REMARK    5  A    between atoms: C_10  and  C_11
REMARK    6  A    between atoms: N_15  and  C_16
REMARK    7  A    between atoms: C_19  and  C_20
REMARK    8  A    between atoms: C_27  and  C_28
REMARK                            x       y       z     vdW  Elec       q    Type
REMARK                         _______ _______ _______ _____ _____    ______ ____
ROOT
ATOM      1  N   UNL     1      -0.722  11.741  20.372  0.00  0.00    +0.000 N 
ATOM      2  C   UNL     1       0.078  12.790  20.035  0.00  0.00    +0.000 A 
ATOM      3  C   UNL     1       1.129  12.251  19.308  0.00  0.00    +0.000 A 
ATOM      4  C   UNL     1       0.863  10.852  19.281  0.00  0.00    +0.000 A 
ATOM      5  N   UNL     1       1.642   9.931  18.659  0.00  0.00    +0.000 N 
ATOM      6  N   UNL     1      -0.243  10.563  19.969  0.00  0.00    +0.000 NA
ATOM      7  H   UNL     1       2.321  10.254  17.972  0.00  0.00    +0.000 HD
ENDROOT
BRANCH   1  11
ATOM      8  C   UNL     1      -3.859  13.402  22.831  0.00  0.00    +0.000 C 
ATOM      9  C   UNL     1      -2.941  12.315  23.434  0.00  0.00    +0.000 C 
ATOM     10  C   UNL     1      -1.663  12.116  22.622  0.00  0.00    +0.000 C 
ATOM     11  C   UNL     1      -1.961  11.763  21.154  0.00  0.00    +0.000 C 
ATOM     12  C   UNL     1      -2.997  12.705  20.504  0.00  0.00    +0.000 C 
ATOM     13  C   UNL     1      -4.224  12.923  21.408  0.00  0.00    +0.000 C 
BRANCH   8  15
ATOM     14  C   UNL     1      -4.154  15.764  22.237  0.00  0.00    +0.000 C 
ATOM     15  N   UNL     1      -3.263  14.761  22.841  0.00  0.00    +0.000 NA
ATOM     16  C   UNL     1      -2.938  15.219  24.203  0.00  0.00    +0.000 C 
ENDBRANCH   8  15
BRANCH  12  17
ATOM     17  C   UNL     1      -3.444  12.118  19.221  0.00  0.00    +0.000 C 
ATOM     18  N   UNL     1      -3.758  11.622  18.220  0.00  0.00    +0.000 NA
ENDBRANCH  12  17
ENDBRANCH   1  11
BRANCH   5  19
ATOM     19  C   UNL     1       1.817   8.578  19.023  0.00  0.00    +0.000 A 
ATOM     20  C   UNL     1       1.542   8.163  20.331  0.00  0.00    +0.000 A 
ATOM     21  C   UNL     1       1.750   6.833  20.721  0.00  0.00    +0.000 A 
ATOM     22  C   UNL     1       2.229   5.883  19.806  0.00  0.00    +0.000 A 
ATOM     23  C   UNL     1       2.527   6.300  18.504  0.00  0.00    +0.000 A 
ATOM     24  C   UNL     1       2.337   7.632  18.127  0.00  0.00    +0.000 A 
BRANCH  22  25
ATOM     25  C   UNL     1       2.422   4.438  20.190  0.00  0.00    +0.000 C 
ATOM     26  F   UNL     1       3.575   3.892  19.706  0.00  0.00    +0.000 F 
ATOM     27  F   UNL     1       2.470   4.261  21.540  0.00  0.00    +0.000 F 
ATOM     28  F   UNL     1       1.417   3.635  19.745  0.00  0.00    +0.000 F 
ENDBRANCH  22  25
ENDBRANCH   5  19
BRANCH   3  29
ATOM     29  C   UNL     1       2.249  12.956  18.729  0.00  0.00    +0.000 C 
ATOM     30  N   UNL     1       2.412  12.794  17.380  0.00  0.00    +0.000 N 
ATOM     31  O   UNL     1       2.990  13.694  19.372  0.00  0.00    +0.000 OA
ATOM     32  H   UNL     1       1.645  12.454  16.813  0.00  0.00    +0.000 HD
ATOM     33  H   UNL     1       3.092  13.393  16.934  0.00  0.00    +0.000 HD
ENDBRANCH   3  29
TORSDOF 6
ENDMDL
MODEL 7
REMARK VINA RESULT:      -7.1      4.832      7.686
REMARK  Name = 
REMARK  8 active torsions:
REMARK  status: ('A' for Active; 'I' for Inactive)
REMARK    1  A    between atoms: C_1  and  N_2
REMARK    2  A    between atoms: N_2  and  C_3
REMARK    3  A    between atoms: N_2  and  C_4
REMARK    4  A    between atoms: C_7  and  N_8
REMARK    5  A    between atoms: C_10  and  C_11
REMARK    6  A    between atoms: N_15  and  C_16
REMARK    7  A    between atoms: C_19  and  C_20
REMARK    8  A    between atoms: C_27  and  C_28
REMARK                            x       y       z     vdW  Elec       q    Type
REMARK                         _______ _______ _______ _____ _____    ______ ____
ROOT
ATOM      1  N   UNL     1      -1.663  12.562  20.605  0.00  0.00    +0.000 N 
ATOM      2  C   UNL     1      -1.111  13.753  20.241  0.00  0.00    +0.000 A 
ATOM      3  C   UNL     1      -0.058  13.443  19.392  0.00  0.00    +0.000 A 
ATOM      4  C   UNL     1      -0.060  12.021  19.327  0.00  0.00    +0.000 A 
ATOM      5  N   UNL     1       0.808  11.281  18.592  0.00  0.00    +0.000 N 
ATOM      6  N   UNL     1      -1.016  11.509  20.104  0.00  0.00    +0.000 NA
ATOM      7  H   UNL     1       1.341  11.746  17.858  0.00  0.00    +0.000 HD
ENDROOT
BRANCH   1  11
ATOM      8  C   UNL     1      -4.756  13.522  23.461  0.00  0.00    +0.000 C 
ATOM      9  C   UNL     1      -3.607  12.585  23.898  0.00  0.00    +0.000 C 
ATOM     10  C   UNL     1      -2.409  12.654  22.955  0.00  0.00    +0.000 C 
ATOM     11  C   UNL     1      -2.797  12.328  21.502  0.00  0.00    +0.000 C 
ATOM     12  C   UNL     1      -4.041  13.105  21.020  0.00  0.00    +0.000 C 
ATOM     13  C   UNL     1      -5.184  13.058  22.050  0.00  0.00    +0.000 C 
BRANCH   8  15
ATOM     14  C   UNL     1      -5.572  15.831  23.312  0.00  0.00    +0.000 C 
ATOM     15  N   UNL     1      -4.400  14.962  23.505  0.00  0.00    +0.000 NA
ATOM     16  C   UNL     1      -3.772  15.345  24.781  0.00  0.00    +0.000 C 
ENDBRANCH   8  15
BRANCH  12  17
ATOM     17  C   UNL     1      -4.516  12.513  19.749  0.00  0.00    +0.000 C 
ATOM     18  N   UNL     1      -4.886  12.003  18.775  0.00  0.00    +0.000 NA
ENDBRANCH  12  17
ENDBRANCH   1  11
BRANCH   5  19
ATOM     19  C   UNL     1       1.270   9.976  18.875  0.00  0.00    +0.000 A 
ATOM     20  C   UNL     1       1.833   9.197  17.859  0.00  0.00    +0.000 A 
ATOM     21  C   UNL     1       2.258   7.885  18.111  0.00  0.00    +0.000 A 
ATOM     22  C   UNL     1       2.136   7.326  19.393  0.00  0.00    +0.000 A 
ATOM     23  C   UNL     1       1.552   8.094  20.405  0.00  0.00    +0.000 A 
ATOM     24  C   UNL     1       1.112   9.395  20.142  0.00  0.00    +0.000 A 
BRANCH  22  25
ATOM     25  C   UNL     1       2.623   5.932  19.700  0.00  0.00    +0.000 C 
ATOM     26  F   UNL     1       2.174   5.447  20.892  0.00  0.00    +0.000 F 
ATOM     27  F   UNL     1       2.229   5.026  18.761  0.00  0.00    +0.000 F 
ATOM     28  F   UNL     1       3.981   5.846  19.752  0.00  0.00    +0.000 F 
ENDBRANCH  22  25
ENDBRANCH   5  19
BRANCH   3  29
ATOM     29  C   UNL     1       0.845  14.363  18.741  0.00  0.00    +0.000 C 
ATOM     30  N   UNL     1       0.428  15.665  18.699  0.00  0.00    +0.000 N 
ATOM     31  O   UNL     1       1.939  14.033  18.291  0.00  0.00    +0.000 OA
ATOM     32  H   UNL     1      -0.300  15.986  19.324  0.00  0.00    +0.000 HD
ATOM     33  H   UNL     1       1.107  16.345  18.384  0.00  0.00    +0.000 HD
ENDBRANCH   3  29
TORSDOF 6
ENDMDL
MODEL 8
REMARK VINA RESULT:      -7.1      3.080      4.724
REMARK  Name = 
REMARK  8 active torsions:
REMARK  status: ('A' for Active; 'I' for Inactive)
REMARK    1  A    between atoms: C_1  and  N_2
REMARK    2  A    between atoms: N_2  and  C_3
REMARK    3  A    between atoms: N_2  and  C_4
REMARK    4  A    between atoms: C_7  and  N_8
REMARK    5  A    between atoms: C_10  and  C_11
REMARK    6  A    between atoms: N_15  and  C_16
REMARK    7  A    between atoms: C_19  and  C_20
REMARK    8  A    between atoms: C_27  and  C_28
REMARK                            x       y       z     vdW  Elec       q    Type
REMARK                         _______ _______ _______ _____ _____    ______ ____
ROOT
ATOM      1  N   UNL     1      -0.326   9.908  19.586  0.00  0.00    +0.000 N 
ATOM      2  C   UNL     1      -0.397  10.267  20.898  0.00  0.00    +0.000 A 
ATOM      3  C   UNL     1       0.514   9.460  21.564  0.00  0.00    +0.000 A 
ATOM      4  C   UNL     1       1.071   8.635  20.546  0.00  0.00    +0.000 A 
ATOM      5  N   UNL     1       2.024   7.691  20.753  0.00  0.00    +0.000 N 
ATOM      6  N   UNL     1       0.515   8.898  19.362  0.00  0.00    +0.000 NA
ATOM      7  H   UNL     1       2.553   7.719  21.623  0.00  0.00    +0.000 HD
ENDROOT
BRANCH   1  11
ATOM      8  C   UNL     1      -3.763  11.439  17.466  0.00  0.00    +0.000 C 
ATOM      9  C   UNL     1      -3.161  10.086  17.025  0.00  0.00    +0.000 C 
ATOM     10  C   UNL     1      -2.236   9.487  18.081  0.00  0.00    +0.000 C 
ATOM     11  C   UNL     1      -1.092  10.445  18.459  0.00  0.00    +0.000 C 
ATOM     12  C   UNL     1      -1.580  11.877  18.766  0.00  0.00    +0.000 C 
ATOM     13  C   UNL     1      -2.567  12.391  17.702  0.00  0.00    +0.000 C 
BRANCH   8  15
ATOM     14  C   UNL     1      -5.087  12.660  19.132  0.00  0.00    +0.000 C 
ATOM     15  N   UNL     1      -4.655  11.339  18.647  0.00  0.00    +0.000 NA
ATOM     16  C   UNL     1      -5.868  10.552  18.367  0.00  0.00    +0.000 C 
ENDBRANCH   8  15
BRANCH  12  17
ATOM     17  C   UNL     1      -0.412  12.784  18.815  0.00  0.00    +0.000 C 
ATOM     18  N   UNL     1       0.490  13.510  18.900  0.00  0.00    +0.000 NA
ENDBRANCH  12  17
ENDBRANCH   1  11
BRANCH   5  19
ATOM     19  C   UNL     1       2.216   6.499  20.020  0.00  0.00    +0.000 A 
ATOM     20  C   UNL     1       2.897   6.531  18.798  0.00  0.00    +0.000 A 
ATOM     21  C   UNL     1       3.061   5.365  18.037  0.00  0.00    +0.000 A 
ATOM     22  C   UNL     1       2.555   4.137  18.488  0.00  0.00    +0.000 A 
ATOM     23  C   UNL     1       1.854   4.106  19.698  0.00  0.00    +0.000 A 
ATOM     24  C   UNL     1       1.676   5.275  20.443  0.00  0.00    +0.000 A 
BRANCH  22  25
ATOM     25  C   UNL     1       2.754   2.862  17.708  0.00  0.00    +0.000 C 
ATOM     26  F   UNL     1       2.642   3.023  16.358  0.00  0.00    +0.000 F 
ATOM     27  F   UNL     1       3.985   2.314  17.912  0.00  0.00    +0.000 F 
ATOM     28  F   UNL     1       1.857   1.893  18.041  0.00  0.00    +0.000 F 
ENDBRANCH  22  25
ENDBRANCH   5  19
BRANCH   3  29
ATOM     29  C   UNL     1       0.809   9.451  22.978  0.00  0.00    +0.000 C 
ATOM     30  N   UNL     1      -0.280   9.423  23.805  0.00  0.00    +0.000 N 
ATOM     31  O   UNL     1       1.950   9.422  23.431  0.00  0.00    +0.000 OA
ATOM     32  H   UNL     1      -1.182   9.137  23.448  0.00  0.00    +0.000 HD
ATOM     33  H   UNL     1      -0.095   9.265  24.786  0.00  0.00    +0.000 HD
ENDBRANCH   3  29
TORSDOF 6
ENDMDL
MODEL 9
REMARK VINA RESULT:      -7.1      3.172      4.761
REMARK  Name = 
REMARK  8 active torsions:
REMARK  status: ('A' for Active; 'I' for Inactive)
REMARK    1  A    between atoms: C_1  and  N_2
REMARK    2  A    between atoms: N_2  and  C_3
REMARK    3  A    between atoms: N_2  and  C_4
REMARK    4  A    between atoms: C_7  and  N_8
REMARK    5  A    between atoms: C_10  and  C_11
REMARK    6  A    between atoms: N_15  and  C_16
REMARK    7  A    between atoms: C_19  and  C_20
REMARK    8  A    between atoms: C_27  and  C_28
REMARK                            x       y       z     vdW  Elec       q    Type
REMARK                         _______ _______ _______ _____ _____    ______ ____
ROOT
ATOM      1  N   UNL     1       0.149   9.870  19.510  0.00  0.00    +0.000 N 
ATOM      2  C   UNL     1       0.071  10.286  20.804  0.00  0.00    +0.000 A 
ATOM      3  C   UNL     1       0.818   9.380  21.542  0.00  0.00    +0.000 A 
ATOM      4  C   UNL     1       1.292   8.442  20.581  0.00  0.00    +0.000 A 
ATOM      5  N   UNL     1       2.082   7.376  20.867  0.00  0.00    +0.000 N 
ATOM      6  N   UNL     1       0.838   8.738  19.362  0.00  0.00    +0.000 NA
ATOM      7  H   UNL     1       2.568   7.359  21.762  0.00  0.00    +0.000 HD
ENDROOT
BRANCH   1  11
ATOM      8  C   UNL     1      -3.019  11.464  17.044  0.00  0.00    +0.000 C 
ATOM      9  C   UNL     1      -2.311  10.165  16.596  0.00  0.00    +0.000 C 
ATOM     10  C   UNL     1      -1.519   9.513  17.726  0.00  0.00    +0.000 C 
ATOM     11  C   UNL     1      -0.475  10.471  18.328  0.00  0.00    +0.000 C 
ATOM     12  C   UNL     1      -1.054  11.861  18.666  0.00  0.00    +0.000 C 
ATOM     13  C   UNL     1      -1.904  12.427  17.514  0.00  0.00    +0.000 C 
BRANCH   8  15
ATOM     14  C   UNL     1      -4.042  12.296  19.113  0.00  0.00    +0.000 C 
ATOM     15  N   UNL     1      -4.061  11.249  18.079  0.00  0.00    +0.000 NA
ATOM     16  C   UNL     1      -5.418  11.217  17.507  0.00  0.00    +0.000 C 
ENDBRANCH   8  15
BRANCH  12  17
ATOM     17  C   UNL     1       0.061  12.793  18.943  0.00  0.00    +0.000 C 
ATOM     18  N   UNL     1       0.931  13.543  19.112  0.00  0.00    +0.000 NA
ENDBRANCH  12  17
ENDBRANCH   1  11
BRANCH   5  19
ATOM     19  C   UNL     1       2.127   6.141  20.183  0.00  0.00    +0.000 A 
ATOM     20  C   UNL     1       1.394   5.049  20.661  0.00  0.00    +0.000 A 
ATOM     21  C   UNL     1       1.460   3.804  20.020  0.00  0.00    +0.000 A 
ATOM     22  C   UNL     1       2.256   3.627  18.878  0.00  0.00    +0.000 A 
ATOM     23  C   UNL     1       3.008   4.710  18.412  0.00  0.00    +0.000 A 
ATOM     24  C   UNL     1       2.953   5.943  19.067  0.00  0.00    +0.000 A 
BRANCH  22  25
ATOM     25  C   UNL     1       2.312   2.309  18.147  0.00  0.00    +0.000 C 
ATOM     26  F   UNL     1       2.490   2.437  16.801  0.00  0.00    +0.000 F 
ATOM     27  F   UNL     1       3.333   1.518  18.580  0.00  0.00    +0.000 F 
ATOM     28  F   UNL     1       1.179   1.570  18.302  0.00  0.00    +0.000 F 
ENDBRANCH  22  25
ENDBRANCH   5  19
BRANCH   3  29
ATOM     29  C   UNL     1       1.042   9.382  22.969  0.00  0.00    +0.000 C 
ATOM     30  N   UNL     1      -0.086   9.399  23.741  0.00  0.00    +0.000 N 
ATOM     31  O   UNL     1       2.158   9.325  23.479  0.00  0.00    +0.000 OA
ATOM     32  H   UNL     1      -0.978   9.135  23.342  0.00  0.00    +0.000 HD
ATOM     33  H   UNL     1       0.044   9.249  24.732  0.00  0.00    +0.000 HD
ENDBRANCH   3  29
TORSDOF 6
ENDMDL
