MODEL 1
REMARK VINA RESULT:      -8.0      0.000      0.000
REMARK  Name = 
REMARK  2 active torsions:
REMARK  status: ('A' for Active; 'I' for Inactive)
REMARK    1  A    between atoms: C_1  and  C_2
REMARK    2  A    between atoms: C_20  and  C_21
REMARK                            x       y       z     vdW  Elec       q    Type
REMARK                         _______ _______ _______ _____ _____    ______ ____
ROOT
ATOM      1  C   UNL     1      -1.165  11.592  21.792  0.00  0.00    +0.000 C 
ATOM      2  C   UNL     1      -0.240  10.606  21.151  0.00  0.00    +0.000 A 
ATOM      3  S   UNL     1       0.374   9.338  22.106  0.00  0.00    +0.000 S 
ATOM      4  C   UNL     1       1.129   8.619  20.772  0.00  0.00    +0.000 A 
ATOM      5  N   UNL     1       1.650   7.385  20.898  0.00  0.00    +0.000 NA
ATOM      6  C   UNL     1       2.214   6.919  19.829  0.00  0.00    +0.000 A 
ATOM      7  C   UNL     1       2.611   5.517  19.863  0.00  0.00    +0.000 A 
ATOM      8  C   UNL     1       3.262   4.989  18.837  0.00  0.00    +0.000 A 
ATOM      9  C   UNL     1       3.724   5.880  17.738  0.00  0.00    +0.000 A 
ATOM     10  N   UNL     1       4.670   5.352  16.861  0.00  0.00    +0.000 N 
ATOM     11  C   UNL     1       5.488   4.169  17.155  0.00  0.00    +0.000 C 
ATOM     12  C   UNL     1       6.839   4.471  16.533  0.00  0.00    +0.000 C 
ATOM     13  C   UNL     1       6.462   5.261  15.297  0.00  0.00    +0.000 C 
ATOM     14  C   UNL     1       5.267   6.108  15.758  0.00  0.00    +0.000 C 
ATOM     15  N   UNL     1       3.251   7.098  17.621  0.00  0.00    +0.000 NA
ATOM     16  N   UNL     1       2.406   7.613  18.638  0.00  0.00    +0.000 N 
ATOM     17  C   UNL     1       1.851   8.912  18.466  0.00  0.00    +0.000 A 
ATOM     18  O   UNL     1       1.989   9.608  17.461  0.00  0.00    +0.000 OA
ATOM     19  C   UNL     1       1.082   9.394  19.634  0.00  0.00    +0.000 A 
ATOM     20  C   UNL     1       0.181  10.523  19.826  0.00  0.00    +0.000 A 
ATOM     21  C   UNL     1      -0.320  11.461  18.773  0.00  0.00    +0.000 C 
ENDROOT
TORSDOF 0
ENDMDL
MODEL 2
REMARK VINA RESULT:      -7.7      2.419      7.390
REMARK  Name = 
REMARK  2 active torsions:
REMARK  status: ('A' for Active; 'I' for Inactive)
REMARK    1  A    between atoms: C_1  and  C_2
REMARK    2  A    between atoms: C_20  and  C_21
REMARK                            x       y       z     vdW  Elec       q    Type
REMARK                         _______ _______ _______ _____ _____    ______ ____
ROOT
ATOM      1  C   UNL     1       6.313   4.020  16.260  0.00  0.00    +0.000 C 
ATOM      2  C   UNL     1       5.386   4.982  16.934  0.00  0.00    +0.000 A 
ATOM      3  S   UNL     1       5.302   6.573  16.335  0.00  0.00    +0.000 S 
ATOM      4  C   UNL     1       4.044   6.969  17.398  0.00  0.00    +0.000 A 
ATOM      5  N   UNL     1       3.391   8.134  17.235  0.00  0.00    +0.000 NA
ATOM      6  C   UNL     1       2.450   8.356  18.098  0.00  0.00    +0.000 A 
ATOM      7  C   UNL     1       1.591   9.505  17.840  0.00  0.00    +0.000 A 
ATOM      8  C   UNL     1       0.655   9.841  18.716  0.00  0.00    +0.000 A 
ATOM      9  C   UNL     1       0.609   9.141  20.029  0.00  0.00    +0.000 A 
ATOM     10  N   UNL     1      -0.160   9.735  21.028  0.00  0.00    +0.000 N 
ATOM     11  C   UNL     1      -0.600  11.136  20.998  0.00  0.00    +0.000 C 
ATOM     12  C   UNL     1      -0.534  11.591  22.445  0.00  0.00    +0.000 C 
ATOM     13  C   UNL     1      -0.923  10.338  23.200  0.00  0.00    +0.000 C 
ATOM     14  C   UNL     1      -0.274   9.207  22.388  0.00  0.00    +0.000 C 
ATOM     15  N   UNL     1       1.268   8.021  20.213  0.00  0.00    +0.000 NA
ATOM     16  N   UNL     1       2.147   7.561  19.199  0.00  0.00    +0.000 N 
ATOM     17  C   UNL     1       2.806   6.314  19.388  0.00  0.00    +0.000 A 
ATOM     18  O   UNL     1       2.620   5.557  20.340  0.00  0.00    +0.000 OA
ATOM     19  C   UNL     1       3.782   5.986  18.326  0.00  0.00    +0.000 A 
ATOM     20  C   UNL     1       4.502   4.765  17.988  0.00  0.00    +0.000 A 
ATOM     21  C   UNL     1       4.315   3.414  18.602  0.00  0.00    +0.000 C 
ENDROOT
TORSDOF 0
ENDMDL
MODEL 3
REMARK VINA RESULT:      -7.4      2.196      3.127
REMARK  Name = 
REMARK  2 active torsions:
REMARK  status: ('A' for Active; 'I' for Inactive)
REMARK    1  A    between atoms: C_1  and  C_2
REMARK    2  A    between atoms: C_20  and  C_21
REMARK                            x       y       z     vdW  Elec       q    Type
REMARK                         _______ _______ _______ _____ _____    ______ ____
ROOT
ATOM      1  C   UNL     1      -1.349  13.005  20.725  0.00  0.00    +0.000 C 
ATOM      2  C   UNL     1      -0.629  11.750  20.344  0.00  0.00    +0.000 A 
ATOM      3  S   UNL     1      -0.167  11.548  18.718  0.00  0.00    +0.000 S 
ATOM      4  C   UNL     1       0.660  10.113  19.070  0.00  0.00    +0.000 A 
ATOM      5  N   UNL     1       1.447   9.562  18.128  0.00  0.00    +0.000 NA
ATOM      6  C   UNL     1       2.034   8.462  18.483  0.00  0.00    +0.000 A 
ATOM      7  C   UNL     1       3.045   7.943  17.571  0.00  0.00    +0.000 A 
ATOM      8  C   UNL     1       3.634   6.783  17.827  0.00  0.00    +0.000 A 
ATOM      9  C   UNL     1       3.131   5.951  18.954  0.00  0.00    +0.000 A 
ATOM     10  N   UNL     1       3.549   4.622  18.984  0.00  0.00    +0.000 N 
ATOM     11  C   UNL     1       4.116   3.916  17.829  0.00  0.00    +0.000 C 
ATOM     12  C   UNL     1       3.584   2.499  17.944  0.00  0.00    +0.000 C 
ATOM     13  C   UNL     1       3.540   2.287  19.443  0.00  0.00    +0.000 C 
ATOM     14  C   UNL     1       3.110   3.654  19.992  0.00  0.00    +0.000 C 
ATOM     15  N   UNL     1       2.335   6.465  19.862  0.00  0.00    +0.000 NA
ATOM     16  N   UNL     1       1.835   7.780  19.680  0.00  0.00    +0.000 N 
ATOM     17  C   UNL     1       1.024   8.345  20.703  0.00  0.00    +0.000 A 
ATOM     18  O   UNL     1       0.774   7.806  21.780  0.00  0.00    +0.000 OA
ATOM     19  C   UNL     1       0.465   9.671  20.360  0.00  0.00    +0.000 A 
ATOM     20  C   UNL     1      -0.211  10.693  21.148  0.00  0.00    +0.000 A 
ATOM     21  C   UNL     1      -0.401  10.701  22.633  0.00  0.00    +0.000 C 
ENDROOT
TORSDOF 0
ENDMDL
MODEL 4
REMARK VINA RESULT:      -7.2      2.137      7.071
REMARK  Name = 
REMARK  2 active torsions:
REMARK  status: ('A' for Active; 'I' for Inactive)
REMARK    1  A    between atoms: C_1  and  C_2
REMARK    2  A    between atoms: C_20  and  C_21
REMARK                            x       y       z     vdW  Elec       q    Type
REMARK                         _______ _______ _______ _____ _____    ______ ____
ROOT
ATOM      1  C   UNL     1       4.792   3.688  17.366  0.00  0.00    +0.000 C 
ATOM      2  C   UNL     1       3.957   4.801  17.915  0.00  0.00    +0.000 A 
ATOM      3  S   UNL     1       3.044   4.505  19.321  0.00  0.00    +0.000 S 
ATOM      4  C   UNL     1       2.549   6.122  19.412  0.00  0.00    +0.000 A 
ATOM      5  N   UNL     1       1.915   6.553  20.517  0.00  0.00    +0.000 NA
ATOM      6  C   UNL     1       1.567   7.801  20.494  0.00  0.00    +0.000 A 
ATOM      7  C   UNL     1       1.059   8.356  21.743  0.00  0.00    +0.000 A 
ATOM      8  C   UNL     1       0.613   9.603  21.779  0.00  0.00    +0.000 A 
ATOM      9  C   UNL     1       0.482  10.361  20.505  0.00  0.00    +0.000 A 
ATOM     10  N   UNL     1      -0.284  11.525  20.546  0.00  0.00    +0.000 N 
ATOM     11  C   UNL     1      -1.240  11.838  21.615  0.00  0.00    +0.000 C 
ATOM     12  C   UNL     1      -2.389  12.537  20.911  0.00  0.00    +0.000 C 
ATOM     13  C   UNL     1      -1.682  13.306  19.815  0.00  0.00    +0.000 C 
ATOM     14  C   UNL     1      -0.556  12.361  19.375  0.00  0.00    +0.000 C 
ATOM     15  N   UNL     1       1.068   9.936  19.410  0.00  0.00    +0.000 NA
ATOM     16  N   UNL     1       1.703   8.668  19.414  0.00  0.00    +0.000 N 
ATOM     17  C   UNL     1       2.387   8.248  18.238  0.00  0.00    +0.000 A 
ATOM     18  O   UNL     1       2.534   8.935  17.228  0.00  0.00    +0.000 OA
ATOM     19  C   UNL     1       2.912   6.868  18.312  0.00  0.00    +0.000 A 
ATOM     20  C   UNL     1       3.837   6.116  17.473  0.00  0.00    +0.000 A 
ATOM     21  C   UNL     1       4.635   6.643  16.322  0.00  0.00    +0.000 C 
ENDROOT
TORSDOF 0
ENDMDL
MODEL 5
REMARK VINA RESULT:      -7.2      2.264      3.598
REMARK  Name = 
REMARK  2 active torsions:
REMARK  status: ('A' for Active; 'I' for Inactive)
REMARK    1  A    between atoms: C_1  and  C_2
REMARK    2  A    between atoms: C_20  and  C_21
REMARK                            x       y       z     vdW  Elec       q    Type
REMARK                         _______ _______ _______ _____ _____    ______ ____
ROOT
ATOM      1  C   UNL     1      -2.846  13.540  21.442  0.00  0.00    +0.000 C 
ATOM      2  C   UNL     1      -1.961  12.426  20.980  0.00  0.00    +0.000 A 
ATOM      3  S   UNL     1      -1.582  12.332  19.323  0.00  0.00    +0.000 S 
ATOM      4  C   UNL     1      -0.513  11.044  19.580  0.00  0.00    +0.000 A 
ATOM      5  N   UNL     1       0.289  10.646  18.575  0.00  0.00    +0.000 NA
ATOM      6  C   UNL     1       1.067   9.650  18.860  0.00  0.00    +0.000 A 
ATOM      7  C   UNL     1       2.085   9.319  17.872  0.00  0.00    +0.000 A 
ATOM      8  C   UNL     1       2.868   8.266  18.056  0.00  0.00    +0.000 A 
ATOM      9  C   UNL     1       2.582   7.342  19.187  0.00  0.00    +0.000 A 
ATOM     10  N   UNL     1       3.209   6.097  19.152  0.00  0.00    +0.000 N 
ATOM     11  C   UNL     1       3.804   5.515  17.943  0.00  0.00    +0.000 C 
ATOM     12  C   UNL     1       3.515   4.028  18.050  0.00  0.00    +0.000 C 
ATOM     13  C   UNL     1       3.606   3.784  19.542  0.00  0.00    +0.000 C 
ATOM     14  C   UNL     1       2.999   5.053  20.156  0.00  0.00    +0.000 C 
ATOM     15  N   UNL     1       1.776   7.702  20.158  0.00  0.00    +0.000 NA
ATOM     16  N   UNL     1       1.060   8.922  20.046  0.00  0.00    +0.000 N 
ATOM     17  C   UNL     1       0.238   9.329  21.134  0.00  0.00    +0.000 A 
ATOM     18  O   UNL     1       0.150   8.736  22.209  0.00  0.00    +0.000 OA
ATOM     19  C   UNL     1      -0.548  10.552  20.866  0.00  0.00    +0.000 A 
ATOM     20  C   UNL     1      -1.325  11.435  21.725  0.00  0.00    +0.000 A 
ATOM     21  C   UNL     1      -1.415  11.385  23.218  0.00  0.00    +0.000 C 
ENDROOT
TORSDOF 0
ENDMDL
MODEL 6
REMARK VINA RESULT:      -7.0      2.701      3.825
REMARK  Name = 
REMARK  2 active torsions:
REMARK  status: ('A' for Active; 'I' for Inactive)
REMARK    1  A    between atoms: C_1  and  C_2
REMARK    2  A    between atoms: C_20  and  C_21
REMARK                            x       y       z     vdW  Elec       q    Type
REMARK                         _______ _______ _______ _____ _____    ______ ____
ROOT
ATOM      1  C   UNL     1      -1.140  14.305  20.045  0.00  0.00    +0.000 C 
ATOM      2  C   UNL     1      -0.593  12.919  19.907  0.00  0.00    +0.000 A 
ATOM      3  S   UNL     1      -0.079  12.405  18.368  0.00  0.00    +0.000 S 
ATOM      4  C   UNL     1       0.507  10.942  18.988  0.00  0.00    +0.000 A 
ATOM      5  N   UNL     1       1.256  10.149  18.200  0.00  0.00    +0.000 NA
ATOM      6  C   UNL     1       1.653   9.047  18.755  0.00  0.00    +0.000 A 
ATOM      7  C   UNL     1       2.625   8.258  18.009  0.00  0.00    +0.000 A 
ATOM      8  C   UNL     1       3.021   7.083  18.475  0.00  0.00    +0.000 A 
ATOM      9  C   UNL     1       2.341   6.513  19.670  0.00  0.00    +0.000 A 
ATOM     10  N   UNL     1       2.556   5.160  19.926  0.00  0.00    +0.000 N 
ATOM     11  C   UNL     1       3.075   4.212  18.932  0.00  0.00    +0.000 C 
ATOM     12  C   UNL     1       2.334   2.917  19.212  0.00  0.00    +0.000 C 
ATOM     13  C   UNL     1       2.178   2.948  20.718  0.00  0.00    +0.000 C 
ATOM     14  C   UNL     1       1.925   4.431  21.027  0.00  0.00    +0.000 C 
ATOM     15  N   UNL     1       1.581   7.267  20.430  0.00  0.00    +0.000 NA
ATOM     16  N   UNL     1       1.291   8.593  20.020  0.00  0.00    +0.000 N 
ATOM     17  C   UNL     1       0.517   9.417  20.884  0.00  0.00    +0.000 A 
ATOM     18  O   UNL     1       0.132   9.091  22.007  0.00  0.00    +0.000 OA
ATOM     19  C   UNL     1       0.180  10.737  20.310  0.00  0.00    +0.000 A 
ATOM     20  C   UNL     1      -0.380  11.952  20.887  0.00  0.00    +0.000 A 
ATOM     21  C   UNL     1      -0.648  12.217  22.335  0.00  0.00    +0.000 C 
ENDROOT
TORSDOF 0
ENDMDL
MODEL 7
REMARK VINA RESULT:      -6.9      2.813      7.054
REMARK  Name = 
REMARK  2 active torsions:
REMARK  status: ('A' for Active; 'I' for Inactive)
REMARK    1  A    between atoms: C_1  and  C_2
REMARK    2  A    between atoms: C_20  and  C_21
REMARK                            x       y       z     vdW  Elec       q    Type
REMARK                         _______ _______ _______ _____ _____    ______ ____
ROOT
ATOM      1  C   UNL     1       4.066   1.542  19.059  0.00  0.00    +0.000 C 
ATOM      2  C   UNL     1       3.691   2.990  19.112  0.00  0.00    +0.000 A 
ATOM      3  S   UNL     1       4.468   4.062  18.043  0.00  0.00    +0.000 S 
ATOM      4  C   UNL     1       3.491   5.355  18.536  0.00  0.00    +0.000 A 
ATOM      5  N   UNL     1       3.526   6.506  17.841  0.00  0.00    +0.000 NA
ATOM      6  C   UNL     1       2.752   7.441  18.295  0.00  0.00    +0.000 A 
ATOM      7  C   UNL     1       2.610   8.628  17.461  0.00  0.00    +0.000 A 
ATOM      8  C   UNL     1       1.897   9.658  17.892  0.00  0.00    +0.000 A 
ATOM      9  C   UNL     1       1.391   9.651  19.292  0.00  0.00    +0.000 A 
ATOM     10  N   UNL     1       0.940  10.868  19.799  0.00  0.00    +0.000 N 
ATOM     11  C   UNL     1       1.266  12.172  19.209  0.00  0.00    +0.000 C 
ATOM     12  C   UNL     1       1.424  13.104  20.397  0.00  0.00    +0.000 C 
ATOM     13  C   UNL     1       0.395  12.570  21.371  0.00  0.00    +0.000 C 
ATOM     14  C   UNL     1       0.458  11.049  21.170  0.00  0.00    +0.000 C 
ATOM     15  N   UNL     1       1.381   8.543  19.995  0.00  0.00    +0.000 NA
ATOM     16  N   UNL     1       1.996   7.381  19.462  0.00  0.00    +0.000 N 
ATOM     17  C   UNL     1       1.922   6.171  20.208  0.00  0.00    +0.000 A 
ATOM     18  O   UNL     1       1.301   6.031  21.260  0.00  0.00    +0.000 OA
ATOM     19  C   UNL     1       2.691   5.055  19.617  0.00  0.00    +0.000 A 
ATOM     20  C   UNL     1       2.729   3.625  19.894  0.00  0.00    +0.000 A 
ATOM     21  C   UNL     1       1.837   2.868  20.826  0.00  0.00    +0.000 C 
ENDROOT
TORSDOF 0
ENDMDL
MODEL 8
REMARK VINA RESULT:      -6.8      1.180      1.424
REMARK  Name = 
REMARK  2 active torsions:
REMARK  status: ('A' for Active; 'I' for Inactive)
REMARK    1  A    between atoms: C_1  and  C_2
REMARK    2  A    between atoms: C_20  and  C_21
REMARK                            x       y       z     vdW  Elec       q    Type
REMARK                         _______ _______ _______ _____ _____    ______ ____
ROOT
ATOM      1  C   UNL     1      -1.461  13.333  21.119  0.00  0.00    +0.000 C 
ATOM      2  C   UNL     1      -0.608  12.160  20.751  0.00  0.00    +0.000 A 
ATOM      3  S   UNL     1      -0.254  11.011  21.956  0.00  0.00    +0.000 S 
ATOM      4  C   UNL     1       0.534  10.003  20.847  0.00  0.00    +0.000 A 
ATOM      5  N   UNL     1       0.881   8.759  21.223  0.00  0.00    +0.000 NA
ATOM      6  C   UNL     1       1.486   8.063  20.312  0.00  0.00    +0.000 A 
ATOM      7  C   UNL     1       1.700   6.652  20.609  0.00  0.00    +0.000 A 
ATOM      8  C   UNL     1       2.378   5.893  19.760  0.00  0.00    +0.000 A 
ATOM      9  C   UNL     1       3.054   6.533  18.599  0.00  0.00    +0.000 A 
ATOM     10  N   UNL     1       4.008   5.768  17.931  0.00  0.00    +0.000 N 
ATOM     11  C   UNL     1       4.639   4.570  18.498  0.00  0.00    +0.000 C 
ATOM     12  C   UNL     1       6.072   4.617  18.000  0.00  0.00    +0.000 C 
ATOM     13  C   UNL     1       5.920   5.225  16.622  0.00  0.00    +0.000 C 
ATOM     14  C   UNL     1       4.801   6.260  16.803  0.00  0.00    +0.000 C 
ATOM     15  N   UNL     1       2.750   7.758  18.240  0.00  0.00    +0.000 NA
ATOM     16  N   UNL     1       1.880   8.523  19.059  0.00  0.00    +0.000 N 
ATOM     17  C   UNL     1       1.511   9.827  18.624  0.00  0.00    +0.000 A 
ATOM     18  O   UNL     1       1.833  10.326  17.547  0.00  0.00    +0.000 OA
ATOM     19  C   UNL     1       0.696  10.577  19.605  0.00  0.00    +0.000 A 
ATOM     20  C   UNL     1      -0.071  11.812  19.513  0.00  0.00    +0.000 A 
ATOM     21  C   UNL     1      -0.346  12.609  18.277  0.00  0.00    +0.000 C 
ENDROOT
TORSDOF 0
ENDMDL
MODEL 9
REMARK VINA RESULT:      -6.8      2.278      6.901
REMARK  Name = 
REMARK  2 active torsions:
REMARK  status: ('A' for Active; 'I' for Inactive)
REMARK    1  A    between atoms: C_1  and  C_2
REMARK    2  A    between atoms: C_20  and  C_21
REMARK                            x       y       z     vdW  Elec       q    Type
REMARK                         _______ _______ _______ _____ _____    ______ ____
ROOT
ATOM      1  C   UNL     1       3.584   2.656  18.900  0.00  0.00    +0.000 C 
ATOM      2  C   UNL     1       3.010   4.020  19.126  0.00  0.00    +0.000 A 
ATOM      3  S   UNL     1       2.007   4.257  20.480  0.00  0.00    +0.000 S 
ATOM      4  C   UNL     1       1.896   5.920  20.181  0.00  0.00    +0.000 A 
ATOM      5  N   UNL     1       1.341   6.719  21.110  0.00  0.00    +0.000 NA
ATOM      6  C   UNL     1       1.293   7.974  20.792  0.00  0.00    +0.000 A 
ATOM      7  C   UNL     1       0.885   8.895  21.846  0.00  0.00    +0.000 A 
ATOM      8  C   UNL     1       0.737  10.184  21.576  0.00  0.00    +0.000 A 
ATOM      9  C   UNL     1       0.828  10.642  20.163  0.00  0.00    +0.000 A 
ATOM     10  N   UNL     1       0.350  11.923  19.890  0.00  0.00    +0.000 N 
ATOM     11  C   UNL     1      -0.544  12.671  20.782  0.00  0.00    +0.000 C 
ATOM     12  C   UNL     1      -1.476  13.424  19.851  0.00  0.00    +0.000 C 
ATOM     13  C   UNL     1      -0.574  13.751  18.679  0.00  0.00    +0.000 C 
ATOM     14  C   UNL     1       0.318  12.509  18.548  0.00  0.00    +0.000 C 
ATOM     15  N   UNL     1       1.336   9.862  19.238  0.00  0.00    +0.000 NA
ATOM     16  N   UNL     1       1.660   8.521  19.566  0.00  0.00    +0.000 N 
ATOM     17  C   UNL     1       2.268   7.706  18.570  0.00  0.00    +0.000 A 
ATOM     18  O   UNL     1       2.603   8.096  17.452  0.00  0.00    +0.000 OA
ATOM     19  C   UNL     1       2.458   6.299  18.981  0.00  0.00    +0.000 A 
ATOM     20  C   UNL     1       3.211   5.194  18.404  0.00  0.00    +0.000 A 
ATOM     21  C   UNL     1       4.148   5.258  17.238  0.00  0.00    +0.000 C 
ENDROOT
TORSDOF 0
ENDMDL
