MODEL 1
REMARK VINA RESULT:      -7.4      0.000      0.000
REMARK  Name = 
REMARK  8 active torsions:
REMARK  status: ('A' for Active; 'I' for Inactive)
REMARK    1  A    between atoms: C_1  and  C_2
REMARK    2  A    between atoms: C_2  and  C_3
REMARK    3  A    between atoms: C_2  and  C_4
REMARK    4  A    between atoms: C_2  and  C_5
REMARK    5  A    between atoms: C_5  and  C_6
REMARK    6  A    between atoms: C_12  and  C_13
REMARK    7  A    between atoms: N_15  and  C_16
REMARK    8  A    between atoms: C_16  and  C_17
REMARK                            x       y       z     vdW  Elec       q    Type
REMARK                         _______ _______ _______ _____ _____    ______ ____
ROOT
ATOM      1  C   UNL     1       4.255   5.958  17.438  0.00  0.00    +0.000 C 
ATOM      2  O   UNL     1       3.818   7.094  17.615  0.00  0.00    +0.000 OA
ATOM      3  N   UNL     1       3.511   4.869  17.842  0.00  0.00    +0.000 N 
ATOM      4  C   UNL     1       3.804   3.456  17.685  0.00  0.00    +0.000 C 
ATOM      5  C   UNL     1       2.438   2.837  17.445  0.00  0.00    +0.000 C 
ATOM      6  C   UNL     1       1.485   3.698  18.271  0.00  0.00    +0.000 C 
ATOM      7  C   UNL     1       2.136   5.082  18.322  0.00  0.00    +0.000 C 
ENDROOT
BRANCH   7   8
ATOM      8  C   UNL     1       2.092   5.640  19.760  0.00  0.00    +0.000 C 
ATOM      9  O   UNL     1       2.453   4.976  20.733  0.00  0.00    +0.000 OA
ATOM     10  N   UNL     1       1.793   6.982  19.848  0.00  0.00    +0.000 N 
ATOM     11  H   UNL     1       1.524   7.462  19.001  0.00  0.00    +0.000 HD
BRANCH  10  12
ATOM     12  C   UNL     1       1.666   7.664  21.111  0.00  0.00    +0.000 C 
BRANCH  12  13
ATOM     13  C   UNL     1       0.865   8.932  20.958  0.00  0.00    +0.000 A 
ATOM     14  C   UNL     1       0.803   9.584  19.715  0.00  0.00    +0.000 A 
ATOM     15  C   UNL     1       0.049  10.748  19.558  0.00  0.00    +0.000 A 
ATOM     16  C   UNL     1      -0.654  11.274  20.641  0.00  0.00    +0.000 A 
ATOM     17  C   UNL     1      -0.598  10.633  21.877  0.00  0.00    +0.000 A 
ATOM     18 CL   UNL     1      -1.470  11.281  23.212  0.00  0.00    +0.000 Cl
ATOM     19  C   UNL     1       0.156   9.470  22.041  0.00  0.00    +0.000 A 
ENDBRANCH  12  13
ENDBRANCH  10  12
ENDBRANCH   7   8
BRANCH   1  20
ATOM     20  C   UNL     1       5.613   5.691  16.799  0.00  0.00    +0.000 C 
BRANCH  20  22
ATOM     21  C   UNL     1       7.594   7.052  17.687  0.00  0.00    +0.000 C 
ATOM     22  C   UNL     1       6.834   5.716  17.765  0.00  0.00    +0.000 C 
ATOM     23  C   UNL     1       7.788   4.539  17.482  0.00  0.00    +0.000 C 
ATOM     24  C   UNL     1       6.320   5.558  19.212  0.00  0.00    +0.000 C 
ENDBRANCH  20  22
ENDBRANCH   1  20
TORSDOF 5
ENDMDL
MODEL 2
REMARK VINA RESULT:      -7.3      4.390      8.157
REMARK  Name = 
REMARK  8 active torsions:
REMARK  status: ('A' for Active; 'I' for Inactive)
REMARK    1  A    between atoms: C_1  and  C_2
REMARK    2  A    between atoms: C_2  and  C_3
REMARK    3  A    between atoms: C_2  and  C_4
REMARK    4  A    between atoms: C_2  and  C_5
REMARK    5  A    between atoms: C_5  and  C_6
REMARK    6  A    between atoms: C_12  and  C_13
REMARK    7  A    between atoms: N_15  and  C_16
REMARK    8  A    between atoms: C_16  and  C_17
REMARK                            x       y       z     vdW  Elec       q    Type
REMARK                         _______ _______ _______ _____ _____    ______ ____
ROOT
ATOM      1  C   UNL     1       2.210   4.647  18.277  0.00  0.00    +0.000 C 
ATOM      2  O   UNL     1       2.583   4.015  17.290  0.00  0.00    +0.000 OA
ATOM      3  N   UNL     1       2.616   5.954  18.446  0.00  0.00    +0.000 N 
ATOM      4  C   UNL     1       2.257   6.892  19.493  0.00  0.00    +0.000 C 
ATOM      5  C   UNL     1       2.193   8.225  18.768  0.00  0.00    +0.000 C 
ATOM      6  C   UNL     1       3.260   8.113  17.682  0.00  0.00    +0.000 C 
ATOM      7  C   UNL     1       3.348   6.620  17.357  0.00  0.00    +0.000 C 
ENDROOT
BRANCH   7   8
ATOM      8  C   UNL     1       4.824   6.176  17.279  0.00  0.00    +0.000 C 
ATOM      9  O   UNL     1       5.635   6.435  18.169  0.00  0.00    +0.000 OA
ATOM     10  N   UNL     1       5.115   5.324  16.236  0.00  0.00    +0.000 N 
ATOM     11  H   UNL     1       4.390   5.147  15.556  0.00  0.00    +0.000 HD
BRANCH  10  12
ATOM     12  C   UNL     1       6.448   4.842  15.982  0.00  0.00    +0.000 C 
BRANCH  12  13
ATOM     13  C   UNL     1       6.674   4.640  14.505  0.00  0.00    +0.000 A 
ATOM     14  C   UNL     1       7.634   5.407  13.824  0.00  0.00    +0.000 A 
ATOM     15  C   UNL     1       7.863   5.216  12.461  0.00  0.00    +0.000 A 
ATOM     16  C   UNL     1       7.138   4.253  11.761  0.00  0.00    +0.000 A 
ATOM     17  C   UNL     1       6.183   3.488  12.428  0.00  0.00    +0.000 A 
ATOM     18 CL   UNL     1       5.290   2.296  11.565  0.00  0.00    +0.000 Cl
ATOM     19  C   UNL     1       5.947   3.676  13.791  0.00  0.00    +0.000 A 
ENDBRANCH  12  13
ENDBRANCH  10  12
ENDBRANCH   7   8
BRANCH   1  20
ATOM     20  C   UNL     1       1.319   4.037  19.353  0.00  0.00    +0.000 C 
BRANCH  20  22
ATOM     21  C   UNL     1       1.803   1.521  19.341  0.00  0.00    +0.000 C 
ATOM     22  C   UNL     1       1.925   2.834  20.135  0.00  0.00    +0.000 C 
ATOM     23  C   UNL     1       1.268   2.686  21.520  0.00  0.00    +0.000 C 
ATOM     24  C   UNL     1       3.428   3.102  20.361  0.00  0.00    +0.000 C 
ENDBRANCH  20  22
ENDBRANCH   1  20
TORSDOF 5
ENDMDL
MODEL 3
REMARK VINA RESULT:      -7.3      1.046      1.701
REMARK  Name = 
REMARK  8 active torsions:
REMARK  status: ('A' for Active; 'I' for Inactive)
REMARK    1  A    between atoms: C_1  and  C_2
REMARK    2  A    between atoms: C_2  and  C_3
REMARK    3  A    between atoms: C_2  and  C_4
REMARK    4  A    between atoms: C_2  and  C_5
REMARK    5  A    between atoms: C_5  and  C_6
REMARK    6  A    between atoms: C_12  and  C_13
REMARK    7  A    between atoms: N_15  and  C_16
REMARK    8  A    between atoms: C_16  and  C_17
REMARK                            x       y       z     vdW  Elec       q    Type
REMARK                         _______ _______ _______ _____ _____    ______ ____
ROOT
ATOM      1  C   UNL     1       4.143   5.909  17.496  0.00  0.00    +0.000 C 
ATOM      2  O   UNL     1       3.733   7.051  17.700  0.00  0.00    +0.000 OA
ATOM      3  N   UNL     1       3.401   4.829  17.929  0.00  0.00    +0.000 N 
ATOM      4  C   UNL     1       3.663   3.413  17.751  0.00  0.00    +0.000 C 
ATOM      5  C   UNL     1       2.279   2.817  17.571  0.00  0.00    +0.000 C 
ATOM      6  C   UNL     1       1.379   3.688  18.444  0.00  0.00    +0.000 C 
ATOM      7  C   UNL     1       2.054   5.061  18.473  0.00  0.00    +0.000 C 
ENDROOT
BRANCH   7   8
ATOM      8  C   UNL     1       2.086   5.611  19.915  0.00  0.00    +0.000 C 
ATOM      9  O   UNL     1       2.418   4.916  20.875  0.00  0.00    +0.000 OA
ATOM     10  N   UNL     1       1.890   6.971  20.016  0.00  0.00    +0.000 N 
ATOM     11  H   UNL     1       1.638   7.475  19.179  0.00  0.00    +0.000 HD
BRANCH  10  12
ATOM     12  C   UNL     1       1.844   7.652  21.285  0.00  0.00    +0.000 C 
BRANCH  12  13
ATOM     13  C   UNL     1       0.911   8.835  21.227  0.00  0.00    +0.000 A 
ATOM     14  C   UNL     1       0.434   9.418  22.413  0.00  0.00    +0.000 A 
ATOM     15  C   UNL     1      -0.416  10.524  22.370  0.00  0.00    +0.000 A 
ATOM     16  C   UNL     1      -0.798  11.063  21.142  0.00  0.00    +0.000 A 
ATOM     17  C   UNL     1      -0.329  10.491  19.962  0.00  0.00    +0.000 A 
ATOM     18 CL   UNL     1      -0.796  11.159  18.446  0.00  0.00    +0.000 Cl
ATOM     19  C   UNL     1       0.520   9.382  19.997  0.00  0.00    +0.000 A 
ENDBRANCH  12  13
ENDBRANCH  10  12
ENDBRANCH   7   8
BRANCH   1  20
ATOM     20  C   UNL     1       5.466   5.624  16.794  0.00  0.00    +0.000 C 
BRANCH  20  22
ATOM     21  C   UNL     1       6.392   5.492  19.179  0.00  0.00    +0.000 C 
ATOM     22  C   UNL     1       6.737   5.682  17.691  0.00  0.00    +0.000 C 
ATOM     23  C   UNL     1       7.503   7.002  17.482  0.00  0.00    +0.000 C 
ATOM     24  C   UNL     1       7.679   4.529  17.283  0.00  0.00    +0.000 C 
ENDBRANCH  20  22
ENDBRANCH   1  20
TORSDOF 5
ENDMDL
MODEL 4
REMARK VINA RESULT:      -7.3      4.395      8.210
REMARK  Name = 
REMARK  8 active torsions:
REMARK  status: ('A' for Active; 'I' for Inactive)
REMARK    1  A    between atoms: C_1  and  C_2
REMARK    2  A    between atoms: C_2  and  C_3
REMARK    3  A    between atoms: C_2  and  C_4
REMARK    4  A    between atoms: C_2  and  C_5
REMARK    5  A    between atoms: C_5  and  C_6
REMARK    6  A    between atoms: C_12  and  C_13
REMARK    7  A    between atoms: N_15  and  C_16
REMARK    8  A    between atoms: C_16  and  C_17
REMARK                            x       y       z     vdW  Elec       q    Type
REMARK                         _______ _______ _______ _____ _____    ______ ____
ROOT
ATOM      1  C   UNL     1       3.549   4.164  18.897  0.00  0.00    +0.000 C 
ATOM      2  O   UNL     1       3.875   3.444  17.955  0.00  0.00    +0.000 OA
ATOM      3  N   UNL     1       3.509   5.533  18.729  0.00  0.00    +0.000 N 
ATOM      4  C   UNL     1       3.106   6.556  19.676  0.00  0.00    +0.000 C 
ATOM      5  C   UNL     1       2.420   7.593  18.805  0.00  0.00    +0.000 C 
ATOM      6  C   UNL     1       3.175   7.529  17.479  0.00  0.00    +0.000 C 
ATOM      7  C   UNL     1       3.691   6.091  17.380  0.00  0.00    +0.000 C 
ENDROOT
BRANCH   7   8
ATOM      8  C   UNL     1       5.168   6.084  16.932  0.00  0.00    +0.000 C 
ATOM      9  O   UNL     1       5.900   7.065  17.068  0.00  0.00    +0.000 OA
ATOM     10  N   UNL     1       5.644   4.852  16.541  0.00  0.00    +0.000 N 
ATOM     11  H   UNL     1       4.985   4.091  16.472  0.00  0.00    +0.000 HD
BRANCH  10  12
ATOM     12  C   UNL     1       6.986   4.663  16.051  0.00  0.00    +0.000 C 
BRANCH  12  13
ATOM     13  C   UNL     1       7.001   4.579  14.545  0.00  0.00    +0.000 A 
ATOM     14  C   UNL     1       7.834   5.430  13.798  0.00  0.00    +0.000 A 
ATOM     15  C   UNL     1       7.869   5.349  12.405  0.00  0.00    +0.000 A 
ATOM     16  C   UNL     1       7.075   4.414  11.742  0.00  0.00    +0.000 A 
ATOM     17  C   UNL     1       6.247   3.567  12.475  0.00  0.00    +0.000 A 
ATOM     18 CL   UNL     1       5.270   2.411  11.656  0.00  0.00    +0.000 Cl
ATOM     19  C   UNL     1       6.205   3.645  13.869  0.00  0.00    +0.000 A 
ENDBRANCH  12  13
ENDBRANCH  10  12
ENDBRANCH   7   8
BRANCH   1  20
ATOM     20  C   UNL     1       3.201   3.609  20.273  0.00  0.00    +0.000 C 
BRANCH  20  22
ATOM     21  C   UNL     1       1.535   2.446  21.834  0.00  0.00    +0.000 C 
ATOM     22  C   UNL     1       1.773   3.006  20.421  0.00  0.00    +0.000 C 
ATOM     23  C   UNL     1       1.520   1.915  19.362  0.00  0.00    +0.000 C 
ATOM     24  C   UNL     1       0.739   4.128  20.187  0.00  0.00    +0.000 C 
ENDBRANCH  20  22
ENDBRANCH   1  20
TORSDOF 5
ENDMDL
MODEL 5
REMARK VINA RESULT:      -7.0      1.900      4.286
REMARK  Name = 
REMARK  8 active torsions:
REMARK  status: ('A' for Active; 'I' for Inactive)
REMARK    1  A    between atoms: C_1  and  C_2
REMARK    2  A    between atoms: C_2  and  C_3
REMARK    3  A    between atoms: C_2  and  C_4
REMARK    4  A    between atoms: C_2  and  C_5
REMARK    5  A    between atoms: C_5  and  C_6
REMARK    6  A    between atoms: C_12  and  C_13
REMARK    7  A    between atoms: N_15  and  C_16
REMARK    8  A    between atoms: C_16  and  C_17
REMARK                            x       y       z     vdW  Elec       q    Type
REMARK                         _______ _______ _______ _____ _____    ______ ____
ROOT
ATOM      1  C   UNL     1       4.403   4.210  18.723  0.00  0.00    +0.000 C 
ATOM      2  O   UNL     1       4.673   4.999  19.627  0.00  0.00    +0.000 OA
ATOM      3  N   UNL     1       4.950   4.393  17.471  0.00  0.00    +0.000 N 
ATOM      4  C   UNL     1       4.814   3.565  16.286  0.00  0.00    +0.000 C 
ATOM      5  C   UNL     1       6.176   3.667  15.625  0.00  0.00    +0.000 C 
ATOM      6  C   UNL     1       6.649   5.081  15.954  0.00  0.00    +0.000 C 
ATOM      7  C   UNL     1       5.978   5.429  17.285  0.00  0.00    +0.000 C 
ENDROOT
BRANCH   7   8
ATOM      8  C   UNL     1       5.381   6.851  17.226  0.00  0.00    +0.000 C 
ATOM      9  O   UNL     1       6.065   7.840  16.964  0.00  0.00    +0.000 OA
ATOM     10  N   UNL     1       4.007   6.901  17.311  0.00  0.00    +0.000 N 
ATOM     11  H   UNL     1       3.515   6.042  17.510  0.00  0.00    +0.000 HD
BRANCH  10  12
ATOM     12  C   UNL     1       3.278   8.144  17.317  0.00  0.00    +0.000 C 
BRANCH  12  13
ATOM     13  C   UNL     1       2.396   8.244  18.536  0.00  0.00    +0.000 A 
ATOM     14  C   UNL     1       2.503   7.294  19.566  0.00  0.00    +0.000 A 
ATOM     15  C   UNL     1       1.705   7.387  20.706  0.00  0.00    +0.000 A 
ATOM     16  C   UNL     1       0.791   8.432  20.834  0.00  0.00    +0.000 A 
ATOM     17  C   UNL     1       0.679   9.378  19.817  0.00  0.00    +0.000 A 
ATOM     18 CL   UNL     1      -0.446  10.671  19.976  0.00  0.00    +0.000 Cl
ATOM     19  C   UNL     1       1.473   9.290  18.672  0.00  0.00    +0.000 A 
ENDBRANCH  12  13
ENDBRANCH  10  12
ENDBRANCH   7   8
BRANCH   1  20
ATOM     20  C   UNL     1       3.459   3.029  18.919  0.00  0.00    +0.000 C 
BRANCH  20  22
ATOM     21  C   UNL     1       1.536   4.361  17.878  0.00  0.00    +0.000 C 
ATOM     22  C   UNL     1       1.943   3.375  18.986  0.00  0.00    +0.000 C 
ATOM     23  C   UNL     1       1.564   3.937  20.370  0.00  0.00    +0.000 C 
ATOM     24  C   UNL     1       1.133   2.078  18.774  0.00  0.00    +0.000 C 
ENDBRANCH  20  22
ENDBRANCH   1  20
TORSDOF 5
ENDMDL
MODEL 6
REMARK VINA RESULT:      -6.9      0.834      1.162
REMARK  Name = 
REMARK  8 active torsions:
REMARK  status: ('A' for Active; 'I' for Inactive)
REMARK    1  A    between atoms: C_1  and  C_2
REMARK    2  A    between atoms: C_2  and  C_3
REMARK    3  A    between atoms: C_2  and  C_4
REMARK    4  A    between atoms: C_2  and  C_5
REMARK    5  A    between atoms: C_5  and  C_6
REMARK    6  A    between atoms: C_12  and  C_13
REMARK    7  A    between atoms: N_15  and  C_16
REMARK    8  A    between atoms: C_16  and  C_17
REMARK                            x       y       z     vdW  Elec       q    Type
REMARK                         _______ _______ _______ _____ _____    ______ ____
ROOT
ATOM      1  C   UNL     1       4.365   5.280  18.246  0.00  0.00    +0.000 C 
ATOM      2  O   UNL     1       4.013   6.452  18.364  0.00  0.00    +0.000 OA
ATOM      3  N   UNL     1       3.458   4.267  18.481  0.00  0.00    +0.000 N 
ATOM      4  C   UNL     1       3.639   2.833  18.350  0.00  0.00    +0.000 C 
ATOM      5  C   UNL     1       2.291   2.350  17.847  0.00  0.00    +0.000 C 
ATOM      6  C   UNL     1       1.286   3.297  18.499  0.00  0.00    +0.000 C 
ATOM      7  C   UNL     1       2.045   4.611  18.701  0.00  0.00    +0.000 C 
ENDROOT
BRANCH   7   8
ATOM      8  C   UNL     1       1.785   5.165  20.118  0.00  0.00    +0.000 C 
ATOM      9  O   UNL     1       1.806   4.447  21.117  0.00  0.00    +0.000 OA
ATOM     10  N   UNL     1       1.709   6.539  20.193  0.00  0.00    +0.000 N 
ATOM     11  H   UNL     1       1.717   7.060  19.329  0.00  0.00    +0.000 HD
BRANCH  10  12
ATOM     12  C   UNL     1       1.429   7.230  21.426  0.00  0.00    +0.000 C 
BRANCH  12  13
ATOM     13  C   UNL     1       0.836   8.590  21.157  0.00  0.00    +0.000 A 
ATOM     14  C   UNL     1       1.008   9.200  19.902  0.00  0.00    +0.000 A 
ATOM     15  C   UNL     1       0.449  10.451  19.636  0.00  0.00    +0.000 A 
ATOM     16  C   UNL     1      -0.291  11.106  20.620  0.00  0.00    +0.000 A 
ATOM     17  C   UNL     1      -0.466  10.508  21.866  0.00  0.00    +0.000 A 
ATOM     18 CL   UNL     1      -1.383  11.316  23.078  0.00  0.00    +0.000 Cl
ATOM     19  C   UNL     1       0.093   9.259  22.139  0.00  0.00    +0.000 A 
ENDBRANCH  12  13
ENDBRANCH  10  12
ENDBRANCH   7   8
BRANCH   1  20
ATOM     20  C   UNL     1       5.787   4.884  17.866  0.00  0.00    +0.000 C 
BRANCH  20  22
ATOM     21  C   UNL     1       5.273   6.166  15.709  0.00  0.00    +0.000 C 
ATOM     22  C   UNL     1       6.379   5.596  16.615  0.00  0.00    +0.000 C 
ATOM     23  C   UNL     1       7.290   4.646  15.815  0.00  0.00    +0.000 C 
ATOM     24  C   UNL     1       7.247   6.781  17.088  0.00  0.00    +0.000 C 
ENDBRANCH  20  22
ENDBRANCH   1  20
TORSDOF 5
ENDMDL
MODEL 7
REMARK VINA RESULT:      -6.9      1.073      1.559
REMARK  Name = 
REMARK  8 active torsions:
REMARK  status: ('A' for Active; 'I' for Inactive)
REMARK    1  A    between atoms: C_1  and  C_2
REMARK    2  A    between atoms: C_2  and  C_3
REMARK    3  A    between atoms: C_2  and  C_4
REMARK    4  A    between atoms: C_2  and  C_5
REMARK    5  A    between atoms: C_5  and  C_6
REMARK    6  A    between atoms: C_12  and  C_13
REMARK    7  A    between atoms: N_15  and  C_16
REMARK    8  A    between atoms: C_16  and  C_17
REMARK                            x       y       z     vdW  Elec       q    Type
REMARK                         _______ _______ _______ _____ _____    ______ ____
ROOT
ATOM      1  C   UNL     1       3.285   4.746  17.718  0.00  0.00    +0.000 C 
ATOM      2  O   UNL     1       2.898   5.914  17.694  0.00  0.00    +0.000 OA
ATOM      3  N   UNL     1       2.692   3.848  18.580  0.00  0.00    +0.000 N 
ATOM      4  C   UNL     1       2.950   2.428  18.736  0.00  0.00    +0.000 C 
ATOM      5  C   UNL     1       1.579   1.851  19.040  0.00  0.00    +0.000 C 
ATOM      6  C   UNL     1       0.873   2.954  19.826  0.00  0.00    +0.000 C 
ATOM      7  C   UNL     1       1.496   4.261  19.331  0.00  0.00    +0.000 C 
ENDROOT
BRANCH   7   8
ATOM      8  C   UNL     1       1.835   5.177  20.526  0.00  0.00    +0.000 C 
ATOM      9  O   UNL     1       2.390   4.753  21.540  0.00  0.00    +0.000 OA
ATOM     10  N   UNL     1       1.635   6.520  20.296  0.00  0.00    +0.000 N 
ATOM     11  H   UNL     1       1.191   6.790  19.431  0.00  0.00    +0.000 HD
BRANCH  10  12
ATOM     12  C   UNL     1       1.857   7.519  21.311  0.00  0.00    +0.000 C 
BRANCH  12  13
ATOM     13  C   UNL     1       1.020   8.745  21.050  0.00  0.00    +0.000 A 
ATOM     14  C   UNL     1       0.956   9.296  19.759  0.00  0.00    +0.000 A 
ATOM     15  C   UNL     1       0.169  10.420  19.503  0.00  0.00    +0.000 A 
ATOM     16  C   UNL     1      -0.565  11.006  20.533  0.00  0.00    +0.000 A 
ATOM     17  C   UNL     1      -0.507  10.466  21.816  0.00  0.00    +0.000 A 
ATOM     18 CL   UNL     1      -1.417  11.188  23.086  0.00  0.00    +0.000 Cl
ATOM     19  C   UNL     1       0.280   9.343  22.080  0.00  0.00    +0.000 A 
ENDBRANCH  12  13
ENDBRANCH  10  12
ENDBRANCH   7   8
BRANCH   1  20
ATOM     20  C   UNL     1       4.423   4.241  16.840  0.00  0.00    +0.000 C 
BRANCH  20  22
ATOM     21  C   UNL     1       6.896   4.400  16.191  0.00  0.00    +0.000 C 
ATOM     22  C   UNL     1       5.685   5.150  16.773  0.00  0.00    +0.000 C 
ATOM     23  C   UNL     1       6.028   5.725  18.161  0.00  0.00    +0.000 C 
ATOM     24  C   UNL     1       5.384   6.341  15.838  0.00  0.00    +0.000 C 
ENDBRANCH  20  22
ENDBRANCH   1  20
TORSDOF 5
ENDMDL
MODEL 8
REMARK VINA RESULT:      -6.8      5.144      8.832
REMARK  Name = 
REMARK  8 active torsions:
REMARK  status: ('A' for Active; 'I' for Inactive)
REMARK    1  A    between atoms: C_1  and  C_2
REMARK    2  A    between atoms: C_2  and  C_3
REMARK    3  A    between atoms: C_2  and  C_4
REMARK    4  A    between atoms: C_2  and  C_5
REMARK    5  A    between atoms: C_5  and  C_6
REMARK    6  A    between atoms: C_12  and  C_13
REMARK    7  A    between atoms: N_15  and  C_16
REMARK    8  A    between atoms: C_16  and  C_17
REMARK                            x       y       z     vdW  Elec       q    Type
REMARK                         _______ _______ _______ _____ _____    ______ ____
ROOT
ATOM      1  C   UNL     1       4.329   3.729  16.987  0.00  0.00    +0.000 C 
ATOM      2  O   UNL     1       4.061   3.916  15.801  0.00  0.00    +0.000 OA
ATOM      3  N   UNL     1       5.348   4.446  17.579  0.00  0.00    +0.000 N 
ATOM      4  C   UNL     1       5.794   4.427  18.960  0.00  0.00    +0.000 C 
ATOM      5  C   UNL     1       6.191   5.869  19.223  0.00  0.00    +0.000 C 
ATOM      6  C   UNL     1       6.725   6.362  17.880  0.00  0.00    +0.000 C 
ATOM      7  C   UNL     1       5.982   5.540  16.825  0.00  0.00    +0.000 C 
ENDROOT
BRANCH   7   8
ATOM      8  C   UNL     1       6.970   5.026  15.756  0.00  0.00    +0.000 C 
ATOM      9  O   UNL     1       7.949   4.337  16.044  0.00  0.00    +0.000 OA
ATOM     10  N   UNL     1       6.573   5.244  14.455  0.00  0.00    +0.000 N 
ATOM     11  H   UNL     1       5.747   5.804  14.301  0.00  0.00    +0.000 HD
BRANCH  10  12
ATOM     12  C   UNL     1       7.388   4.872  13.327  0.00  0.00    +0.000 C 
BRANCH  12  13
ATOM     13  C   UNL     1       6.707   3.810  12.500  0.00  0.00    +0.000 A 
ATOM     14  C   UNL     1       7.446   2.730  11.989  0.00  0.00    +0.000 A 
ATOM     15  C   UNL     1       6.823   1.733  11.237  0.00  0.00    +0.000 A 
ATOM     16  C   UNL     1       5.452   1.801  10.989  0.00  0.00    +0.000 A 
ATOM     17  C   UNL     1       4.712   2.868  11.493  0.00  0.00    +0.000 A 
ATOM     18 CL   UNL     1       3.020   2.950  11.190  0.00  0.00    +0.000 Cl
ATOM     19  C   UNL     1       5.330   3.871  12.243  0.00  0.00    +0.000 A 
ENDBRANCH  12  13
ENDBRANCH  10  12
ENDBRANCH   7   8
BRANCH   1  20
ATOM     20  C   UNL     1       3.588   2.711  17.846  0.00  0.00    +0.000 C 
BRANCH  20  22
ATOM     21  C   UNL     1       1.733   4.478  17.891  0.00  0.00    +0.000 C 
ATOM     22  C   UNL     1       2.324   3.239  18.587  0.00  0.00    +0.000 C 
ATOM     23  C   UNL     1       2.637   3.552  20.063  0.00  0.00    +0.000 C 
ATOM     24  C   UNL     1       1.245   2.136  18.566  0.00  0.00    +0.000 C 
ENDBRANCH  20  22
ENDBRANCH   1  20
TORSDOF 5
ENDMDL
MODEL 9
REMARK VINA RESULT:      -6.7      1.889      3.960
REMARK  Name = 
REMARK  8 active torsions:
REMARK  status: ('A' for Active; 'I' for Inactive)
REMARK    1  A    between atoms: C_1  and  C_2
REMARK    2  A    between atoms: C_2  and  C_3
REMARK    3  A    between atoms: C_2  and  C_4
REMARK    4  A    between atoms: C_2  and  C_5
REMARK    5  A    between atoms: C_5  and  C_6
REMARK    6  A    between atoms: C_12  and  C_13
REMARK    7  A    between atoms: N_15  and  C_16
REMARK    8  A    between atoms: C_16  and  C_17
REMARK                            x       y       z     vdW  Elec       q    Type
REMARK                         _______ _______ _______ _____ _____    ______ ____
ROOT
ATOM      1  C   UNL     1       1.725   5.433  19.806  0.00  0.00    +0.000 C 
ATOM      2  O   UNL     1       1.624   6.284  20.688  0.00  0.00    +0.000 OA
ATOM      3  N   UNL     1       2.460   5.707  18.672  0.00  0.00    +0.000 N 
ATOM      4  C   UNL     1       2.754   4.842  17.545  0.00  0.00    +0.000 C 
ATOM      5  C   UNL     1       4.166   5.240  17.152  0.00  0.00    +0.000 C 
ATOM      6  C   UNL     1       4.237   6.732  17.467  0.00  0.00    +0.000 C 
ATOM      7  C   UNL     1       3.250   6.948  18.617  0.00  0.00    +0.000 C 
ENDROOT
BRANCH   7   8
ATOM      8  C   UNL     1       2.378   8.192  18.346  0.00  0.00    +0.000 C 
ATOM      9  O   UNL     1       2.137   8.589  17.206  0.00  0.00    +0.000 OA
ATOM     10  N   UNL     1       1.750   8.707  19.459  0.00  0.00    +0.000 N 
ATOM     11  H   UNL     1       1.986   8.315  20.358  0.00  0.00    +0.000 HD
BRANCH  10  12
ATOM     12  C   UNL     1       0.931   9.891  19.404  0.00  0.00    +0.000 C 
BRANCH  12  13
ATOM     13  C   UNL     1       0.240  10.128  20.723  0.00  0.00    +0.000 A 
ATOM     14  C   UNL     1       0.192   9.108  21.689  0.00  0.00    +0.000 A 
ATOM     15  C   UNL     1      -0.429   9.323  22.921  0.00  0.00    +0.000 A 
ATOM     16  C   UNL     1      -1.007  10.560  23.204  0.00  0.00    +0.000 A 
ATOM     17  C   UNL     1      -0.963  11.576  22.251  0.00  0.00    +0.000 A 
ATOM     18 CL   UNL     1      -1.674  13.104  22.603  0.00  0.00    +0.000 Cl
ATOM     19  C   UNL     1      -0.346  11.367  21.017  0.00  0.00    +0.000 A 
ENDBRANCH  12  13
ENDBRANCH  10  12
ENDBRANCH   7   8
BRANCH   1  20
ATOM     20  C   UNL     1       1.046   4.071  19.899  0.00  0.00    +0.000 C 
BRANCH  20  22
ATOM     21  C   UNL     1       1.993   1.731  19.460  0.00  0.00    +0.000 C 
ATOM     22  C   UNL     1       1.925   2.910  20.448  0.00  0.00    +0.000 C 
ATOM     23  C   UNL     1       1.416   2.430  21.820  0.00  0.00    +0.000 C 
ATOM     24  C   UNL     1       3.364   3.433  20.644  0.00  0.00    +0.000 C 
ENDBRANCH  20  22
ENDBRANCH   1  20
TORSDOF 5
ENDMDL
