MODEL 1
REMARK VINA RESULT:      -7.8      0.000      0.000
REMARK  Name = 
REMARK  9 active torsions:
REMARK  status: ('A' for Active; 'I' for Inactive)
REMARK    1  A    between atoms: C_1  and  C_2
REMARK    2  A    between atoms: C_2  and  C_3
REMARK    3  A    between atoms: C_3  and  N_4
REMARK    4  A    between atoms: C_7  and  C_8
REMARK    5  A    between atoms: C_8  and  C_9
REMARK    6  A    between atoms: C_14  and  O_15
REMARK    7  A    between atoms: O_15  and  C_16
REMARK    8  A    between atoms: C_22  and  C_23
REMARK    9  A    between atoms: C_23  and  C_24
REMARK                            x       y       z     vdW  Elec       q    Type
REMARK                         _______ _______ _______ _____ _____    ______ ____
ROOT
ATOM      1  C   UNL     1       3.477   6.216  19.010  0.00  0.00    +0.000 C 
ENDROOT
BRANCH   1   2
ATOM      2  C   UNL     1       2.276   7.165  18.792  0.00  0.00    +0.000 C 
ATOM      3  C   UNL     1       2.673   8.501  18.145  0.00  0.00    +0.000 C 
ATOM      4  C   UNL     1       1.386   9.298  17.836  0.00  0.00    +0.000 C 
ATOM      5  C   UNL     1       0.579   9.476  19.103  0.00  0.00    +0.000 A 
ATOM      6  C   UNL     1      -0.372  10.490  19.213  0.00  0.00    +0.000 A 
ATOM      7  C   UNL     1      -0.514  11.122  20.446  0.00  0.00    +0.000 A 
ATOM      8  C   UNL     1       0.313  10.763  21.512  0.00  0.00    +0.000 A 
ATOM      9  C   UNL     1       1.037   9.573  21.455  0.00  0.00    +0.000 A 
ATOM     10  C   UNL     1       1.048   8.863  20.265  0.00  0.00    +0.000 A 
ATOM     11  C   UNL     1       1.645   7.514  20.142  0.00  0.00    +0.000 C 
ATOM     12  O   UNL     1       1.530   6.707  21.059  0.00  0.00    +0.000 OA
BRANCH   7  13
ATOM     13  O   UNL     1      -1.348  12.188  20.630  0.00  0.00    +0.000 OA
ATOM     14  C   UNL     1      -1.744  12.325  21.997  0.00  0.00    +0.000 C 
ENDBRANCH   7  13
ENDBRANCH   1   2
BRANCH   1  18
ATOM     15  N   UNL     1       5.871   4.849  15.647  0.00  0.00    +0.000 N 
ATOM     16  C   UNL     1       6.097   6.063  16.185  0.00  0.00    +0.000 A 
ATOM     17  C   UNL     1       5.336   6.502  17.271  0.00  0.00    +0.000 A 
ATOM     18  C   UNL     1       4.271   5.744  17.790  0.00  0.00    +0.000 A 
ATOM     19  C   UNL     1       4.032   4.507  17.165  0.00  0.00    +0.000 A 
ATOM     20  C   UNL     1       4.850   4.089  16.100  0.00  0.00    +0.000 A 
BRANCH  19  21
ATOM     21  C   UNL     1       3.031   3.483  17.559  0.00  0.00    +0.000 C 
ATOM     22  C   UNL     1       3.375   2.322  18.454  0.00  0.00    +0.000 C 
ATOM     23  O   UNL     1       1.881   3.655  17.155  0.00  0.00    +0.000 OA
ENDBRANCH  19  21
BRANCH  15  24
ATOM     24  C   UNL     1       6.732   4.353  14.546  0.00  0.00    +0.000 C 
BRANCH  24  26
ATOM     25  C   UNL     1       6.675   3.586  12.115  0.00  0.00    +0.000 C 
ATOM     26  C   UNL     1       5.908   3.731  13.421  0.00  0.00    +0.000 C 
ENDBRANCH  24  26
ENDBRANCH  15  24
ENDBRANCH   1  18
TORSDOF 6
ENDMDL
MODEL 2
REMARK VINA RESULT:      -7.6      1.724      2.463
REMARK  Name = 
REMARK  9 active torsions:
REMARK  status: ('A' for Active; 'I' for Inactive)
REMARK    1  A    between atoms: C_1  and  C_2
REMARK    2  A    between atoms: C_2  and  C_3
REMARK    3  A    between atoms: C_3  and  N_4
REMARK    4  A    between atoms: C_7  and  C_8
REMARK    5  A    between atoms: C_8  and  C_9
REMARK    6  A    between atoms: C_14  and  O_15
REMARK    7  A    between atoms: O_15  and  C_16
REMARK    8  A    between atoms: C_22  and  C_23
REMARK    9  A    between atoms: C_23  and  C_24
REMARK                            x       y       z     vdW  Elec       q    Type
REMARK                         _______ _______ _______ _____ _____    ______ ____
ROOT
ATOM      1  C   UNL     1       4.225   5.678  18.537  0.00  0.00    +0.000 C 
ENDROOT
BRANCH   1   2
ATOM      2  C   UNL     1       3.012   6.624  18.383  0.00  0.00    +0.000 C 
ATOM      3  C   UNL     1       3.409   8.050  17.968  0.00  0.00    +0.000 C 
ATOM      4  C   UNL     1       2.121   8.859  17.695  0.00  0.00    +0.000 C 
ATOM      5  C   UNL     1       1.233   8.829  18.919  0.00  0.00    +0.000 A 
ATOM      6  C   UNL     1       0.247   9.796  19.114  0.00  0.00    +0.000 A 
ATOM      7  C   UNL     1       0.010  10.235  20.414  0.00  0.00    +0.000 A 
ATOM      8  C   UNL     1       0.778   9.738  21.468  0.00  0.00    +0.000 A 
ATOM      9  C   UNL     1       1.539   8.583  21.285  0.00  0.00    +0.000 A 
ATOM     10  C   UNL     1       1.645   8.059  20.006  0.00  0.00    +0.000 A 
ATOM     11  C   UNL     1       2.288   6.756  19.725  0.00  0.00    +0.000 C 
ATOM     12  O   UNL     1       2.139   5.819  20.503  0.00  0.00    +0.000 OA
BRANCH   7  13
ATOM     13  O   UNL     1      -0.865  11.245  20.698  0.00  0.00    +0.000 OA
ATOM     14  C   UNL     1      -1.571  11.682  19.533  0.00  0.00    +0.000 C 
ENDBRANCH   7  13
ENDBRANCH   1   2
BRANCH   1  18
ATOM     15  N   UNL     1       6.135   4.364  14.859  0.00  0.00    +0.000 N 
ATOM     16  C   UNL     1       4.939   3.857  15.215  0.00  0.00    +0.000 A 
ATOM     17  C   UNL     1       4.319   4.283  16.392  0.00  0.00    +0.000 A 
ATOM     18  C   UNL     1       4.937   5.184  17.276  0.00  0.00    +0.000 A 
ATOM     19  C   UNL     1       6.208   5.648  16.896  0.00  0.00    +0.000 A 
ATOM     20  C   UNL     1       6.777   5.221  15.682  0.00  0.00    +0.000 A 
BRANCH  19  21
ATOM     21  C   UNL     1       7.042   6.656  17.600  0.00  0.00    +0.000 C 
ATOM     22  C   UNL     1       7.869   6.316  18.810  0.00  0.00    +0.000 C 
ATOM     23  O   UNL     1       7.064   7.787  17.113  0.00  0.00    +0.000 OA
ENDBRANCH  19  21
BRANCH  15  24
ATOM     24  C   UNL     1       6.755   3.970  13.570  0.00  0.00    +0.000 C 
BRANCH  24  26
ATOM     25  C   UNL     1       6.073   2.340  11.732  0.00  0.00    +0.000 C 
ATOM     26  C   UNL     1       5.703   3.579  12.534  0.00  0.00    +0.000 C 
ENDBRANCH  24  26
ENDBRANCH  15  24
ENDBRANCH   1  18
TORSDOF 6
ENDMDL
MODEL 3
REMARK VINA RESULT:      -7.5      1.092      1.143
REMARK  Name = 
REMARK  9 active torsions:
REMARK  status: ('A' for Active; 'I' for Inactive)
REMARK    1  A    between atoms: C_1  and  C_2
REMARK    2  A    between atoms: C_2  and  C_3
REMARK    3  A    between atoms: C_3  and  N_4
REMARK    4  A    between atoms: C_7  and  C_8
REMARK    5  A    between atoms: C_8  and  C_9
REMARK    6  A    between atoms: C_14  and  O_15
REMARK    7  A    between atoms: O_15  and  C_16
REMARK    8  A    between atoms: C_22  and  C_23
REMARK    9  A    between atoms: C_23  and  C_24
REMARK                            x       y       z     vdW  Elec       q    Type
REMARK                         _______ _______ _______ _____ _____    ______ ____
ROOT
ATOM      1  C   UNL     1       3.255   6.596  19.315  0.00  0.00    +0.000 C 
ENDROOT
BRANCH   1   2
ATOM      2  C   UNL     1       2.051   7.495  18.951  0.00  0.00    +0.000 C 
ATOM      3  C   UNL     1       2.438   8.692  18.068  0.00  0.00    +0.000 C 
ATOM      4  C   UNL     1       1.147   9.426  17.643  0.00  0.00    +0.000 C 
ATOM      5  C   UNL     1       0.363   9.832  18.872  0.00  0.00    +0.000 A 
ATOM      6  C   UNL     1      -0.585  10.853  18.815  0.00  0.00    +0.000 A 
ATOM      7  C   UNL     1      -0.704  11.697  19.916  0.00  0.00    +0.000 A 
ATOM      8  C   UNL     1       0.141  11.532  21.015  0.00  0.00    +0.000 A 
ATOM      9  C   UNL     1       0.863  10.347  21.160  0.00  0.00    +0.000 A 
ATOM     10  C   UNL     1       0.851   9.435  20.117  0.00  0.00    +0.000 A 
ATOM     11  C   UNL     1       1.445   8.084  20.228  0.00  0.00    +0.000 C 
ATOM     12  O   UNL     1       1.345   7.454  21.276  0.00  0.00    +0.000 OA
BRANCH   7  13
ATOM     13  O   UNL     1      -1.534  12.782  19.920  0.00  0.00    +0.000 OA
ATOM     14  C   UNL     1      -0.828  13.992  20.207  0.00  0.00    +0.000 C 
ENDBRANCH   7  13
ENDBRANCH   1   2
BRANCH   1  18
ATOM     15  N   UNL     1       5.411   4.415  16.232  0.00  0.00    +0.000 N 
ATOM     16  C   UNL     1       5.644   5.729  16.416  0.00  0.00    +0.000 A 
ATOM     17  C   UNL     1       4.959   6.430  17.411  0.00  0.00    +0.000 A 
ATOM     18  C   UNL     1       3.962   5.827  18.197  0.00  0.00    +0.000 A 
ATOM     19  C   UNL     1       3.710   4.468  17.937  0.00  0.00    +0.000 A 
ATOM     20  C   UNL     1       4.452   3.792  16.951  0.00  0.00    +0.000 A 
BRANCH  19  21
ATOM     21  C   UNL     1       2.773   3.575  18.667  0.00  0.00    +0.000 C 
ATOM     22  C   UNL     1       1.301   3.525  18.358  0.00  0.00    +0.000 C 
ATOM     23  O   UNL     1       3.271   2.833  19.513  0.00  0.00    +0.000 OA
ENDBRANCH  19  21
BRANCH  15  24
ATOM     24  C   UNL     1       6.195   3.655  15.228  0.00  0.00    +0.000 C 
BRANCH  24  26
ATOM     25  C   UNL     1       5.926   3.537  12.696  0.00  0.00    +0.000 C 
ATOM     26  C   UNL     1       6.282   4.400  13.898  0.00  0.00    +0.000 C 
ENDBRANCH  24  26
ENDBRANCH  15  24
ENDBRANCH   1  18
TORSDOF 6
ENDMDL
MODEL 4
REMARK VINA RESULT:      -7.4      1.754      2.585
REMARK  Name = 
REMARK  9 active torsions:
REMARK  status: ('A' for Active; 'I' for Inactive)
REMARK    1  A    between atoms: C_1  and  C_2
REMARK    2  A    between atoms: C_2  and  C_3
REMARK    3  A    between atoms: C_3  and  N_4
REMARK    4  A    between atoms: C_7  and  C_8
REMARK    5  A    between atoms: C_8  and  C_9
REMARK    6  A    between atoms: C_14  and  O_15
REMARK    7  A    between atoms: O_15  and  C_16
REMARK    8  A    between atoms: C_22  and  C_23
REMARK    9  A    between atoms: C_23  and  C_24
REMARK                            x       y       z     vdW  Elec       q    Type
REMARK                         _______ _______ _______ _____ _____    ______ ____
ROOT
ATOM      1  C   UNL     1       4.327   5.284  18.298  0.00  0.00    +0.000 C 
ENDROOT
BRANCH   1   2
ATOM      2  C   UNL     1       3.162   6.297  18.206  0.00  0.00    +0.000 C 
ATOM      3  C   UNL     1       3.632   7.728  17.901  0.00  0.00    +0.000 C 
ATOM      4  C   UNL     1       2.387   8.617  17.680  0.00  0.00    +0.000 C 
ATOM      5  C   UNL     1       1.485   8.540  18.893  0.00  0.00    +0.000 A 
ATOM      6  C   UNL     1       0.545   9.537  19.152  0.00  0.00    +0.000 A 
ATOM      7  C   UNL     1       0.316   9.889  20.480  0.00  0.00    +0.000 A 
ATOM      8  C   UNL     1       1.048   9.278  21.499  0.00  0.00    +0.000 A 
ATOM      9  C   UNL     1       1.755   8.105  21.235  0.00  0.00    +0.000 A 
ATOM     10  C   UNL     1       1.849   7.672  19.922  0.00  0.00    +0.000 A 
ATOM     11  C   UNL     1       2.432   6.364  19.550  0.00  0.00    +0.000 C 
ATOM     12  O   UNL     1       2.230   5.380  20.254  0.00  0.00    +0.000 OA
BRANCH   7  13
ATOM     13  O   UNL     1      -0.514  10.916  20.832  0.00  0.00    +0.000 OA
ATOM     14  C   UNL     1       0.216  12.054  21.299  0.00  0.00    +0.000 C 
ENDBRANCH   7  13
ENDBRANCH   1   2
BRANCH   1  18
ATOM     15  N   UNL     1       6.425   4.399  14.594  0.00  0.00    +0.000 N 
ATOM     16  C   UNL     1       5.106   4.146  14.698  0.00  0.00    +0.000 A 
ATOM     17  C   UNL     1       4.428   4.436  15.884  0.00  0.00    +0.000 A 
ATOM     18  C   UNL     1       5.092   4.925  17.022  0.00  0.00    +0.000 A 
ATOM     19  C   UNL     1       6.477   5.125  16.890  0.00  0.00    +0.000 A 
ATOM     20  C   UNL     1       7.112   4.855  15.664  0.00  0.00    +0.000 A 
BRANCH  19  21
ATOM     21  C   UNL     1       7.400   5.701  17.901  0.00  0.00    +0.000 C 
ATOM     22  C   UNL     1       7.687   7.176  17.983  0.00  0.00    +0.000 C 
ATOM     23  O   UNL     1       7.888   4.913  18.712  0.00  0.00    +0.000 OA
ENDBRANCH  19  21
BRANCH  15  24
ATOM     24  C   UNL     1       7.127   4.163  13.308  0.00  0.00    +0.000 C 
BRANCH  24  26
ATOM     25  C   UNL     1       6.959   2.397  11.477  0.00  0.00    +0.000 C 
ATOM     26  C   UNL     1       6.230   3.451  12.298  0.00  0.00    +0.000 C 
ENDBRANCH  24  26
ENDBRANCH  15  24
ENDBRANCH   1  18
TORSDOF 6
ENDMDL
MODEL 5
REMARK VINA RESULT:      -7.2      3.140      8.914
REMARK  Name = 
REMARK  9 active torsions:
REMARK  status: ('A' for Active; 'I' for Inactive)
REMARK    1  A    between atoms: C_1  and  C_2
REMARK    2  A    between atoms: C_2  and  C_3
REMARK    3  A    between atoms: C_3  and  N_4
REMARK    4  A    between atoms: C_7  and  C_8
REMARK    5  A    between atoms: C_8  and  C_9
REMARK    6  A    between atoms: C_14  and  O_15
REMARK    7  A    between atoms: O_15  and  C_16
REMARK    8  A    between atoms: C_22  and  C_23
REMARK    9  A    between atoms: C_23  and  C_24
REMARK                            x       y       z     vdW  Elec       q    Type
REMARK                         _______ _______ _______ _____ _____    ______ ____
ROOT
ATOM      1  C   UNL     1       1.292   9.440  19.685  0.00  0.00    +0.000 C 
ENDROOT
BRANCH   1   2
ATOM      2  C   UNL     1       1.533   8.044  19.066  0.00  0.00    +0.000 C 
ATOM      3  C   UNL     1       2.147   7.043  20.058  0.00  0.00    +0.000 C 
ATOM      4  C   UNL     1       2.201   5.654  19.384  0.00  0.00    +0.000 C 
ATOM      5  C   UNL     1       2.975   5.746  18.087  0.00  0.00    +0.000 A 
ATOM      6  C   UNL     1       3.539   4.611  17.506  0.00  0.00    +0.000 A 
ATOM      7  C   UNL     1       4.771   4.746  16.871  0.00  0.00    +0.000 A 
ATOM      8  C   UNL     1       5.421   5.982  16.867  0.00  0.00    +0.000 A 
ATOM      9  C   UNL     1       4.711   7.137  17.194  0.00  0.00    +0.000 A 
ATOM     10  C   UNL     1       3.421   7.004  17.682  0.00  0.00    +0.000 A 
ATOM     11  C   UNL     1       2.526   8.160  17.907  0.00  0.00    +0.000 C 
ATOM     12  O   UNL     1       2.533   9.102  17.120  0.00  0.00    +0.000 OA
BRANCH   7  13
ATOM     13  O   UNL     1       5.450   3.679  16.355  0.00  0.00    +0.000 OA
ATOM     14  C   UNL     1       6.106   4.008  15.127  0.00  0.00    +0.000 C 
ENDBRANCH   7  13
ENDBRANCH   1   2
BRANCH   1  18
ATOM     15  N   UNL     1      -2.499  11.367  18.776  0.00  0.00    +0.000 N 
ATOM     16  C   UNL     1      -1.889  10.607  17.846  0.00  0.00    +0.000 A 
ATOM     17  C   UNL     1      -0.676   9.981  18.137  0.00  0.00    +0.000 A 
ATOM     18  C   UNL     1      -0.013  10.172  19.362  0.00  0.00    +0.000 A 
ATOM     19  C   UNL     1      -0.655  11.015  20.286  0.00  0.00    +0.000 A 
ATOM     20  C   UNL     1      -1.896  11.594  19.964  0.00  0.00    +0.000 A 
BRANCH  19  21
ATOM     21  C   UNL     1      -0.218  11.323  21.672  0.00  0.00    +0.000 C 
ATOM     22  C   UNL     1      -0.531  10.421  22.835  0.00  0.00    +0.000 C 
ATOM     23  O   UNL     1       0.462  12.339  21.820  0.00  0.00    +0.000 OA
ENDBRANCH  19  21
BRANCH  15  24
ATOM     24  C   UNL     1      -3.825  11.967  18.492  0.00  0.00    +0.000 C 
BRANCH  24  26
ATOM     25  C   UNL     1      -6.148  10.931  18.320  0.00  0.00    +0.000 C 
ATOM     26  C   UNL     1      -4.739  10.994  17.750  0.00  0.00    +0.000 C 
ENDBRANCH  24  26
ENDBRANCH  15  24
ENDBRANCH   1  18
TORSDOF 6
ENDMDL
MODEL 6
REMARK VINA RESULT:      -7.2      1.266      1.946
REMARK  Name = 
REMARK  9 active torsions:
REMARK  status: ('A' for Active; 'I' for Inactive)
REMARK    1  A    between atoms: C_1  and  C_2
REMARK    2  A    between atoms: C_2  and  C_3
REMARK    3  A    between atoms: C_3  and  N_4
REMARK    4  A    between atoms: C_7  and  C_8
REMARK    5  A    between atoms: C_8  and  C_9
REMARK    6  A    between atoms: C_14  and  O_15
REMARK    7  A    between atoms: O_15  and  C_16
REMARK    8  A    between atoms: C_22  and  C_23
REMARK    9  A    between atoms: C_23  and  C_24
REMARK                            x       y       z     vdW  Elec       q    Type
REMARK                         _______ _______ _______ _____ _____    ______ ____
ROOT
ATOM      1  C   UNL     1       2.116   6.102  18.816  0.00  0.00    +0.000 C 
ENDROOT
BRANCH   1   2
ATOM      2  C   UNL     1       2.122   7.443  19.587  0.00  0.00    +0.000 C 
ATOM      3  C   UNL     1       1.261   7.409  20.860  0.00  0.00    +0.000 C 
ATOM      4  C   UNL     1       1.462   8.737  21.624  0.00  0.00    +0.000 C 
ATOM      5  C   UNL     1       1.126   9.902  20.718  0.00  0.00    +0.000 A 
ATOM      6  C   UNL     1       0.804  11.152  21.245  0.00  0.00    +0.000 A 
ATOM      7  C   UNL     1      -0.174  11.902  20.598  0.00  0.00    +0.000 A 
ATOM      8  C   UNL     1      -0.828  11.379  19.481  0.00  0.00    +0.000 A 
ATOM      9  C   UNL     1      -0.290  10.275  18.820  0.00  0.00    +0.000 A 
ATOM     10  C   UNL     1       0.788   9.622  19.394  0.00  0.00    +0.000 A 
ATOM     11  C   UNL     1       1.534   8.546  18.703  0.00  0.00    +0.000 C 
ATOM     12  O   UNL     1       1.743   8.622  17.497  0.00  0.00    +0.000 OA
BRANCH   7  13
ATOM     13  O   UNL     1      -0.626  13.095  21.088  0.00  0.00    +0.000 OA
ATOM     14  C   UNL     1       0.430  14.050  21.224  0.00  0.00    +0.000 C 
ENDBRANCH   7  13
ENDBRANCH   1   2
BRANCH   1  18
ATOM     15  N   UNL     1       5.743   4.995  16.689  0.00  0.00    +0.000 N 
ATOM     16  C   UNL     1       5.570   6.262  17.112  0.00  0.00    +0.000 A 
ATOM     17  C   UNL     1       4.410   6.619  17.802  0.00  0.00    +0.000 A 
ATOM     18  C   UNL     1       3.360   5.710  18.016  0.00  0.00    +0.000 A 
ATOM     19  C   UNL     1       3.556   4.412  17.512  0.00  0.00    +0.000 A 
ATOM     20  C   UNL     1       4.757   4.087  16.857  0.00  0.00    +0.000 A 
BRANCH  19  21
ATOM     21  C   UNL     1       2.650   3.245  17.666  0.00  0.00    +0.000 C 
ATOM     22  C   UNL     1       3.094   1.958  18.306  0.00  0.00    +0.000 C 
ATOM     23  O   UNL     1       1.489   3.397  17.285  0.00  0.00    +0.000 OA
ENDBRANCH  19  21
BRANCH  15  24
ATOM     24  C   UNL     1       7.010   4.600  16.026  0.00  0.00    +0.000 C 
BRANCH  24  26
ATOM     25  C   UNL     1       6.223   3.908  13.701  0.00  0.00    +0.000 C 
ATOM     26  C   UNL     1       6.990   4.925  14.533  0.00  0.00    +0.000 C 
ENDBRANCH  24  26
ENDBRANCH  15  24
ENDBRANCH   1  18
TORSDOF 6
ENDMDL
MODEL 7
REMARK VINA RESULT:      -7.1      3.155      9.513
REMARK  Name = 
REMARK  9 active torsions:
REMARK  status: ('A' for Active; 'I' for Inactive)
REMARK    1  A    between atoms: C_1  and  C_2
REMARK    2  A    between atoms: C_2  and  C_3
REMARK    3  A    between atoms: C_3  and  N_4
REMARK    4  A    between atoms: C_7  and  C_8
REMARK    5  A    between atoms: C_8  and  C_9
REMARK    6  A    between atoms: C_14  and  O_15
REMARK    7  A    between atoms: O_15  and  C_16
REMARK    8  A    between atoms: C_22  and  C_23
REMARK    9  A    between atoms: C_23  and  C_24
REMARK                            x       y       z     vdW  Elec       q    Type
REMARK                         _______ _______ _______ _____ _____    ______ ____
ROOT
ATOM      1  C   UNL     1       1.095  10.442  20.042  0.00  0.00    +0.000 C 
ENDROOT
BRANCH   1   2
ATOM      2  C   UNL     1       1.125   8.946  19.652  0.00  0.00    +0.000 C 
ATOM      3  C   UNL     1       1.809   8.062  20.707  0.00  0.00    +0.000 C 
ATOM      4  C   UNL     1       1.646   6.583  20.288  0.00  0.00    +0.000 C 
ATOM      5  C   UNL     1       2.209   6.382  18.899  0.00  0.00    +0.000 A 
ATOM      6  C   UNL     1       2.584   5.115  18.452  0.00  0.00    +0.000 A 
ATOM      7  C   UNL     1       3.706   5.016  17.634  0.00  0.00    +0.000 A 
ATOM      8  C   UNL     1       4.441   6.160  17.318  0.00  0.00    +0.000 A 
ATOM      9  C   UNL     1       3.885   7.421  17.534  0.00  0.00    +0.000 A 
ATOM     10  C   UNL     1       2.682   7.503  18.218  0.00  0.00    +0.000 A 
ATOM     11  C   UNL     1       1.927   8.768  18.360  0.00  0.00    +0.000 C 
ATOM     12  O   UNL     1       1.882   9.563  17.427  0.00  0.00    +0.000 OA
BRANCH   7  13
ATOM     13  O   UNL     1       4.208   3.814  17.223  0.00  0.00    +0.000 OA
ATOM     14  C   UNL     1       5.210   3.972  16.214  0.00  0.00    +0.000 C 
ENDBRANCH   7  13
ENDBRANCH   1   2
BRANCH   1  18
ATOM     15  N   UNL     1      -2.455  12.216  21.819  0.00  0.00    +0.000 N 
ATOM     16  C   UNL     1      -1.484  11.718  22.608  0.00  0.00    +0.000 A 
ATOM     17  C   UNL     1      -0.339  11.155  22.041  0.00  0.00    +0.000 A 
ATOM     18  C   UNL     1      -0.186  11.017  20.650  0.00  0.00    +0.000 A 
ATOM     19  C   UNL     1      -1.247  11.498  19.863  0.00  0.00    +0.000 A 
ATOM     20  C   UNL     1      -2.364  12.093  20.477  0.00  0.00    +0.000 A 
BRANCH  19  21
ATOM     21  C   UNL     1      -1.310  11.548  18.379  0.00  0.00    +0.000 C 
ATOM     22  C   UNL     1      -1.731  10.365  17.550  0.00  0.00    +0.000 C 
ATOM     23  O   UNL     1      -1.047  12.631  17.855  0.00  0.00    +0.000 OA
ENDBRANCH  19  21
BRANCH  15  24
ATOM     24  C   UNL     1      -3.634  12.883  22.424  0.00  0.00    +0.000 C 
BRANCH  24  26
ATOM     25  C   UNL     1      -3.448  14.081  24.666  0.00  0.00    +0.000 C 
ATOM     26  C   UNL     1      -3.637  12.755  23.946  0.00  0.00    +0.000 C 
ENDBRANCH  24  26
ENDBRANCH  15  24
ENDBRANCH   1  18
TORSDOF 6
ENDMDL
MODEL 8
REMARK VINA RESULT:      -7.0      3.286      9.281
REMARK  Name = 
REMARK  9 active torsions:
REMARK  status: ('A' for Active; 'I' for Inactive)
REMARK    1  A    between atoms: C_1  and  C_2
REMARK    2  A    between atoms: C_2  and  C_3
REMARK    3  A    between atoms: C_3  and  N_4
REMARK    4  A    between atoms: C_7  and  C_8
REMARK    5  A    between atoms: C_8  and  C_9
REMARK    6  A    between atoms: C_14  and  O_15
REMARK    7  A    between atoms: O_15  and  C_16
REMARK    8  A    between atoms: C_22  and  C_23
REMARK    9  A    between atoms: C_23  and  C_24
REMARK                            x       y       z     vdW  Elec       q    Type
REMARK                         _______ _______ _______ _____ _____    ______ ____
ROOT
ATOM      1  C   UNL     1       0.936  10.270  19.713  0.00  0.00    +0.000 C 
ENDROOT
BRANCH   1   2
ATOM      2  C   UNL     1       1.076   8.750  19.465  0.00  0.00    +0.000 C 
ATOM      3  C   UNL     1       1.767   8.012  20.623  0.00  0.00    +0.000 C 
ATOM      4  C   UNL     1       1.715   6.495  20.338  0.00  0.00    +0.000 C 
ATOM      5  C   UNL     1       2.350   6.206  18.996  0.00  0.00    +0.000 A 
ATOM      6  C   UNL     1       2.823   4.932  18.684  0.00  0.00    +0.000 A 
ATOM      7  C   UNL     1       3.984   4.833  17.922  0.00  0.00    +0.000 A 
ATOM      8  C   UNL     1       4.660   5.990  17.530  0.00  0.00    +0.000 A 
ATOM      9  C   UNL     1       4.017   7.226  17.606  0.00  0.00    +0.000 A 
ATOM     10  C   UNL     1       2.783   7.290  18.233  0.00  0.00    +0.000 A 
ATOM     11  C   UNL     1       1.944   8.510  18.227  0.00  0.00    +0.000 C 
ATOM     12  O   UNL     1       1.891   9.213  17.223  0.00  0.00    +0.000 OA
BRANCH   7  13
ATOM     13  O   UNL     1       4.579   3.635  17.645  0.00  0.00    +0.000 OA
ATOM     14  C   UNL     1       3.686   2.537  17.852  0.00  0.00    +0.000 C 
ENDBRANCH   7  13
ENDBRANCH   1   2
BRANCH   1  18
ATOM     15  N   UNL     1      -3.049  11.948  19.248  0.00  0.00    +0.000 N 
ATOM     16  C   UNL     1      -2.424  11.391  18.192  0.00  0.00    +0.000 A 
ATOM     17  C   UNL     1      -1.148  10.845  18.340  0.00  0.00    +0.000 A 
ATOM     18  C   UNL     1      -0.442  10.916  19.553  0.00  0.00    +0.000 A 
ATOM     19  C   UNL     1      -1.106  11.553  20.617  0.00  0.00    +0.000 A 
ATOM     20  C   UNL     1      -2.407  12.055  20.432  0.00  0.00    +0.000 A 
BRANCH  19  21
ATOM     21  C   UNL     1      -0.626  11.696  22.015  0.00  0.00    +0.000 C 
ATOM     22  C   UNL     1      -0.877  10.647  23.065  0.00  0.00    +0.000 C 
ATOM     23  O   UNL     1       0.037  12.702  22.268  0.00  0.00    +0.000 OA
ENDBRANCH  19  21
BRANCH  15  24
ATOM     24  C   UNL     1      -4.435  12.457  19.108  0.00  0.00    +0.000 C 
BRANCH  24  26
ATOM     25  C   UNL     1      -6.221  12.161  20.903  0.00  0.00    +0.000 C 
ATOM     26  C   UNL     1      -4.997  12.939  20.444  0.00  0.00    +0.000 C 
ENDBRANCH  24  26
ENDBRANCH  15  24
ENDBRANCH   1  18
TORSDOF 6
ENDMDL
MODEL 9
REMARK VINA RESULT:      -7.0      3.511      8.466
REMARK  Name = 
REMARK  9 active torsions:
REMARK  status: ('A' for Active; 'I' for Inactive)
REMARK    1  A    between atoms: C_1  and  C_2
REMARK    2  A    between atoms: C_2  and  C_3
REMARK    3  A    between atoms: C_3  and  N_4
REMARK    4  A    between atoms: C_7  and  C_8
REMARK    5  A    between atoms: C_8  and  C_9
REMARK    6  A    between atoms: C_14  and  O_15
REMARK    7  A    between atoms: O_15  and  C_16
REMARK    8  A    between atoms: C_22  and  C_23
REMARK    9  A    between atoms: C_23  and  C_24
REMARK                            x       y       z     vdW  Elec       q    Type
REMARK                         _______ _______ _______ _____ _____    ______ ____
ROOT
ATOM      1  C   UNL     1       0.947   9.842  19.054  0.00  0.00    +0.000 C 
ENDROOT
BRANCH   1   2
ATOM      2  C   UNL     1       2.053   8.762  19.071  0.00  0.00    +0.000 C 
ATOM      3  C   UNL     1       2.110   7.938  17.775  0.00  0.00    +0.000 C 
ATOM      4  C   UNL     1       3.338   7.003  17.842  0.00  0.00    +0.000 C 
ATOM      5  C   UNL     1       3.256   6.141  19.082  0.00  0.00    +0.000 A 
ATOM      6  C   UNL     1       3.968   4.946  19.175  0.00  0.00    +0.000 A 
ATOM      7  C   UNL     1       3.367   3.876  19.834  0.00  0.00    +0.000 A 
ATOM      8  C   UNL     1       2.073   4.009  20.342  0.00  0.00    +0.000 A 
ATOM      9  C   UNL     1       1.515   5.279  20.487  0.00  0.00    +0.000 A 
ATOM     10  C   UNL     1       2.197   6.365  19.962  0.00  0.00    +0.000 A 
ATOM     11  C   UNL     1       1.780   7.765  20.200  0.00  0.00    +0.000 C 
ATOM     12  O   UNL     1       1.338   8.095  21.296  0.00  0.00    +0.000 OA
BRANCH   7  13
ATOM     13  O   UNL     1       3.941   2.638  19.896  0.00  0.00    +0.000 OA
ATOM     14  C   UNL     1       3.566   1.821  18.783  0.00  0.00    +0.000 C 
ENDBRANCH   7  13
ENDBRANCH   1   2
BRANCH   1  18
ATOM     15  N   UNL     1       1.989  14.044  19.457  0.00  0.00    +0.000 N 
ATOM     16  C   UNL     1       2.530  13.308  18.467  0.00  0.00    +0.000 A 
ATOM     17  C   UNL     1       2.191  11.960  18.330  0.00  0.00    +0.000 A 
ATOM     18  C   UNL     1       1.347  11.307  19.245  0.00  0.00    +0.000 A 
ATOM     19  C   UNL     1       0.846  12.096  20.295  0.00  0.00    +0.000 A 
ATOM     20  C   UNL     1       1.184  13.460  20.371  0.00  0.00    +0.000 A 
BRANCH  19  21
ATOM     21  C   UNL     1      -0.119  11.683  21.345  0.00  0.00    +0.000 C 
ATOM     22  C   UNL     1      -1.587  12.004  21.262  0.00  0.00    +0.000 C 
ATOM     23  O   UNL     1       0.334  11.015  22.275  0.00  0.00    +0.000 OA
ENDBRANCH  19  21
BRANCH  15  24
ATOM     24  C   UNL     1       2.289  15.494  19.553  0.00  0.00    +0.000 C 
BRANCH  24  26
ATOM     25  C   UNL     1       2.958  16.795  17.465  0.00  0.00    +0.000 C 
ATOM     26  C   UNL     1       1.818  16.252  18.313  0.00  0.00    +0.000 C 
ENDBRANCH  24  26
ENDBRANCH  15  24
ENDBRANCH   1  18
TORSDOF 6
ENDMDL
