MODEL 1
REMARK VINA RESULT:      -8.7      0.000      0.000
REMARK  Name = 
REMARK  7 active torsions:
REMARK  status: ('A' for Active; 'I' for Inactive)
REMARK    1  A    between atoms: C_1  and  C_2
REMARK    2  A    between atoms: C_4  and  O_5
REMARK    3  A    between atoms: N_9  and  C_10
REMARK    4  A    between atoms: C_10  and  C_11
REMARK    5  A    between atoms: C_16  and  C_18
REMARK    6  A    between atoms: C_18  and  C_19
REMARK    7  A    between atoms: C_19  and  C_20
REMARK                            x       y       z     vdW  Elec       q    Type
REMARK                         _______ _______ _______ _____ _____    ______ ____
ROOT
ATOM      1  C   UNL     1       2.667   3.734  18.876  0.00  0.00    +0.000 C 
ATOM      2  C   UNL     1       1.631   2.603  18.906  0.00  0.00    +0.000 C 
ATOM      3  C   UNL     1       1.326   2.433  20.390  0.00  0.00    +0.000 C 
ATOM      4  C   UNL     1       1.368   3.856  20.924  0.00  0.00    +0.000 C 
ATOM      5  N   UNL     1       2.171   4.607  19.965  0.00  0.00    +0.000 N 
ATOM      6  C   UNL     1       2.234   5.994  19.902  0.00  0.00    +0.000 C 
ATOM      7  O   UNL     1       2.922   6.574  19.064  0.00  0.00    +0.000 OA
ENDROOT
BRANCH   1   8
ATOM      8  C   UNL     1       4.112   3.251  19.109  0.00  0.00    +0.000 C 
BRANCH   8  16
ATOM      9  C   UNL     1       5.871   3.946  13.917  0.00  0.00    +0.000 C 
ATOM     10  C   UNL     1       6.078   4.502  15.295  0.00  0.00    +0.000 A 
ATOM     11  N   UNL     1       6.969   5.515  15.399  0.00  0.00    +0.000 NA
ATOM     12  C   UNL     1       7.199   6.021  16.627  0.00  0.00    +0.000 A 
ATOM     13  C   UNL     1       6.548   5.515  17.739  0.00  0.00    +0.000 A 
ATOM     14  N   UNL     1       6.575   5.791  19.079  0.00  0.00    +0.000 NA
ATOM     15  N   UNL     1       5.718   4.974  19.683  0.00  0.00    +0.000 NA
ATOM     16  N   UNL     1       5.146   4.195  18.733  0.00  0.00    +0.000 N 
ATOM     17  C   UNL     1       5.653   4.487  17.493  0.00  0.00    +0.000 A 
ATOM     18  N   UNL     1       5.368   3.930  16.301  0.00  0.00    +0.000 NA
BRANCH  12  19
ATOM     19  O   UNL     1       8.107   7.044  16.663  0.00  0.00    +0.000 OA
ATOM     20  H   UNL     1       8.190   7.183  17.622  0.00  0.00    +0.000 HD
ENDBRANCH  12  19
ENDBRANCH   8  16
ENDBRANCH   1   8
BRANCH   6  21
ATOM     21  C   UNL     1       1.356   6.740  20.912  0.00  0.00    +0.000 C 
BRANCH  21  22
ATOM     22  C   UNL     1       1.474   8.266  20.861  0.00  0.00    +0.000 C 
BRANCH  22  23
ATOM     23  C   UNL     1       0.221   8.973  21.405  0.00  0.00    +0.000 C 
ATOM     24  C   UNL     1       0.325   9.301  22.895  0.00  0.00    +0.000 C 
ATOM     25  C   UNL     1      -0.797  10.306  23.128  0.00  0.00    +0.000 C 
ATOM     26  C   UNL     1      -0.950  11.066  21.812  0.00  0.00    +0.000 C 
ATOM     27  C   UNL     1      -0.056  10.352  20.797  0.00  0.00    +0.000 C 
ENDBRANCH  22  23
ENDBRANCH  21  22
ENDBRANCH   6  21
TORSDOF 6
ENDMDL
MODEL 2
REMARK VINA RESULT:      -8.6      1.211      1.723
REMARK  Name = 
REMARK  7 active torsions:
REMARK  status: ('A' for Active; 'I' for Inactive)
REMARK    1  A    between atoms: C_1  and  C_2
REMARK    2  A    between atoms: C_4  and  O_5
REMARK    3  A    between atoms: N_9  and  C_10
REMARK    4  A    between atoms: C_10  and  C_11
REMARK    5  A    between atoms: C_16  and  C_18
REMARK    6  A    between atoms: C_18  and  C_19
REMARK    7  A    between atoms: C_19  and  C_20
REMARK                            x       y       z     vdW  Elec       q    Type
REMARK                         _______ _______ _______ _____ _____    ______ ____
ROOT
ATOM      1  C   UNL     1       2.836   3.360  19.131  0.00  0.00    +0.000 C 
ATOM      2  C   UNL     1       1.962   2.589  20.129  0.00  0.00    +0.000 C 
ATOM      3  C   UNL     1       2.162   3.343  21.439  0.00  0.00    +0.000 C 
ATOM      4  C   UNL     1       2.253   4.796  20.999  0.00  0.00    +0.000 C 
ATOM      5  N   UNL     1       2.642   4.752  19.594  0.00  0.00    +0.000 N 
ATOM      6  C   UNL     1       2.566   5.830  18.720  0.00  0.00    +0.000 C 
ATOM      7  O   UNL     1       2.899   5.732  17.540  0.00  0.00    +0.000 OA
ENDROOT
BRANCH   1   8
ATOM      8  C   UNL     1       4.315   2.924  19.145  0.00  0.00    +0.000 C 
BRANCH   8  16
ATOM      9  C   UNL     1       6.034   3.902  13.985  0.00  0.00    +0.000 C 
ATOM     10  C   UNL     1       6.187   4.438  15.379  0.00  0.00    +0.000 A 
ATOM     11  N   UNL     1       6.987   5.520  15.516  0.00  0.00    +0.000 NA
ATOM     12  C   UNL     1       7.166   6.011  16.757  0.00  0.00    +0.000 A 
ATOM     13  C   UNL     1       6.556   5.423  17.851  0.00  0.00    +0.000 A 
ATOM     14  N   UNL     1       6.552   5.665  19.198  0.00  0.00    +0.000 NA
ATOM     15  N   UNL     1       5.765   4.762  19.775  0.00  0.00    +0.000 NA
ATOM     16  N   UNL     1       5.267   3.963  18.801  0.00  0.00    +0.000 N 
ATOM     17  C   UNL     1       5.753   4.330  17.572  0.00  0.00    +0.000 A 
ATOM     18  N   UNL     1       5.522   3.781  16.364  0.00  0.00    +0.000 NA
BRANCH  12  19
ATOM     19  O   UNL     1       7.984   7.106  16.826  0.00  0.00    +0.000 OA
ATOM     20  H   UNL     1       7.735   7.574  16.009  0.00  0.00    +0.000 HD
ENDBRANCH  12  19
ENDBRANCH   8  16
ENDBRANCH   1   8
BRANCH   6  21
ATOM     21  C   UNL     1       1.997   7.123  19.315  0.00  0.00    +0.000 C 
BRANCH  21  22
ATOM     22  C   UNL     1       2.238   8.378  18.471  0.00  0.00    +0.000 C 
BRANCH  22  23
ATOM     23  C   UNL     1       1.316   9.542  18.870  0.00  0.00    +0.000 C 
ATOM     24  C   UNL     1       0.070   9.641  17.988  0.00  0.00    +0.000 C 
ATOM     25  C   UNL     1      -0.858  10.565  18.768  0.00  0.00    +0.000 C 
ATOM     26  C   UNL     1      -0.532  10.330  20.241  0.00  0.00    +0.000 C 
ATOM     27  C   UNL     1       0.704   9.430  20.270  0.00  0.00    +0.000 C 
ENDBRANCH  22  23
ENDBRANCH  21  22
ENDBRANCH   6  21
TORSDOF 6
ENDMDL
MODEL 3
REMARK VINA RESULT:      -8.4      1.139      2.173
REMARK  Name = 
REMARK  7 active torsions:
REMARK  status: ('A' for Active; 'I' for Inactive)
REMARK    1  A    between atoms: C_1  and  C_2
REMARK    2  A    between atoms: C_4  and  O_5
REMARK    3  A    between atoms: N_9  and  C_10
REMARK    4  A    between atoms: C_10  and  C_11
REMARK    5  A    between atoms: C_16  and  C_18
REMARK    6  A    between atoms: C_18  and  C_19
REMARK    7  A    between atoms: C_19  and  C_20
REMARK                            x       y       z     vdW  Elec       q    Type
REMARK                         _______ _______ _______ _____ _____    ______ ____
ROOT
ATOM      1  C   UNL     1       2.037   3.813  18.899  0.00  0.00    +0.000 C 
ATOM      2  C   UNL     1       1.013   2.949  19.648  0.00  0.00    +0.000 C 
ATOM      3  C   UNL     1       1.383   3.143  21.113  0.00  0.00    +0.000 C 
ATOM      4  C   UNL     1       1.800   4.604  21.182  0.00  0.00    +0.000 C 
ATOM      5  N   UNL     1       2.166   4.967  19.817  0.00  0.00    +0.000 N 
ATOM      6  C   UNL     1       2.334   6.271  19.365  0.00  0.00    +0.000 C 
ATOM      7  O   UNL     1       2.634   6.518  18.199  0.00  0.00    +0.000 OA
ENDROOT
BRANCH   1   8
ATOM      8  C   UNL     1       3.379   3.097  18.646  0.00  0.00    +0.000 C 
BRANCH   8  16
ATOM      9  C   UNL     1       8.087   5.742  19.818  0.00  0.00    +0.000 C 
ATOM     10  C   UNL     1       7.255   5.321  18.641  0.00  0.00    +0.000 A 
ATOM     11  N   UNL     1       7.740   5.651  17.422  0.00  0.00    +0.000 NA
ATOM     12  C   UNL     1       7.006   5.311  16.345  0.00  0.00    +0.000 A 
ATOM     13  C   UNL     1       5.796   4.653  16.485  0.00  0.00    +0.000 A 
ATOM     14  N   UNL     1       4.839   4.201  15.619  0.00  0.00    +0.000 NA
ATOM     15  N   UNL     1       3.876   3.629  16.334  0.00  0.00    +0.000 NA
ATOM     16  N   UNL     1       4.225   3.709  17.640  0.00  0.00    +0.000 N 
ATOM     17  C   UNL     1       5.421   4.364  17.787  0.00  0.00    +0.000 A 
ATOM     18  N   UNL     1       6.096   4.667  18.911  0.00  0.00    +0.000 NA
BRANCH  12  19
ATOM     19  O   UNL     1       7.554   5.671  15.144  0.00  0.00    +0.000 OA
ATOM     20  H   UNL     1       7.902   4.815  14.836  0.00  0.00    +0.000 HD
ENDBRANCH  12  19
ENDBRANCH   8  16
ENDBRANCH   1   8
BRANCH   6  21
ATOM     21  C   UNL     1       2.075   7.367  20.404  0.00  0.00    +0.000 C 
BRANCH  21  22
ATOM     22  C   UNL     1       1.377   8.616  19.857  0.00  0.00    +0.000 C 
BRANCH  22  23
ATOM     23  C   UNL     1       0.303   9.159  20.816  0.00  0.00    +0.000 C 
ATOM     24  C   UNL     1       0.656   8.937  22.288  0.00  0.00    +0.000 C 
ATOM     25  C   UNL     1      -0.299   9.860  23.036  0.00  0.00    +0.000 C 
ATOM     26  C   UNL     1      -0.552  11.039  22.099  0.00  0.00    +0.000 C 
ATOM     27  C   UNL     1       0.101  10.676  20.765  0.00  0.00    +0.000 C 
ENDBRANCH  22  23
ENDBRANCH  21  22
ENDBRANCH   6  21
TORSDOF 6
ENDMDL
MODEL 4
REMARK VINA RESULT:      -8.4      0.746      1.100
REMARK  Name = 
REMARK  7 active torsions:
REMARK  status: ('A' for Active; 'I' for Inactive)
REMARK    1  A    between atoms: C_1  and  C_2
REMARK    2  A    between atoms: C_4  and  O_5
REMARK    3  A    between atoms: N_9  and  C_10
REMARK    4  A    between atoms: C_10  and  C_11
REMARK    5  A    between atoms: C_16  and  C_18
REMARK    6  A    between atoms: C_18  and  C_19
REMARK    7  A    between atoms: C_19  and  C_20
REMARK                            x       y       z     vdW  Elec       q    Type
REMARK                         _______ _______ _______ _____ _____    ______ ____
ROOT
ATOM      1  C   UNL     1       2.782   3.637  18.925  0.00  0.00    +0.000 C 
ATOM      2  C   UNL     1       1.779   2.485  19.075  0.00  0.00    +0.000 C 
ATOM      3  C   UNL     1       1.514   2.431  20.575  0.00  0.00    +0.000 C 
ATOM      4  C   UNL     1       1.529   3.894  20.988  0.00  0.00    +0.000 C 
ATOM      5  N   UNL     1       2.287   4.584  19.950  0.00  0.00    +0.000 N 
ATOM      6  C   UNL     1       2.310   5.962  19.772  0.00  0.00    +0.000 C 
ATOM      7  O   UNL     1       2.961   6.488  18.871  0.00  0.00    +0.000 OA
ENDROOT
BRANCH   1   8
ATOM      8  C   UNL     1       4.245   3.212  19.159  0.00  0.00    +0.000 C 
BRANCH   8  16
ATOM      9  C   UNL     1       5.880   4.029  13.944  0.00  0.00    +0.000 C 
ATOM     10  C   UNL     1       6.096   4.574  15.326  0.00  0.00    +0.000 A 
ATOM     11  N   UNL     1       6.955   5.614  15.426  0.00  0.00    +0.000 NA
ATOM     12  C   UNL     1       7.192   6.112  16.656  0.00  0.00    +0.000 A 
ATOM     13  C   UNL     1       6.580   5.571  17.774  0.00  0.00    +0.000 A 
ATOM     14  N   UNL     1       6.624   5.831  19.116  0.00  0.00    +0.000 NA
ATOM     15  N   UNL     1       5.805   4.979  19.725  0.00  0.00    +0.000 NA
ATOM     16  N   UNL     1       5.241   4.194  18.776  0.00  0.00    +0.000 N 
ATOM     17  C   UNL     1       5.714   4.518  17.530  0.00  0.00    +0.000 A 
ATOM     18  N   UNL     1       5.424   3.967  16.337  0.00  0.00    +0.000 NA
BRANCH  12  19
ATOM     19  O   UNL     1       8.068   7.163  16.688  0.00  0.00    +0.000 OA
ATOM     20  H   UNL     1       7.451   7.916  16.711  0.00  0.00    +0.000 HD
ENDBRANCH  12  19
ENDBRANCH   8  16
ENDBRANCH   1   8
BRANCH   6  21
ATOM     21  C   UNL     1       1.435   6.766  20.740  0.00  0.00    +0.000 C 
BRANCH  21  22
ATOM     22  C   UNL     1       1.727   8.269  20.769  0.00  0.00    +0.000 C 
BRANCH  22  23
ATOM     23  C   UNL     1       0.572   9.105  20.191  0.00  0.00    +0.000 C 
ATOM     24  C   UNL     1       0.222  10.314  21.060  0.00  0.00    +0.000 C 
ATOM     25  C   UNL     1      -0.633  11.185  20.147  0.00  0.00    +0.000 C 
ATOM     26  C   UNL     1      -0.126  10.920  18.731  0.00  0.00    +0.000 C 
ATOM     27  C   UNL     1       0.867   9.763  18.839  0.00  0.00    +0.000 C 
ENDBRANCH  22  23
ENDBRANCH  21  22
ENDBRANCH   6  21
TORSDOF 6
ENDMDL
MODEL 5
REMARK VINA RESULT:      -8.2      1.137      2.230
REMARK  Name = 
REMARK  7 active torsions:
REMARK  status: ('A' for Active; 'I' for Inactive)
REMARK    1  A    between atoms: C_1  and  C_2
REMARK    2  A    between atoms: C_4  and  O_5
REMARK    3  A    between atoms: N_9  and  C_10
REMARK    4  A    between atoms: C_10  and  C_11
REMARK    5  A    between atoms: C_16  and  C_18
REMARK    6  A    between atoms: C_18  and  C_19
REMARK    7  A    between atoms: C_19  and  C_20
REMARK                            x       y       z     vdW  Elec       q    Type
REMARK                         _______ _______ _______ _____ _____    ______ ____
ROOT
ATOM      1  C   UNL     1       2.910   3.989  19.225  0.00  0.00    +0.000 C 
ATOM      2  C   UNL     1       2.122   2.824  19.839  0.00  0.00    +0.000 C 
ATOM      3  C   UNL     1       2.214   3.080  21.339  0.00  0.00    +0.000 C 
ATOM      4  C   UNL     1       2.135   4.594  21.444  0.00  0.00    +0.000 C 
ATOM      5  N   UNL     1       2.544   5.096  20.137  0.00  0.00    +0.000 N 
ATOM      6  C   UNL     1       2.351   6.399  19.694  0.00  0.00    +0.000 C 
ATOM      7  O   UNL     1       2.708   6.764  18.576  0.00  0.00    +0.000 OA
ENDROOT
BRANCH   1   8
ATOM      8  C   UNL     1       4.430   3.739  19.165  0.00  0.00    +0.000 C 
BRANCH   8  16
ATOM      9  C   UNL     1       8.044   7.813  18.228  0.00  0.00    +0.000 C 
ATOM     10  C   UNL     1       7.397   6.653  17.528  0.00  0.00    +0.000 A 
ATOM     11  N   UNL     1       7.762   6.457  16.241  0.00  0.00    +0.000 NA
ATOM     12  C   UNL     1       7.182   5.440  15.574  0.00  0.00    +0.000 A 
ATOM     13  C   UNL     1       6.243   4.629  16.189  0.00  0.00    +0.000 A 
ATOM     14  N   UNL     1       5.486   3.561  15.793  0.00  0.00    +0.000 NA
ATOM     15  N   UNL     1       4.749   3.174  16.829  0.00  0.00    +0.000 NA
ATOM     16  N   UNL     1       5.045   3.983  17.875  0.00  0.00    +0.000 N 
ATOM     17  C   UNL     1       5.969   4.929  17.513  0.00  0.00    +0.000 A 
ATOM     18  N   UNL     1       6.505   5.923  18.246  0.00  0.00    +0.000 NA
BRANCH  12  19
ATOM     19  O   UNL     1       7.595   5.296  14.278  0.00  0.00    +0.000 OA
ATOM     20  H   UNL     1       8.511   5.619  14.339  0.00  0.00    +0.000 HD
ENDBRANCH  12  19
ENDBRANCH   8  16
ENDBRANCH   1   8
BRANCH   6  21
ATOM     21  C   UNL     1       1.623   7.326  20.674  0.00  0.00    +0.000 C 
BRANCH  21  22
ATOM     22  C   UNL     1       1.339   8.732  20.137  0.00  0.00    +0.000 C 
BRANCH  22  23
ATOM     23  C   UNL     1       0.837   9.691  21.230  0.00  0.00    +0.000 C 
ATOM     24  C   UNL     1      -0.430  10.444  20.822  0.00  0.00    +0.000 C 
ATOM     25  C   UNL     1      -0.957  11.010  22.135  0.00  0.00    +0.000 C 
ATOM     26  C   UNL     1      -0.530  10.018  23.214  0.00  0.00    +0.000 C 
ATOM     27  C   UNL     1       0.397   9.012  22.530  0.00  0.00    +0.000 C 
ENDBRANCH  22  23
ENDBRANCH  21  22
ENDBRANCH   6  21
TORSDOF 6
ENDMDL
MODEL 6
REMARK VINA RESULT:      -8.1      1.898      2.514
REMARK  Name = 
REMARK  7 active torsions:
REMARK  status: ('A' for Active; 'I' for Inactive)
REMARK    1  A    between atoms: C_1  and  C_2
REMARK    2  A    between atoms: C_4  and  O_5
REMARK    3  A    between atoms: N_9  and  C_10
REMARK    4  A    between atoms: C_10  and  C_11
REMARK    5  A    between atoms: C_16  and  C_18
REMARK    6  A    between atoms: C_18  and  C_19
REMARK    7  A    between atoms: C_19  and  C_20
REMARK                            x       y       z     vdW  Elec       q    Type
REMARK                         _______ _______ _______ _____ _____    ______ ____
ROOT
ATOM      1  C   UNL     1       3.261   4.298  17.301  0.00  0.00    +0.000 C 
ATOM      2  C   UNL     1       2.091   3.362  17.633  0.00  0.00    +0.000 C 
ATOM      3  C   UNL     1       1.884   3.563  19.129  0.00  0.00    +0.000 C 
ATOM      4  C   UNL     1       2.152   5.046  19.327  0.00  0.00    +0.000 C 
ATOM      5  N   UNL     1       2.968   5.448  18.187  0.00  0.00    +0.000 N 
ATOM      6  C   UNL     1       3.207   6.765  17.811  0.00  0.00    +0.000 C 
ATOM      7  O   UNL     1       3.897   7.044  16.832  0.00  0.00    +0.000 OA
ENDROOT
BRANCH   1   8
ATOM      8  C   UNL     1       4.644   3.673  17.567  0.00  0.00    +0.000 C 
BRANCH   8  16
ATOM      9  C   UNL     1       5.234   3.089  12.105  0.00  0.00    +0.000 C 
ATOM     10  C   UNL     1       5.876   3.779  13.273  0.00  0.00    +0.000 A 
ATOM     11  N   UNL     1       6.962   4.535  12.993  0.00  0.00    +0.000 NA
ATOM     12  C   UNL     1       7.579   5.149  14.022  0.00  0.00    +0.000 A 
ATOM     13  C   UNL     1       7.116   5.003  15.319  0.00  0.00    +0.000 A 
ATOM     14  N   UNL     1       7.517   5.466  16.542  0.00  0.00    +0.000 NA
ATOM     15  N   UNL     1       6.672   4.997  17.455  0.00  0.00    +0.000 NA
ATOM     16  N   UNL     1       5.739   4.253  16.814  0.00  0.00    +0.000 N 
ATOM     17  C   UNL     1       5.989   4.212  15.466  0.00  0.00    +0.000 A 
ATOM     18  N   UNL     1       5.317   3.569  14.492  0.00  0.00    +0.000 NA
BRANCH  12  19
ATOM     19  O   UNL     1       8.668   5.899  13.671  0.00  0.00    +0.000 OA
ATOM     20  H   UNL     1       8.748   5.677  12.727  0.00  0.00    +0.000 HD
ENDBRANCH  12  19
ENDBRANCH   8  16
ENDBRANCH   1   8
BRANCH   6  21
ATOM     21  C   UNL     1       2.514   7.830  18.668  0.00  0.00    +0.000 C 
BRANCH  21  22
ATOM     22  C   UNL     1       1.850   8.959  17.874  0.00  0.00    +0.000 C 
BRANCH  22  23
ATOM     23  C   UNL     1       1.068   9.931  18.773  0.00  0.00    +0.000 C 
ATOM     24  C   UNL     1      -0.360  10.176  18.282  0.00  0.00    +0.000 C 
ATOM     25  C   UNL     1      -1.052  10.820  19.477  0.00  0.00    +0.000 C 
ATOM     26  C   UNL     1      -0.366  10.242  20.713  0.00  0.00    +0.000 C 
ATOM     27  C   UNL     1       0.829   9.436  20.203  0.00  0.00    +0.000 C 
ENDBRANCH  22  23
ENDBRANCH  21  22
ENDBRANCH   6  21
TORSDOF 6
ENDMDL
MODEL 7
REMARK VINA RESULT:      -7.9      1.714      2.661
REMARK  Name = 
REMARK  7 active torsions:
REMARK  status: ('A' for Active; 'I' for Inactive)
REMARK    1  A    between atoms: C_1  and  C_2
REMARK    2  A    between atoms: C_4  and  O_5
REMARK    3  A    between atoms: N_9  and  C_10
REMARK    4  A    between atoms: C_10  and  C_11
REMARK    5  A    between atoms: C_16  and  C_18
REMARK    6  A    between atoms: C_18  and  C_19
REMARK    7  A    between atoms: C_19  and  C_20
REMARK                            x       y       z     vdW  Elec       q    Type
REMARK                         _______ _______ _______ _____ _____    ______ ____
ROOT
ATOM      1  C   UNL     1       2.470   4.749  18.777  0.00  0.00    +0.000 C 
ATOM      2  C   UNL     1       1.425   3.804  19.385  0.00  0.00    +0.000 C 
ATOM      3  C   UNL     1       1.423   4.173  20.864  0.00  0.00    +0.000 C 
ATOM      4  C   UNL     1       1.619   5.681  20.851  0.00  0.00    +0.000 C 
ATOM      5  N   UNL     1       2.235   5.982  19.563  0.00  0.00    +0.000 N 
ATOM      6  C   UNL     1       2.330   7.254  19.011  0.00  0.00    +0.000 C 
ATOM      7  O   UNL     1       2.851   7.446  17.914  0.00  0.00    +0.000 OA
ENDROOT
BRANCH   1   8
ATOM      8  C   UNL     1       3.916   4.228  18.900  0.00  0.00    +0.000 C 
BRANCH   8  16
ATOM      9  C   UNL     1       7.896   7.973  18.084  0.00  0.00    +0.000 C 
ATOM     10  C   UNL     1       7.263   6.788  17.414  0.00  0.00    +0.000 A 
ATOM     11  N   UNL     1       7.773   6.445  16.209  0.00  0.00    +0.000 NA
ATOM     12  C   UNL     1       7.212   5.402  15.567  0.00  0.00    +0.000 A 
ATOM     13  C   UNL     1       6.149   4.712  16.122  0.00  0.00    +0.000 A 
ATOM     14  N   UNL     1       5.375   3.655  15.728  0.00  0.00    +0.000 NA
ATOM     15  N   UNL     1       4.487   3.416  16.688  0.00  0.00    +0.000 NA
ATOM     16  N   UNL     1       4.705   4.306  17.686  0.00  0.00    +0.000 N 
ATOM     17  C   UNL     1       5.731   5.157  17.366  0.00  0.00    +0.000 A 
ATOM     18  N   UNL     1       6.239   6.186  18.070  0.00  0.00    +0.000 NA
BRANCH  12  19
ATOM     19  O   UNL     1       7.776   5.106  14.355  0.00  0.00    +0.000 OA
ATOM     20  H   UNL     1       7.556   4.161  14.276  0.00  0.00    +0.000 HD
ENDBRANCH  12  19
ENDBRANCH   8  16
ENDBRANCH   1   8
BRANCH   6  21
ATOM     21  C   UNL     1       1.700   8.380  19.838  0.00  0.00    +0.000 C 
BRANCH  21  22
ATOM     22  C   UNL     1       1.284   9.613  19.030  0.00  0.00    +0.000 C 
BRANCH  22  23
ATOM     23  C   UNL     1      -0.144  10.079  19.360  0.00  0.00    +0.000 C 
ATOM     24  C   UNL     1      -0.180  11.456  20.025  0.00  0.00    +0.000 C 
ATOM     25  C   UNL     1      -1.638  11.882  19.908  0.00  0.00    +0.000 C 
ATOM     26  C   UNL     1      -2.156  11.232  18.626  0.00  0.00    +0.000 C 
ATOM     27  C   UNL     1      -1.050  10.293  18.144  0.00  0.00    +0.000 C 
ENDBRANCH  22  23
ENDBRANCH  21  22
ENDBRANCH   6  21
TORSDOF 6
ENDMDL
MODEL 8
REMARK VINA RESULT:      -7.8      1.335      2.448
REMARK  Name = 
REMARK  7 active torsions:
REMARK  status: ('A' for Active; 'I' for Inactive)
REMARK    1  A    between atoms: C_1  and  C_2
REMARK    2  A    between atoms: C_4  and  O_5
REMARK    3  A    between atoms: N_9  and  C_10
REMARK    4  A    between atoms: C_10  and  C_11
REMARK    5  A    between atoms: C_16  and  C_18
REMARK    6  A    between atoms: C_18  and  C_19
REMARK    7  A    between atoms: C_19  and  C_20
REMARK                            x       y       z     vdW  Elec       q    Type
REMARK                         _______ _______ _______ _____ _____    ______ ____
ROOT
ATOM      1  C   UNL     1       2.019   3.688  18.800  0.00  0.00    +0.000 C 
ATOM      2  C   UNL     1       0.964   2.704  19.325  0.00  0.00    +0.000 C 
ATOM      3  C   UNL     1       1.168   2.732  20.835  0.00  0.00    +0.000 C 
ATOM      4  C   UNL     1       1.505   4.187  21.120  0.00  0.00    +0.000 C 
ATOM      5  N   UNL     1       1.994   4.726  19.855  0.00  0.00    +0.000 N 
ATOM      6  C   UNL     1       2.146   6.080  19.580  0.00  0.00    +0.000 C 
ATOM      7  O   UNL     1       2.554   6.477  18.490  0.00  0.00    +0.000 OA
ENDROOT
BRANCH   1   8
ATOM      8  C   UNL     1       3.412   3.055  18.615  0.00  0.00    +0.000 C 
BRANCH   8  16
ATOM      9  C   UNL     1       8.105   5.720  19.801  0.00  0.00    +0.000 C 
ATOM     10  C   UNL     1       7.271   5.310  18.623  0.00  0.00    +0.000 A 
ATOM     11  N   UNL     1       7.748   5.661  17.407  0.00  0.00    +0.000 NA
ATOM     12  C   UNL     1       7.011   5.331  16.328  0.00  0.00    +0.000 A 
ATOM     13  C   UNL     1       5.807   4.662  16.465  0.00  0.00    +0.000 A 
ATOM     14  N   UNL     1       4.849   4.214  15.596  0.00  0.00    +0.000 NA
ATOM     15  N   UNL     1       3.894   3.625  16.308  0.00  0.00    +0.000 NA
ATOM     16  N   UNL     1       4.249   3.688  17.614  0.00  0.00    +0.000 N 
ATOM     17  C   UNL     1       5.440   4.351  17.764  0.00  0.00    +0.000 A 
ATOM     18  N   UNL     1       6.119   4.643  18.889  0.00  0.00    +0.000 NA
BRANCH  12  19
ATOM     19  O   UNL     1       7.550   5.712  15.129  0.00  0.00    +0.000 OA
ATOM     20  H   UNL     1       8.044   6.507  15.394  0.00  0.00    +0.000 HD
ENDBRANCH  12  19
ENDBRANCH   8  16
ENDBRANCH   1   8
BRANCH   6  21
ATOM     21  C   UNL     1       1.726   7.032  20.705  0.00  0.00    +0.000 C 
BRANCH  21  22
ATOM     22  C   UNL     1       1.849   8.521  20.364  0.00  0.00    +0.000 C 
BRANCH  22  23
ATOM     23  C   UNL     1       0.528   9.119  19.852  0.00  0.00    +0.000 C 
ATOM     24  C   UNL     1       0.081  10.343  20.655  0.00  0.00    +0.000 C 
ATOM     25  C   UNL     1      -0.983  10.988  19.775  0.00  0.00    +0.000 C 
ATOM     26  C   UNL     1      -0.583  10.664  18.338  0.00  0.00    +0.000 C 
ATOM     27  C   UNL     1       0.583   9.679  18.428  0.00  0.00    +0.000 C 
ENDBRANCH  22  23
ENDBRANCH  21  22
ENDBRANCH   6  21
TORSDOF 6
ENDMDL
MODEL 9
REMARK VINA RESULT:      -7.7      1.360      2.555
REMARK  Name = 
REMARK  7 active torsions:
REMARK  status: ('A' for Active; 'I' for Inactive)
REMARK    1  A    between atoms: C_1  and  C_2
REMARK    2  A    between atoms: C_4  and  O_5
REMARK    3  A    between atoms: N_9  and  C_10
REMARK    4  A    between atoms: C_10  and  C_11
REMARK    5  A    between atoms: C_16  and  C_18
REMARK    6  A    between atoms: C_18  and  C_19
REMARK    7  A    between atoms: C_19  and  C_20
REMARK                            x       y       z     vdW  Elec       q    Type
REMARK                         _______ _______ _______ _____ _____    ______ ____
ROOT
ATOM      1  C   UNL     1       2.208   3.395  19.248  0.00  0.00    +0.000 C 
ATOM      2  C   UNL     1       1.303   2.409  19.998  0.00  0.00    +0.000 C 
ATOM      3  C   UNL     1       1.717   2.578  21.455  0.00  0.00    +0.000 C 
ATOM      4  C   UNL     1       1.998   4.067  21.571  0.00  0.00    +0.000 C 
ATOM      5  N   UNL     1       2.268   4.518  20.210  0.00  0.00    +0.000 N 
ATOM      6  C   UNL     1       2.294   5.849  19.809  0.00  0.00    +0.000 C 
ATOM      7  O   UNL     1       2.518   6.170  18.644  0.00  0.00    +0.000 OA
ENDROOT
BRANCH   1   8
ATOM      8  C   UNL     1       3.599   2.820  18.911  0.00  0.00    +0.000 C 
BRANCH   8  16
ATOM      9  C   UNL     1       8.183   5.772  19.802  0.00  0.00    +0.000 C 
ATOM     10  C   UNL     1       7.294   5.323  18.680  0.00  0.00    +0.000 A 
ATOM     11  N   UNL     1       7.657   5.719  17.439  0.00  0.00    +0.000 NA
ATOM     12  C   UNL     1       6.867   5.355  16.410  0.00  0.00    +0.000 A 
ATOM     13  C   UNL     1       5.722   4.607  16.622  0.00  0.00    +0.000 A 
ATOM     14  N   UNL     1       4.734   4.108  15.817  0.00  0.00    +0.000 NA
ATOM     15  N   UNL     1       3.873   3.449  16.585  0.00  0.00    +0.000 NA
ATOM     16  N   UNL     1       4.317   3.519  17.863  0.00  0.00    +0.000 N 
ATOM     17  C   UNL     1       5.471   4.256  17.939  0.00  0.00    +0.000 A 
ATOM     18  N   UNL     1       6.210   4.579  19.017  0.00  0.00    +0.000 NA
BRANCH  12  19
ATOM     19  O   UNL     1       7.291   5.785  15.183  0.00  0.00    +0.000 OA
ATOM     20  H   UNL     1       6.451   5.803  14.693  0.00  0.00    +0.000 HD
ENDBRANCH  12  19
ENDBRANCH   8  16
ENDBRANCH   1   8
BRANCH   6  21
ATOM     21  C   UNL     1       1.979   6.873  20.905  0.00  0.00    +0.000 C 
BRANCH  21  22
ATOM     22  C   UNL     1       0.781   7.781  20.610  0.00  0.00    +0.000 C 
BRANCH  22  23
ATOM     23  C   UNL     1       1.202   9.221  20.271  0.00  0.00    +0.000 C 
ATOM     24  C   UNL     1       1.238   9.490  18.766  0.00  0.00    +0.000 C 
ATOM     25  C   UNL     1       1.286  11.010  18.667  0.00  0.00    +0.000 C 
ATOM     26  C   UNL     1       0.531  11.527  19.890  0.00  0.00    +0.000 C 
ATOM     27  C   UNL     1       0.240  10.306  20.763  0.00  0.00    +0.000 C 
ENDBRANCH  22  23
ENDBRANCH  21  22
ENDBRANCH   6  21
TORSDOF 6
ENDMDL
