MODEL 1
REMARK VINA RESULT:      -8.4      0.000      0.000
REMARK  Name = 
REMARK  3 active torsions:
REMARK  status: ('A' for Active; 'I' for Inactive)
REMARK    1  A    between atoms: N_2  and  C_4
REMARK    2  A    between atoms: C_7  and  C_8
REMARK    3  A    between atoms: C_10  and  C_11
REMARK                            x       y       z     vdW  Elec       q    Type
REMARK                         _______ _______ _______ _____ _____    ______ ____
ROOT
ATOM      1  C   UNL     1       0.923  10.343  19.115  0.00  0.00    +0.000 A 
ATOM      2  N   UNL     1      -0.419  10.218  19.406  0.00  0.00    +0.000 NA
ATOM      3  C   UNL     1      -1.229  11.269  19.541  0.00  0.00    +0.000 A 
ATOM      4  C   UNL     1      -0.726  12.472  19.920  0.00  0.00    +0.000 A 
ATOM      5  C   UNL     1       0.464  12.736  19.229  0.00  0.00    +0.000 A 
ATOM      6  C   UNL     1       1.334  11.687  18.858  0.00  0.00    +0.000 A 
ATOM      7  N   UNL     1       2.447  12.353  18.345  0.00  0.00    +0.000 N 
ATOM      8  C   UNL     1       2.271  13.746  18.354  0.00  0.00    +0.000 A 
ATOM      9  C   UNL     1       3.087  14.831  17.979  0.00  0.00    +0.000 A 
ATOM     10  C   UNL     1       2.565  16.141  18.115  0.00  0.00    +0.000 A 
ATOM     11  C   UNL     1       1.267  16.372  18.559  0.00  0.00    +0.000 A 
ATOM     12  C   UNL     1       0.474  15.293  18.924  0.00  0.00    +0.000 A 
ATOM     13  C   UNL     1       1.003  13.984  18.857  0.00  0.00    +0.000 A 
ATOM     14  H   UNL     1       3.272  11.906  17.976  0.00  0.00    +0.000 HD
ENDROOT
BRANCH   3  15
ATOM     15  C   UNL     1      -2.252  11.320  18.477  0.00  0.00    +0.000 A 
ATOM     16  N   UNL     1      -3.345  12.025  18.434  0.00  0.00    +0.000 NA
ATOM     17  N   UNL     1      -3.809  11.772  17.179  0.00  0.00    +0.000 N 
ATOM     18  C   UNL     1      -2.967  10.931  16.515  0.00  0.00    +0.000 A 
ATOM     19  S   UNL     1      -3.035  10.365  14.978  0.00  0.00    +0.000 S 
ATOM     20  O   UNL     1      -1.962  10.604  17.357  0.00  0.00    +0.000 OA
ATOM     21  H   UNL     1      -4.619  12.244  16.799  0.00  0.00    +0.000 HD
ENDBRANCH   3  15
BRANCH   1  25
ATOM     22  C   UNL     1       3.161   6.663  18.666  0.00  0.00    +0.000 A 
ATOM     23  C   UNL     1       2.414   6.845  19.846  0.00  0.00    +0.000 A 
ATOM     24  C   UNL     1       1.597   7.996  20.023  0.00  0.00    +0.000 A 
ATOM     25  C   UNL     1       1.516   8.977  19.028  0.00  0.00    +0.000 A 
ATOM     26  C   UNL     1       2.234   8.680  17.821  0.00  0.00    +0.000 A 
ATOM     27  C   UNL     1       3.052   7.577  17.641  0.00  0.00    +0.000 A 
BRANCH  22  29
ATOM     28  O   UNL     1       3.911   4.794  17.526  0.00  0.00    +0.000 OA
ATOM     29  N   UNL     1       4.082   5.525  18.503  0.00  0.00    +0.000 N 
ATOM     30  O   UNL     1       4.957   5.349  19.369  0.00  0.00    +0.000 OA
ENDBRANCH  22  29
ENDBRANCH   1  25
TORSDOF 3
ENDMDL
MODEL 2
REMARK VINA RESULT:      -8.2      1.129      1.273
REMARK  Name = 
REMARK  3 active torsions:
REMARK  status: ('A' for Active; 'I' for Inactive)
REMARK    1  A    between atoms: N_2  and  C_4
REMARK    2  A    between atoms: C_7  and  C_8
REMARK    3  A    between atoms: C_10  and  C_11
REMARK                            x       y       z     vdW  Elec       q    Type
REMARK                         _______ _______ _______ _____ _____    ______ ____
ROOT
ATOM      1  C   UNL     1       0.828  10.640  19.181  0.00  0.00    +0.000 A 
ATOM      2  N   UNL     1      -0.515  10.588  19.492  0.00  0.00    +0.000 NA
ATOM      3  C   UNL     1      -1.271  11.681  19.609  0.00  0.00    +0.000 A 
ATOM      4  C   UNL     1      -0.704  12.868  19.949  0.00  0.00    +0.000 A 
ATOM      5  C   UNL     1       0.487  13.055  19.236  0.00  0.00    +0.000 A 
ATOM      6  C   UNL     1       1.299  11.955  18.883  0.00  0.00    +0.000 A 
ATOM      7  N   UNL     1       2.437  12.552  18.338  0.00  0.00    +0.000 N 
ATOM      8  C   UNL     1       2.328  13.951  18.311  0.00  0.00    +0.000 A 
ATOM      9  C   UNL     1       3.191  14.986  17.897  0.00  0.00    +0.000 A 
ATOM     10  C   UNL     1       2.735  16.322  18.004  0.00  0.00    +0.000 A 
ATOM     11  C   UNL     1       1.456  16.628  18.457  0.00  0.00    +0.000 A 
ATOM     12  C   UNL     1       0.617  15.599  18.862  0.00  0.00    +0.000 A 
ATOM     13  C   UNL     1       1.081  14.265  18.823  0.00  0.00    +0.000 A 
ATOM     14  H   UNL     1       3.234  12.056  17.970  0.00  0.00    +0.000 HD
ENDROOT
BRANCH   3  15
ATOM     15  C   UNL     1      -2.304  11.754  18.557  0.00  0.00    +0.000 A 
ATOM     16  N   UNL     1      -2.158  11.670  17.267  0.00  0.00    +0.000 NA
ATOM     17  N   UNL     1      -3.445  11.669  16.825  0.00  0.00    +0.000 N 
ATOM     18  C   UNL     1      -4.314  11.742  17.871  0.00  0.00    +0.000 A 
ATOM     19  S   UNL     1      -5.954  11.717  17.886  0.00  0.00    +0.000 S 
ATOM     20  O   UNL     1      -3.586  11.827  19.007  0.00  0.00    +0.000 OA
ATOM     21  H   UNL     1      -3.679  11.530  15.850  0.00  0.00    +0.000 HD
ENDBRANCH   3  15
BRANCH   1  25
ATOM     22  C   UNL     1       2.870   6.842  18.782  0.00  0.00    +0.000 A 
ATOM     23  C   UNL     1       2.190   7.106  19.987  0.00  0.00    +0.000 A 
ATOM     24  C   UNL     1       1.436   8.301  20.153  0.00  0.00    +0.000 A 
ATOM     25  C   UNL     1       1.353   9.245  19.124  0.00  0.00    +0.000 A 
ATOM     26  C   UNL     1       1.997   8.867  17.898  0.00  0.00    +0.000 A 
ATOM     27  C   UNL     1       2.754   7.719  17.726  0.00  0.00    +0.000 A 
BRANCH  22  29
ATOM     28  O   UNL     1       4.542   5.422  19.519  0.00  0.00    +0.000 OA
ATOM     29  N   UNL     1       3.729   5.656  18.624  0.00  0.00    +0.000 N 
ATOM     30  O   UNL     1       3.607   4.978  17.588  0.00  0.00    +0.000 OA
ENDBRANCH  22  29
ENDBRANCH   1  25
TORSDOF 3
ENDMDL
MODEL 3
REMARK VINA RESULT:      -8.1      0.739      1.303
REMARK  Name = 
REMARK  3 active torsions:
REMARK  status: ('A' for Active; 'I' for Inactive)
REMARK    1  A    between atoms: N_2  and  C_4
REMARK    2  A    between atoms: C_7  and  C_8
REMARK    3  A    between atoms: C_10  and  C_11
REMARK                            x       y       z     vdW  Elec       q    Type
REMARK                         _______ _______ _______ _____ _____    ______ ____
ROOT
ATOM      1  C   UNL     1       0.743  10.660  19.093  0.00  0.00    +0.000 A 
ATOM      2  N   UNL     1      -0.592  10.371  19.284  0.00  0.00    +0.000 NA
ATOM      3  C   UNL     1      -1.525  11.317  19.407  0.00  0.00    +0.000 A 
ATOM      4  C   UNL     1      -1.188  12.548  19.873  0.00  0.00    +0.000 A 
ATOM      5  C   UNL     1       0.005  12.978  19.279  0.00  0.00    +0.000 A 
ATOM      6  C   UNL     1       1.012  12.053  18.924  0.00  0.00    +0.000 A 
ATOM      7  N   UNL     1       2.072  12.865  18.520  0.00  0.00    +0.000 N 
ATOM      8  C   UNL     1       1.736  14.227  18.576  0.00  0.00    +0.000 A 
ATOM      9  C   UNL     1       2.445  15.414  18.307  0.00  0.00    +0.000 A 
ATOM     10  C   UNL     1       1.768  16.649  18.463  0.00  0.00    +0.000 A 
ATOM     11  C   UNL     1       0.426  16.710  18.824  0.00  0.00    +0.000 A 
ATOM     12  C   UNL     1      -0.259  15.532  19.086  0.00  0.00    +0.000 A 
ATOM     13  C   UNL     1       0.420  14.296  18.999  0.00  0.00    +0.000 A 
ATOM     14  H   UNL     1       2.965  12.532  18.190  0.00  0.00    +0.000 HD
ENDROOT
BRANCH   3  15
ATOM     15  C   UNL     1      -2.476  11.308  18.278  0.00  0.00    +0.000 A 
ATOM     16  N   UNL     1      -3.575  11.989  18.136  0.00  0.00    +0.000 NA
ATOM     17  N   UNL     1      -3.951  11.679  16.865  0.00  0.00    +0.000 N 
ATOM     18  C   UNL     1      -3.053  10.830  16.291  0.00  0.00    +0.000 A 
ATOM     19  S   UNL     1      -3.011  10.204  14.776  0.00  0.00    +0.000 S 
ATOM     20  O   UNL     1      -2.100  10.555  17.209  0.00  0.00    +0.000 OA
ATOM     21  H   UNL     1      -4.742  12.121  16.414  0.00  0.00    +0.000 HD
ENDBRANCH   3  15
BRANCH   1  25
ATOM     22  C   UNL     1       2.427   6.671  19.056  0.00  0.00    +0.000 A 
ATOM     23  C   UNL     1       2.532   7.446  17.885  0.00  0.00    +0.000 A 
ATOM     24  C   UNL     1       2.068   8.791  17.855  0.00  0.00    +0.000 A 
ATOM     25  C   UNL     1       1.494   9.375  18.989  0.00  0.00    +0.000 A 
ATOM     26  C   UNL     1       1.501   8.555  20.166  0.00  0.00    +0.000 A 
ATOM     27  C   UNL     1       1.927   7.237  20.208  0.00  0.00    +0.000 A 
BRANCH  22  29
ATOM     28  O   UNL     1       3.133   4.769  20.169  0.00  0.00    +0.000 OA
ATOM     29  N   UNL     1       2.817   5.251  19.080  0.00  0.00    +0.000 N 
ATOM     30  O   UNL     1       2.834   4.628  18.004  0.00  0.00    +0.000 OA
ENDBRANCH  22  29
ENDBRANCH   1  25
TORSDOF 3
ENDMDL
MODEL 4
REMARK VINA RESULT:      -8.0      4.209      8.707
REMARK  Name = 
REMARK  3 active torsions:
REMARK  status: ('A' for Active; 'I' for Inactive)
REMARK    1  A    between atoms: N_2  and  C_4
REMARK    2  A    between atoms: C_7  and  C_8
REMARK    3  A    between atoms: C_10  and  C_11
REMARK                            x       y       z     vdW  Elec       q    Type
REMARK                         _______ _______ _______ _____ _____    ______ ____
ROOT
ATOM      1  C   UNL     1       2.329   6.769  19.031  0.00  0.00    +0.000 A 
ATOM      2  N   UNL     1       1.619   5.697  19.529  0.00  0.00    +0.000 NA
ATOM      3  C   UNL     1       1.820   4.444  19.118  0.00  0.00    +0.000 A 
ATOM      4  C   UNL     1       2.317   4.206  17.876  0.00  0.00    +0.000 A 
ATOM      5  C   UNL     1       3.370   5.088  17.602  0.00  0.00    +0.000 A 
ATOM      6  C   UNL     1       3.373   6.398  18.129  0.00  0.00    +0.000 A 
ATOM      7  N   UNL     1       4.477   6.993  17.516  0.00  0.00    +0.000 N 
ATOM      8  C   UNL     1       5.156   6.093  16.680  0.00  0.00    +0.000 A 
ATOM      9  C   UNL     1       6.281   6.208  15.839  0.00  0.00    +0.000 A 
ATOM     10  C   UNL     1       6.709   5.058  15.132  0.00  0.00    +0.000 A 
ATOM     11  C   UNL     1       6.081   3.826  15.283  0.00  0.00    +0.000 A 
ATOM     12  C   UNL     1       4.974   3.729  16.115  0.00  0.00    +0.000 A 
ATOM     13  C   UNL     1       4.494   4.881  16.777  0.00  0.00    +0.000 A 
ATOM     14  H   UNL     1       4.785   7.941  17.670  0.00  0.00    +0.000 HD
ENDROOT
BRANCH   3  15
ATOM     15  C   UNL     1       2.370   3.592  20.191  0.00  0.00    +0.000 A 
ATOM     16  N   UNL     1       1.824   3.258  21.324  0.00  0.00    +0.000 NA
ATOM     17  N   UNL     1       2.719   2.368  21.831  0.00  0.00    +0.000 N 
ATOM     18  C   UNL     1       3.765   2.195  20.975  0.00  0.00    +0.000 A 
ATOM     19  S   UNL     1       5.066   1.204  21.084  0.00  0.00    +0.000 S 
ATOM     20  O   UNL     1       3.567   3.008  19.914  0.00  0.00    +0.000 OA
ATOM     21  H   UNL     1       2.543   1.853  22.685  0.00  0.00    +0.000 HD
ENDBRANCH   3  15
BRANCH   1  25
ATOM     22  C   UNL     1       0.523  10.393  20.565  0.00  0.00    +0.000 A 
ATOM     23  C   UNL     1       0.822   9.364  21.478  0.00  0.00    +0.000 A 
ATOM     24  C   UNL     1       1.485   8.179  21.052  0.00  0.00    +0.000 A 
ATOM     25  C   UNL     1       1.855   8.008  19.713  0.00  0.00    +0.000 A 
ATOM     26  C   UNL     1       1.597   9.134  18.862  0.00  0.00    +0.000 A 
ATOM     27  C   UNL     1       0.933  10.284  19.254  0.00  0.00    +0.000 A 
BRANCH  22  29
ATOM     28  O   UNL     1      -1.238  11.871  20.301  0.00  0.00    +0.000 OA
ATOM     29  N   UNL     1      -0.243  11.585  20.968  0.00  0.00    +0.000 N 
ATOM     30  O   UNL     1       0.171  12.249  21.935  0.00  0.00    +0.000 OA
ENDBRANCH  22  29
ENDBRANCH   1  25
TORSDOF 3
ENDMDL
MODEL 5
REMARK VINA RESULT:      -7.9      1.165      1.484
REMARK  Name = 
REMARK  3 active torsions:
REMARK  status: ('A' for Active; 'I' for Inactive)
REMARK    1  A    between atoms: N_2  and  C_4
REMARK    2  A    between atoms: C_7  and  C_8
REMARK    3  A    between atoms: C_10  and  C_11
REMARK                            x       y       z     vdW  Elec       q    Type
REMARK                         _______ _______ _______ _____ _____    ______ ____
ROOT
ATOM      1  C   UNL     1       1.153  10.159  19.011  0.00  0.00    +0.000 A 
ATOM      2  N   UNL     1      -0.178   9.895  19.258  0.00  0.00    +0.000 NA
ATOM      3  C   UNL     1      -1.091  10.857  19.396  0.00  0.00    +0.000 A 
ATOM      4  C   UNL     1      -0.719  12.093  19.820  0.00  0.00    +0.000 A 
ATOM      5  C   UNL     1       0.457  12.491  19.171  0.00  0.00    +0.000 A 
ATOM      6  C   UNL     1       1.436  11.543  18.800  0.00  0.00    +0.000 A 
ATOM      7  N   UNL     1       2.492  12.329  18.337  0.00  0.00    +0.000 N 
ATOM      8  C   UNL     1       2.179  13.697  18.376  0.00  0.00    +0.000 A 
ATOM      9  C   UNL     1       2.894  14.867  18.053  0.00  0.00    +0.000 A 
ATOM     10  C   UNL     1       2.242  16.115  18.206  0.00  0.00    +0.000 A 
ATOM     11  C   UNL     1       0.916  16.206  18.617  0.00  0.00    +0.000 A 
ATOM     12  C   UNL     1       0.224  15.044  18.931  0.00  0.00    +0.000 A 
ATOM     13  C   UNL     1       0.880  13.796  18.846  0.00  0.00    +0.000 A 
ATOM     14  H   UNL     1       3.366  11.975  17.981  0.00  0.00    +0.000 HD
ENDROOT
BRANCH   3  15
ATOM     15  C   UNL     1      -2.084  10.838  18.304  0.00  0.00    +0.000 A 
ATOM     16  N   UNL     1      -2.109  10.088  17.241  0.00  0.00    +0.000 NA
ATOM     17  N   UNL     1      -3.305  10.413  16.679  0.00  0.00    +0.000 N 
ATOM     18  C   UNL     1      -3.957  11.339  17.436  0.00  0.00    +0.000 A 
ATOM     19  S   UNL     1      -5.437  12.015  17.235  0.00  0.00    +0.000 S 
ATOM     20  O   UNL     1      -3.161  11.649  18.484  0.00  0.00    +0.000 OA
ATOM     21  H   UNL     1      -3.666   9.932  15.864  0.00  0.00    +0.000 HD
ENDBRANCH   3  15
BRANCH   1  25
ATOM     22  C   UNL     1       2.740   6.131  18.916  0.00  0.00    +0.000 A 
ATOM     23  C   UNL     1       2.970   6.960  17.802  0.00  0.00    +0.000 A 
ATOM     24  C   UNL     1       2.542   8.317  17.801  0.00  0.00    +0.000 A 
ATOM     25  C   UNL     1       1.880   8.861  18.907  0.00  0.00    +0.000 A 
ATOM     26  C   UNL     1       1.761   7.982  20.036  0.00  0.00    +0.000 A 
ATOM     27  C   UNL     1       2.151   6.653  20.047  0.00  0.00    +0.000 A 
BRANCH  22  29
ATOM     28  O   UNL     1       3.130   4.138  17.806  0.00  0.00    +0.000 OA
ATOM     29  N   UNL     1       3.094   4.701  18.901  0.00  0.00    +0.000 N 
ATOM     30  O   UNL     1       3.306   4.137  19.990  0.00  0.00    +0.000 OA
ENDBRANCH  22  29
ENDBRANCH   1  25
TORSDOF 3
ENDMDL
MODEL 6
REMARK VINA RESULT:      -7.8      6.922      9.943
REMARK  Name = 
REMARK  3 active torsions:
REMARK  status: ('A' for Active; 'I' for Inactive)
REMARK    1  A    between atoms: N_2  and  C_4
REMARK    2  A    between atoms: C_7  and  C_8
REMARK    3  A    between atoms: C_10  and  C_11
REMARK                            x       y       z     vdW  Elec       q    Type
REMARK                         _______ _______ _______ _____ _____    ______ ____
ROOT
ATOM      1  C   UNL     1       6.725   6.814  17.496  0.00  0.00    +0.000 A 
ATOM      2  N   UNL     1       7.607   6.100  16.713  0.00  0.00    +0.000 NA
ATOM      3  C   UNL     1       7.343   4.872  16.264  0.00  0.00    +0.000 A 
ATOM      4  C   UNL     1       6.484   4.068  16.945  0.00  0.00    +0.000 A 
ATOM      5  C   UNL     1       5.359   4.798  17.348  0.00  0.00    +0.000 A 
ATOM      6  C   UNL     1       5.465   6.167  17.680  0.00  0.00    +0.000 A 
ATOM      7  N   UNL     1       4.196   6.482  18.168  0.00  0.00    +0.000 N 
ATOM      8  C   UNL     1       3.326   5.381  18.109  0.00  0.00    +0.000 A 
ATOM      9  C   UNL     1       1.986   5.179  18.495  0.00  0.00    +0.000 A 
ATOM     10  C   UNL     1       1.408   3.907  18.268  0.00  0.00    +0.000 A 
ATOM     11  C   UNL     1       2.109   2.883  17.638  0.00  0.00    +0.000 A 
ATOM     12  C   UNL     1       3.428   3.097  17.262  0.00  0.00    +0.000 A 
ATOM     13  C   UNL     1       4.040   4.339  17.541  0.00  0.00    +0.000 A 
ATOM     14  H   UNL     1       3.909   7.392  18.495  0.00  0.00    +0.000 HD
ENDROOT
BRANCH   3  15
ATOM     15  C   UNL     1       7.208   4.837  14.794  0.00  0.00    +0.000 A 
ATOM     16  N   UNL     1       7.865   5.519  13.902  0.00  0.00    +0.000 NA
ATOM     17  N   UNL     1       7.419   4.982  12.734  0.00  0.00    +0.000 N 
ATOM     18  C   UNL     1       6.518   3.989  12.974  0.00  0.00    +0.000 A 
ATOM     19  S   UNL     1       5.734   2.998  11.928  0.00  0.00    +0.000 S 
ATOM     20  O   UNL     1       6.348   3.901  14.311  0.00  0.00    +0.000 OA
ATOM     21  H   UNL     1       7.806   5.246  11.837  0.00  0.00    +0.000 HD
ENDBRANCH   3  15
BRANCH   1  25
ATOM     22  C   UNL     1       9.042  10.380  18.311  0.00  0.00    +0.000 A 
ATOM     23  C   UNL     1       7.929  10.493  17.455  0.00  0.00    +0.000 A 
ATOM     24  C   UNL     1       7.082   9.377  17.207  0.00  0.00    +0.000 A 
ATOM     25  C   UNL     1       7.335   8.139  17.807  0.00  0.00    +0.000 A 
ATOM     26  C   UNL     1       8.431   8.124  18.733  0.00  0.00    +0.000 A 
ATOM     27  C   UNL     1       9.280   9.193  18.969  0.00  0.00    +0.000 A 
BRANCH  22  29
ATOM     28  O   UNL     1       9.881  12.462  17.750  0.00  0.00    +0.000 OA
ATOM     29  N   UNL     1       9.982  11.497  18.509  0.00  0.00    +0.000 N 
ATOM     30  O   UNL     1      10.838  11.392  19.405  0.00  0.00    +0.000 OA
ENDBRANCH  22  29
ENDBRANCH   1  25
TORSDOF 3
ENDMDL
MODEL 7
REMARK VINA RESULT:      -7.7      4.436      8.746
REMARK  Name = 
REMARK  3 active torsions:
REMARK  status: ('A' for Active; 'I' for Inactive)
REMARK    1  A    between atoms: N_2  and  C_4
REMARK    2  A    between atoms: C_7  and  C_8
REMARK    3  A    between atoms: C_10  and  C_11
REMARK                            x       y       z     vdW  Elec       q    Type
REMARK                         _______ _______ _______ _____ _____    ______ ____
ROOT
ATOM      1  C   UNL     1       2.266   6.693  18.712  0.00  0.00    +0.000 A 
ATOM      2  N   UNL     1       1.592   5.598  19.211  0.00  0.00    +0.000 NA
ATOM      3  C   UNL     1       1.907   4.344  18.880  0.00  0.00    +0.000 A 
ATOM      4  C   UNL     1       2.511   4.085  17.691  0.00  0.00    +0.000 A 
ATOM      5  C   UNL     1       3.521   5.025  17.450  0.00  0.00    +0.000 A 
ATOM      6  C   UNL     1       3.398   6.355  17.909  0.00  0.00    +0.000 A 
ATOM      7  N   UNL     1       4.503   6.996  17.348  0.00  0.00    +0.000 N 
ATOM      8  C   UNL     1       5.301   6.109  16.610  0.00  0.00    +0.000 A 
ATOM      9  C   UNL     1       6.477   6.263  15.849  0.00  0.00    +0.000 A 
ATOM     10  C   UNL     1       7.032   5.114  15.233  0.00  0.00    +0.000 A 
ATOM     11  C   UNL     1       6.477   3.850  15.401  0.00  0.00    +0.000 A 
ATOM     12  C   UNL     1       5.319   3.714  16.154  0.00  0.00    +0.000 A 
ATOM     13  C   UNL     1       4.716   4.859  16.720  0.00  0.00    +0.000 A 
ATOM     14  H   UNL     1       4.736   7.969  17.475  0.00  0.00    +0.000 HD
ENDROOT
BRANCH   3  15
ATOM     15  C   UNL     1       2.428   3.582  20.032  0.00  0.00    +0.000 A 
ATOM     16  N   UNL     1       1.871   3.378  21.190  0.00  0.00    +0.000 NA
ATOM     17  N   UNL     1       2.737   2.512  21.784  0.00  0.00    +0.000 N 
ATOM     18  C   UNL     1       3.776   2.223  20.951  0.00  0.00    +0.000 A 
ATOM     19  S   UNL     1       5.044   1.205  21.158  0.00  0.00    +0.000 S 
ATOM     20  O   UNL     1       3.605   2.935  19.815  0.00  0.00    +0.000 OA
ATOM     21  H   UNL     1       2.544   2.088  22.683  0.00  0.00    +0.000 HD
ENDBRANCH   3  15
BRANCH   1  25
ATOM     22  C   UNL     1       0.936  10.216  20.849  0.00  0.00    +0.000 A 
ATOM     23  C   UNL     1       1.085  10.305  19.452  0.00  0.00    +0.000 A 
ATOM     24  C   UNL     1       1.445   9.164  18.681  0.00  0.00    +0.000 A 
ATOM     25  C   UNL     1       1.661   7.925  19.295  0.00  0.00    +0.000 A 
ATOM     26  C   UNL     1       1.404   7.892  20.706  0.00  0.00    +0.000 A 
ATOM     27  C   UNL     1       1.076   8.997  21.475  0.00  0.00    +0.000 A 
BRANCH  22  29
ATOM     28  O   UNL     1       1.185  12.464  21.339  0.00  0.00    +0.000 OA
ATOM     29  N   UNL     1       0.654  11.404  21.673  0.00  0.00    +0.000 N 
ATOM     30  O   UNL     1      -0.076  11.266  22.671  0.00  0.00    +0.000 OA
ENDBRANCH  22  29
ENDBRANCH   1  25
TORSDOF 3
ENDMDL
MODEL 8
REMARK VINA RESULT:      -7.6      3.585      7.171
REMARK  Name = 
REMARK  3 active torsions:
REMARK  status: ('A' for Active; 'I' for Inactive)
REMARK    1  A    between atoms: N_2  and  C_4
REMARK    2  A    between atoms: C_7  and  C_8
REMARK    3  A    between atoms: C_10  and  C_11
REMARK                            x       y       z     vdW  Elec       q    Type
REMARK                         _______ _______ _______ _____ _____    ______ ____
ROOT
ATOM      1  C   UNL     1      -1.003  11.889  20.859  0.00  0.00    +0.000 A 
ATOM      2  N   UNL     1      -1.517  12.531  19.753  0.00  0.00    +0.000 NA
ATOM      3  C   UNL     1      -1.197  12.187  18.504  0.00  0.00    +0.000 A 
ATOM      4  C   UNL     1      -0.006  11.585  18.248  0.00  0.00    +0.000 A 
ATOM      5  C   UNL     1       0.253  10.601  19.211  0.00  0.00    +0.000 A 
ATOM      6  C   UNL     1      -0.194  10.755  20.542  0.00  0.00    +0.000 A 
ATOM      7  N   UNL     1       0.382   9.671  21.205  0.00  0.00    +0.000 N 
ATOM      8  C   UNL     1       1.117   8.855  20.331  0.00  0.00    +0.000 A 
ATOM      9  C   UNL     1       1.889   7.689  20.507  0.00  0.00    +0.000 A 
ATOM     10  C   UNL     1       2.497   7.110  19.367  0.00  0.00    +0.000 A 
ATOM     11  C   UNL     1       2.312   7.631  18.090  0.00  0.00    +0.000 A 
ATOM     12  C   UNL     1       1.549   8.780  17.932  0.00  0.00    +0.000 A 
ATOM     13  C   UNL     1       0.990   9.408  19.068  0.00  0.00    +0.000 A 
ATOM     14  H   UNL     1       0.266   9.462  22.185  0.00  0.00    +0.000 HD
ENDROOT
BRANCH   3  15
ATOM     15  C   UNL     1      -2.353  11.637  17.768  0.00  0.00    +0.000 A 
ATOM     16  N   UNL     1      -3.614  11.679  18.086  0.00  0.00    +0.000 NA
ATOM     17  N   UNL     1      -4.212  11.141  16.989  0.00  0.00    +0.000 N 
ATOM     18  C   UNL     1      -3.284  10.808  16.049  0.00  0.00    +0.000 A 
ATOM     19  S   UNL     1      -3.480  10.187  14.544  0.00  0.00    +0.000 S 
ATOM     20  O   UNL     1      -2.064  11.098  16.553  0.00  0.00    +0.000 OA
ATOM     21  H   UNL     1      -5.219  11.106  16.887  0.00  0.00    +0.000 HD
ENDBRANCH   3  15
BRANCH   1  25
ATOM     22  C   UNL     1      -2.481  14.263  24.165  0.00  0.00    +0.000 A 
ATOM     23  C   UNL     1      -3.324  13.268  23.634  0.00  0.00    +0.000 A 
ATOM     24  C   UNL     1      -2.872  12.403  22.599  0.00  0.00    +0.000 A 
ATOM     25  C   UNL     1      -1.577  12.521  22.082  0.00  0.00    +0.000 A 
ATOM     26  C   UNL     1      -0.749  13.497  22.732  0.00  0.00    +0.000 A 
ATOM     27  C   UNL     1      -1.180  14.362  23.725  0.00  0.00    +0.000 A 
BRANCH  22  29
ATOM     28  O   UNL     1      -4.060  15.746  24.978  0.00  0.00    +0.000 OA
ATOM     29  N   UNL     1      -2.961  15.225  25.171  0.00  0.00    +0.000 N 
ATOM     30  O   UNL     1      -2.222  15.480  26.139  0.00  0.00    +0.000 OA
ENDBRANCH  22  29
ENDBRANCH   1  25
TORSDOF 3
ENDMDL
MODEL 9
REMARK VINA RESULT:      -7.6      4.081      7.801
REMARK  Name = 
REMARK  3 active torsions:
REMARK  status: ('A' for Active; 'I' for Inactive)
REMARK    1  A    between atoms: N_2  and  C_4
REMARK    2  A    between atoms: C_7  and  C_8
REMARK    3  A    between atoms: C_10  and  C_11
REMARK                            x       y       z     vdW  Elec       q    Type
REMARK                         _______ _______ _______ _____ _____    ______ ____
ROOT
ATOM      1  C   UNL     1      -1.426  11.904  20.788  0.00  0.00    +0.000 A 
ATOM      2  N   UNL     1      -0.105  11.509  20.776  0.00  0.00    +0.000 NA
ATOM      3  C   UNL     1       0.444  10.858  19.749  0.00  0.00    +0.000 A 
ATOM      4  C   UNL     1      -0.333  10.102  18.929  0.00  0.00    +0.000 A 
ATOM      5  C   UNL     1      -1.516  10.785  18.623  0.00  0.00    +0.000 A 
ATOM      6  C   UNL     1      -2.112  11.657  19.560  0.00  0.00    +0.000 A 
ATOM      7  N   UNL     1      -3.320  12.008  18.956  0.00  0.00    +0.000 N 
ATOM      8  C   UNL     1      -3.458  11.421  17.688  0.00  0.00    +0.000 A 
ATOM      9  C   UNL     1      -4.477  11.439  16.714  0.00  0.00    +0.000 A 
ATOM     10  C   UNL     1      -4.266  10.723  15.511  0.00  0.00    +0.000 A 
ATOM     11  C   UNL     1      -3.075  10.052  15.254  0.00  0.00    +0.000 A 
ATOM     12  C   UNL     1      -2.080  10.044  16.222  0.00  0.00    +0.000 A 
ATOM     13  C   UNL     1      -2.301  10.698  17.454  0.00  0.00    +0.000 A 
ATOM     14  H   UNL     1      -4.007  12.633  19.350  0.00  0.00    +0.000 HD
ENDROOT
BRANCH   3  15
ATOM     15  C   UNL     1       1.479  11.664  19.072  0.00  0.00    +0.000 A 
ATOM     16  N   UNL     1       2.194  11.357  18.030  0.00  0.00    +0.000 NA
ATOM     17  N   UNL     1       2.867  12.514  17.784  0.00  0.00    +0.000 N 
ATOM     18  C   UNL     1       2.518  13.475  18.685  0.00  0.00    +0.000 A 
ATOM     19  S   UNL     1       2.990  15.041  18.794  0.00  0.00    +0.000 S 
ATOM     20  O   UNL     1       1.635  12.928  19.549  0.00  0.00    +0.000 OA
ATOM     21  H   UNL     1       3.459  12.631  16.971  0.00  0.00    +0.000 HD
ENDBRANCH   3  15
BRANCH   1  25
ATOM     22  C   UNL     1      -2.109  14.470  24.209  0.00  0.00    +0.000 A 
ATOM     23  C   UNL     1      -3.023  13.426  23.971  0.00  0.00    +0.000 A 
ATOM     24  C   UNL     1      -2.815  12.501  22.909  0.00  0.00    +0.000 A 
ATOM     25  C   UNL     1      -1.697  12.608  22.075  0.00  0.00    +0.000 A 
ATOM     26  C   UNL     1      -0.767  13.641  22.434  0.00  0.00    +0.000 A 
ATOM     27  C   UNL     1      -0.964  14.564  23.448  0.00  0.00    +0.000 A 
BRANCH  22  29
ATOM     28  O   UNL     1      -1.509  15.610  26.131  0.00  0.00    +0.000 OA
ATOM     29  N   UNL     1      -2.354  15.491  25.243  0.00  0.00    +0.000 N 
ATOM     30  O   UNL     1      -3.407  16.150  25.179  0.00  0.00    +0.000 OA
ENDBRANCH  22  29
ENDBRANCH   1  25
TORSDOF 3
ENDMDL
