MODEL 1
REMARK VINA RESULT:      -7.8      0.000      0.000
REMARK  Name = 
REMARK  7 active torsions:
REMARK  status: ('A' for Active; 'I' for Inactive)
REMARK    1  A    between atoms: C_1  and  O_2
REMARK    2  A    between atoms: O_2  and  C_3
REMARK    3  A    between atoms: C_6  and  N_7
REMARK    4  A    between atoms: C_8  and  C_9
REMARK    5  A    between atoms: C_10  and  C_11
REMARK    6  A    between atoms: C_11  and  C_12
REMARK    7  A    between atoms: C_16  and  O_17
REMARK                            x       y       z     vdW  Elec       q    Type
REMARK                         _______ _______ _______ _____ _____    ______ ____
ROOT
ATOM      1  N   UNL     1       4.193   4.182  18.209  0.00  0.00    +0.000 N 
ATOM      2  C   UNL     1       2.959   4.537  17.616  0.00  0.00    +0.000 A 
ATOM      3  C   UNL     1       2.375   3.362  16.822  0.00  0.00    +0.000 C 
ATOM      4  C   UNL     1       2.450   5.301  18.655  0.00  0.00    +0.000 A 
ATOM      5  C   UNL     1       2.450   4.301  19.637  0.00  0.00    +0.000 A 
ATOM      6  C   UNL     1       1.590   4.028  20.702  0.00  0.00    +0.000 A 
ATOM      7  C   UNL     1       1.907   2.987  21.536  0.00  0.00    +0.000 A 
ATOM      8  C   UNL     1       3.114   2.297  21.370  0.00  0.00    +0.000 A 
ATOM      9  C   UNL     1       4.060   2.616  20.344  0.00  0.00    +0.000 A 
ATOM     10  C   UNL     1       3.689   3.608  19.426  0.00  0.00    +0.000 A 
ENDROOT
BRANCH   1  14
ATOM     11  C   UNL     1       7.011   4.955  15.198  0.00  0.00    +0.000 A 
ATOM     12  C   UNL     1       7.057   5.595  16.422  0.00  0.00    +0.000 A 
ATOM     13  C   UNL     1       6.247   5.155  17.457  0.00  0.00    +0.000 A 
ATOM     14  C   UNL     1       5.285   4.123  17.283  0.00  0.00    +0.000 A 
ATOM     15  C   UNL     1       5.323   3.388  16.108  0.00  0.00    +0.000 A 
ATOM     16  C   UNL     1       6.193   3.820  15.058  0.00  0.00    +0.000 A 
BRANCH  11  18
ATOM     17  C   UNL     1       7.698   5.173  12.910  0.00  0.00    +0.000 C 
ATOM     18  O   UNL     1       7.756   5.598  14.255  0.00  0.00    +0.000 OA
ENDBRANCH  11  18
ENDBRANCH   1  14
BRANCH   4  19
ATOM     19  C   UNL     1       2.496   6.729  18.985  0.00  0.00    +0.000 C 
ATOM     20  C   UNL     1       2.978   7.725  17.964  0.00  0.00    +0.000 C 
ATOM     21  O   UNL     1       2.283   7.111  20.140  0.00  0.00    +0.000 OA
ENDBRANCH   4  19
BRANCH   7  22
ATOM     22  O   UNL     1       1.038   2.615  22.522  0.00  0.00    +0.000 OA
ATOM     23  H   UNL     1       1.138   3.229  23.263  0.00  0.00    +0.000 HD
ENDBRANCH   7  22
TORSDOF 4
ENDMDL
MODEL 2
REMARK VINA RESULT:      -7.7      0.906      1.015
REMARK  Name = 
REMARK  7 active torsions:
REMARK  status: ('A' for Active; 'I' for Inactive)
REMARK    1  A    between atoms: C_1  and  O_2
REMARK    2  A    between atoms: O_2  and  C_3
REMARK    3  A    between atoms: C_6  and  N_7
REMARK    4  A    between atoms: C_8  and  C_9
REMARK    5  A    between atoms: C_10  and  C_11
REMARK    6  A    between atoms: C_11  and  C_12
REMARK    7  A    between atoms: C_16  and  O_17
REMARK                            x       y       z     vdW  Elec       q    Type
REMARK                         _______ _______ _______ _____ _____    ______ ____
ROOT
ATOM      1  N   UNL     1       4.053   4.868  18.488  0.00  0.00    +0.000 N 
ATOM      2  C   UNL     1       2.792   5.109  17.895  0.00  0.00    +0.000 A 
ATOM      3  C   UNL     1       2.409   3.971  16.939  0.00  0.00    +0.000 C 
ATOM      4  C   UNL     1       2.152   5.651  18.998  0.00  0.00    +0.000 A 
ATOM      5  C   UNL     1       2.282   4.545  19.849  0.00  0.00    +0.000 A 
ATOM      6  C   UNL     1       1.451   4.015  20.838  0.00  0.00    +0.000 A 
ATOM      7  C   UNL     1       1.905   2.935  21.550  0.00  0.00    +0.000 A 
ATOM      8  C   UNL     1       3.205   2.457  21.349  0.00  0.00    +0.000 A 
ATOM      9  C   UNL     1       4.113   3.040  20.408  0.00  0.00    +0.000 A 
ATOM     10  C   UNL     1       3.616   4.075  19.605  0.00  0.00    +0.000 A 
ENDROOT
BRANCH   1  14
ATOM     11  C   UNL     1       6.647   5.061  15.197  0.00  0.00    +0.000 A 
ATOM     12  C   UNL     1       5.569   5.916  15.327  0.00  0.00    +0.000 A 
ATOM     13  C   UNL     1       4.872   5.964  16.525  0.00  0.00    +0.000 A 
ATOM     14  C   UNL     1       5.160   5.088  17.607  0.00  0.00    +0.000 A 
ATOM     15  C   UNL     1       6.316   4.325  17.538  0.00  0.00    +0.000 A 
ATOM     16  C   UNL     1       7.057   4.314  16.314  0.00  0.00    +0.000 A 
BRANCH  11  18
ATOM     17  C   UNL     1       6.631   4.070  13.012  0.00  0.00    +0.000 C 
ATOM     18  O   UNL     1       7.125   5.031  13.921  0.00  0.00    +0.000 OA
ENDBRANCH  11  18
ENDBRANCH   1  14
BRANCH   4  19
ATOM     19  C   UNL     1       1.973   7.016  19.502  0.00  0.00    +0.000 C 
ATOM     20  C   UNL     1       2.200   8.193  18.590  0.00  0.00    +0.000 C 
ATOM     21  O   UNL     1       1.783   7.219  20.705  0.00  0.00    +0.000 OA
ENDBRANCH   4  19
BRANCH   7  22
ATOM     22  O   UNL     1       1.081   2.316  22.447  0.00  0.00    +0.000 OA
ATOM     23  H   UNL     1       0.168   2.557  22.238  0.00  0.00    +0.000 HD
ENDBRANCH   7  22
TORSDOF 4
ENDMDL
MODEL 3
REMARK VINA RESULT:      -7.6      2.274      6.574
REMARK  Name = 
REMARK  7 active torsions:
REMARK  status: ('A' for Active; 'I' for Inactive)
REMARK    1  A    between atoms: C_1  and  O_2
REMARK    2  A    between atoms: O_2  and  C_3
REMARK    3  A    between atoms: C_6  and  N_7
REMARK    4  A    between atoms: C_8  and  C_9
REMARK    5  A    between atoms: C_10  and  C_11
REMARK    6  A    between atoms: C_11  and  C_12
REMARK    7  A    between atoms: C_16  and  O_17
REMARK                            x       y       z     vdW  Elec       q    Type
REMARK                         _______ _______ _______ _____ _____    ______ ____
ROOT
ATOM      1  N   UNL     1       3.356   6.075  18.296  0.00  0.00    +0.000 N 
ATOM      2  C   UNL     1       2.551   4.912  18.293  0.00  0.00    +0.000 A 
ATOM      3  C   UNL     1       1.385   5.055  17.306  0.00  0.00    +0.000 C 
ATOM      4  C   UNL     1       3.561   3.969  18.409  0.00  0.00    +0.000 A 
ATOM      5  C   UNL     1       4.255   4.297  17.237  0.00  0.00    +0.000 A 
ATOM      6  C   UNL     1       4.961   3.523  16.314  0.00  0.00    +0.000 A 
ATOM      7  C   UNL     1       5.593   4.169  15.282  0.00  0.00    +0.000 A 
ATOM      8  C   UNL     1       5.604   5.568  15.230  0.00  0.00    +0.000 A 
ATOM      9  C   UNL     1       4.967   6.389  16.215  0.00  0.00    +0.000 A 
ATOM     10  C   UNL     1       4.232   5.732  17.210  0.00  0.00    +0.000 A 
ENDROOT
BRANCH   1  14
ATOM     11  C   UNL     1       0.763   8.715  20.274  0.00  0.00    +0.000 A 
ATOM     12  C   UNL     1       1.278   7.594  20.897  0.00  0.00    +0.000 A 
ATOM     13  C   UNL     1       2.293   6.874  20.286  0.00  0.00    +0.000 A 
ATOM     14  C   UNL     1       2.767   7.186  18.983  0.00  0.00    +0.000 A 
ATOM     15  C   UNL     1       2.356   8.379  18.408  0.00  0.00    +0.000 A 
ATOM     16  C   UNL     1       1.339   9.141  19.064  0.00  0.00    +0.000 A 
BRANCH  11  18
ATOM     17  C   UNL     1      -0.317   9.261  22.345  0.00  0.00    +0.000 C 
ATOM     18  O   UNL     1      -0.318   9.217  20.934  0.00  0.00    +0.000 OA
ENDBRANCH  11  18
ENDBRANCH   1  14
BRANCH   4  19
ATOM     19  C   UNL     1       4.203   3.302  19.545  0.00  0.00    +0.000 C 
ATOM     20  C   UNL     1       3.364   2.696  20.639  0.00  0.00    +0.000 C 
ATOM     21  O   UNL     1       5.428   3.358  19.691  0.00  0.00    +0.000 OA
ENDBRANCH   4  19
BRANCH   7  22
ATOM     22  O   UNL     1       6.200   3.444  14.296  0.00  0.00    +0.000 OA
ATOM     23  H   UNL     1       7.152   3.613  14.337  0.00  0.00    +0.000 HD
ENDBRANCH   7  22
TORSDOF 4
ENDMDL
MODEL 4
REMARK VINA RESULT:      -7.4      2.219      6.394
REMARK  Name = 
REMARK  7 active torsions:
REMARK  status: ('A' for Active; 'I' for Inactive)
REMARK    1  A    between atoms: C_1  and  O_2
REMARK    2  A    between atoms: O_2  and  C_3
REMARK    3  A    between atoms: C_6  and  N_7
REMARK    4  A    between atoms: C_8  and  C_9
REMARK    5  A    between atoms: C_10  and  C_11
REMARK    6  A    between atoms: C_11  and  C_12
REMARK    7  A    between atoms: C_16  and  O_17
REMARK                            x       y       z     vdW  Elec       q    Type
REMARK                         _______ _______ _______ _____ _____    ______ ____
ROOT
ATOM      1  N   UNL     1       3.010   5.864  18.296  0.00  0.00    +0.000 N 
ATOM      2  C   UNL     1       2.483   4.554  18.229  0.00  0.00    +0.000 A 
ATOM      3  C   UNL     1       1.377   4.461  17.171  0.00  0.00    +0.000 C 
ATOM      4  C   UNL     1       3.668   3.853  18.401  0.00  0.00    +0.000 A 
ATOM      5  C   UNL     1       4.342   4.354  17.279  0.00  0.00    +0.000 A 
ATOM      6  C   UNL     1       5.256   3.777  16.395  0.00  0.00    +0.000 A 
ATOM      7  C   UNL     1       5.791   4.569  15.413  0.00  0.00    +0.000 A 
ATOM      8  C   UNL     1       5.496   5.938  15.376  0.00  0.00    +0.000 A 
ATOM      9  C   UNL     1       4.635   6.576  16.326  0.00  0.00    +0.000 A 
ATOM     10  C   UNL     1       4.004   5.749  17.265  0.00  0.00    +0.000 A 
ENDROOT
BRANCH   1  14
ATOM     11  C   UNL     1       1.336   9.249  20.124  0.00  0.00    +0.000 A 
ATOM     12  C   UNL     1       1.497   9.164  18.754  0.00  0.00    +0.000 A 
ATOM     13  C   UNL     1       1.848   7.953  18.178  0.00  0.00    +0.000 A 
ATOM     14  C   UNL     1       2.150   6.802  18.955  0.00  0.00    +0.000 A 
ATOM     15  C   UNL     1       1.864   6.837  20.311  0.00  0.00    +0.000 A 
ATOM     16  C   UNL     1       1.459   8.080  20.893  0.00  0.00    +0.000 A 
BRANCH  11  18
ATOM     17  C   UNL     1       1.010  11.563  19.580  0.00  0.00    +0.000 C 
ATOM     18  O   UNL     1       1.136  10.533  20.537  0.00  0.00    +0.000 OA
ENDBRANCH  11  18
ENDBRANCH   1  14
BRANCH   4  19
ATOM     19  C   UNL     1       4.371   3.316  19.568  0.00  0.00    +0.000 C 
ATOM     20  C   UNL     1       3.620   2.526  20.607  0.00  0.00    +0.000 C 
ATOM     21  O   UNL     1       5.546   3.627  19.787  0.00  0.00    +0.000 OA
ENDBRANCH   4  19
BRANCH   7  22
ATOM     22  O   UNL     1       6.601   4.020  14.460  0.00  0.00    +0.000 OA
ATOM     23  H   UNL     1       6.269   4.283  13.591  0.00  0.00    +0.000 HD
ENDBRANCH   7  22
TORSDOF 4
ENDMDL
MODEL 5
REMARK VINA RESULT:      -7.3      2.255      3.945
REMARK  Name = 
REMARK  7 active torsions:
REMARK  status: ('A' for Active; 'I' for Inactive)
REMARK    1  A    between atoms: C_1  and  O_2
REMARK    2  A    between atoms: O_2  and  C_3
REMARK    3  A    between atoms: C_6  and  N_7
REMARK    4  A    between atoms: C_8  and  C_9
REMARK    5  A    between atoms: C_10  and  C_11
REMARK    6  A    between atoms: C_11  and  C_12
REMARK    7  A    between atoms: C_16  and  O_17
REMARK                            x       y       z     vdW  Elec       q    Type
REMARK                         _______ _______ _______ _____ _____    ______ ____
ROOT
ATOM      1  N   UNL     1       5.531   4.760  15.944  0.00  0.00    +0.000 N 
ATOM      2  C   UNL     1       5.843   6.000  16.547  0.00  0.00    +0.000 A 
ATOM      3  C   UNL     1       4.864   7.091  16.095  0.00  0.00    +0.000 C 
ATOM      4  C   UNL     1       6.196   5.529  17.802  0.00  0.00    +0.000 A 
ATOM      5  C   UNL     1       4.973   4.926  18.124  0.00  0.00    +0.000 A 
ATOM      6  C   UNL     1       4.282   4.784  19.329  0.00  0.00    +0.000 A 
ATOM      7  C   UNL     1       3.110   4.072  19.319  0.00  0.00    +0.000 A 
ATOM      8  C   UNL     1       2.689   3.428  18.149  0.00  0.00    +0.000 A 
ATOM      9  C   UNL     1       3.426   3.479  16.923  0.00  0.00    +0.000 A 
ATOM     10  C   UNL     1       4.566   4.292  16.902  0.00  0.00    +0.000 A 
ENDROOT
BRANCH   1  14
ATOM     11  C   UNL     1       6.766   3.489  12.141  0.00  0.00    +0.000 A 
ATOM     12  C   UNL     1       5.504   3.210  12.629  0.00  0.00    +0.000 A 
ATOM     13  C   UNL     1       5.064   3.829  13.789  0.00  0.00    +0.000 A 
ATOM     14  C   UNL     1       5.903   4.676  14.563  0.00  0.00    +0.000 A 
ATOM     15  C   UNL     1       7.116   5.067  14.017  0.00  0.00    +0.000 A 
ATOM     16  C   UNL     1       7.546   4.457  12.797  0.00  0.00    +0.000 A 
BRANCH  11  18
ATOM     17  C   UNL     1       6.659   1.349  11.061  0.00  0.00    +0.000 C 
ATOM     18  O   UNL     1       7.094   2.693  11.085  0.00  0.00    +0.000 OA
ENDBRANCH  11  18
ENDBRANCH   1  14
BRANCH   4  19
ATOM     19  C   UNL     1       7.462   5.118  18.415  0.00  0.00    +0.000 C 
ATOM     20  C   UNL     1       7.976   5.829  19.639  0.00  0.00    +0.000 C 
ATOM     21  O   UNL     1       8.189   4.292  17.854  0.00  0.00    +0.000 OA
ENDBRANCH   4  19
BRANCH   7  22
ATOM     22  O   UNL     1       2.346   4.002  20.449  0.00  0.00    +0.000 OA
ATOM     23  H   UNL     1       2.855   3.542  21.132  0.00  0.00    +0.000 HD
ENDBRANCH   7  22
TORSDOF 4
ENDMDL
MODEL 6
REMARK VINA RESULT:      -7.2      5.284      7.985
REMARK  Name = 
REMARK  7 active torsions:
REMARK  status: ('A' for Active; 'I' for Inactive)
REMARK    1  A    between atoms: C_1  and  O_2
REMARK    2  A    between atoms: O_2  and  C_3
REMARK    3  A    between atoms: C_6  and  N_7
REMARK    4  A    between atoms: C_8  and  C_9
REMARK    5  A    between atoms: C_10  and  C_11
REMARK    6  A    between atoms: C_11  and  C_12
REMARK    7  A    between atoms: C_16  and  O_17
REMARK                            x       y       z     vdW  Elec       q    Type
REMARK                         _______ _______ _______ _____ _____    ______ ____
ROOT
ATOM      1  N   UNL     1       0.246   9.965  19.678  0.00  0.00    +0.000 N 
ATOM      2  C   UNL     1       0.657  11.210  20.208  0.00  0.00    +0.000 A 
ATOM      3  C   UNL     1       1.366  12.053  19.140  0.00  0.00    +0.000 C 
ATOM      4  C   UNL     1      -0.447  11.461  21.009  0.00  0.00    +0.000 A 
ATOM      5  C   UNL     1      -1.415  11.459  19.994  0.00  0.00    +0.000 A 
ATOM      6  C   UNL     1      -2.589  12.191  19.814  0.00  0.00    +0.000 A 
ATOM      7  C   UNL     1      -3.366  11.904  18.721  0.00  0.00    +0.000 A 
ATOM      8  C   UNL     1      -3.028  10.837  17.880  0.00  0.00    +0.000 A 
ATOM      9  C   UNL     1      -1.879  10.009  18.094  0.00  0.00    +0.000 A 
ATOM     10  C   UNL     1      -1.027  10.367  19.148  0.00  0.00    +0.000 A 
ENDROOT
BRANCH   1  14
ATOM     11  C   UNL     1       2.683   6.761  18.494  0.00  0.00    +0.000 A 
ATOM     12  C   UNL     1       2.427   7.831  17.658  0.00  0.00    +0.000 A 
ATOM     13  C   UNL     1       1.802   8.961  18.161  0.00  0.00    +0.000 A 
ATOM     14  C   UNL     1       1.317   9.031  19.495  0.00  0.00    +0.000 A 
ATOM     15  C   UNL     1       1.685   8.025  20.375  0.00  0.00    +0.000 A 
ATOM     16  C   UNL     1       2.369   6.879  19.859  0.00  0.00    +0.000 A 
BRANCH  11  18
ATOM     17  C   UNL     1       2.420   4.484  17.787  0.00  0.00    +0.000 C 
ATOM     18  O   UNL     1       3.165   5.683  17.814  0.00  0.00    +0.000 OA
ENDBRANCH  11  18
ENDBRANCH   1  14
BRANCH   4  19
ATOM     19  C   UNL     1      -0.773  11.177  22.409  0.00  0.00    +0.000 C 
ATOM     20  C   UNL     1      -1.878  11.934  23.096  0.00  0.00    +0.000 C 
ATOM     21  O   UNL     1      -0.054  10.428  23.078  0.00  0.00    +0.000 OA
ENDBRANCH   4  19
BRANCH   7  22
ATOM     22  O   UNL     1      -4.463  12.669  18.445  0.00  0.00    +0.000 OA
ATOM     23  H   UNL     1      -4.439  13.451  19.014  0.00  0.00    +0.000 HD
ENDBRANCH   7  22
TORSDOF 4
ENDMDL
MODEL 7
REMARK VINA RESULT:      -7.1      1.731      3.649
REMARK  Name = 
REMARK  7 active torsions:
REMARK  status: ('A' for Active; 'I' for Inactive)
REMARK    1  A    between atoms: C_1  and  O_2
REMARK    2  A    between atoms: O_2  and  C_3
REMARK    3  A    between atoms: C_6  and  N_7
REMARK    4  A    between atoms: C_8  and  C_9
REMARK    5  A    between atoms: C_10  and  C_11
REMARK    6  A    between atoms: C_11  and  C_12
REMARK    7  A    between atoms: C_16  and  O_17
REMARK                            x       y       z     vdW  Elec       q    Type
REMARK                         _______ _______ _______ _____ _____    ______ ____
ROOT
ATOM      1  N   UNL     1       4.361   5.351  17.609  0.00  0.00    +0.000 N 
ATOM      2  C   UNL     1       4.703   4.818  18.873  0.00  0.00    +0.000 A 
ATOM      3  C   UNL     1       5.912   5.551  19.469  0.00  0.00    +0.000 C 
ATOM      4  C   UNL     1       3.420   4.599  19.352  0.00  0.00    +0.000 A 
ATOM      5  C   UNL     1       2.972   5.926  19.291  0.00  0.00    +0.000 A 
ATOM      6  C   UNL     1       2.107   6.665  20.101  0.00  0.00    +0.000 A 
ATOM      7  C   UNL     1       1.819   7.952  19.729  0.00  0.00    +0.000 A 
ATOM      8  C   UNL     1       2.305   8.459  18.517  0.00  0.00    +0.000 A 
ATOM      9  C   UNL     1       3.118   7.693  17.622  0.00  0.00    +0.000 A 
ATOM     10  C   UNL     1       3.501   6.415  18.050  0.00  0.00    +0.000 A 
ENDROOT
BRANCH   1  14
ATOM     11  C   UNL     1       6.067   4.129  13.976  0.00  0.00    +0.000 A 
ATOM     12  C   UNL     1       5.585   5.411  14.160  0.00  0.00    +0.000 A 
ATOM     13  C   UNL     1       5.232   5.835  15.433  0.00  0.00    +0.000 A 
ATOM     14  C   UNL     1       5.253   4.964  16.556  0.00  0.00    +0.000 A 
ATOM     15  C   UNL     1       5.858   3.725  16.410  0.00  0.00    +0.000 A 
ATOM     16  C   UNL     1       6.260   3.310  15.102  0.00  0.00    +0.000 A 
BRANCH  11  18
ATOM     17  C   UNL     1       5.156   3.250  11.938  0.00  0.00    +0.000 C 
ATOM     18  O   UNL     1       6.226   3.827  12.656  0.00  0.00    +0.000 OA
ENDBRANCH  11  18
ENDBRANCH   1  14
BRANCH   4  19
ATOM     19  C   UNL     1       2.504   3.456  19.319  0.00  0.00    +0.000 C 
ATOM     20  C   UNL     1       1.426   3.381  18.270  0.00  0.00    +0.000 C 
ATOM     21  O   UNL     1       2.511   2.624  20.231  0.00  0.00    +0.000 OA
ENDBRANCH   4  19
BRANCH   7  22
ATOM     22  O   UNL     1       1.068   8.746  20.548  0.00  0.00    +0.000 OA
ATOM     23  H   UNL     1       1.066   8.354  21.432  0.00  0.00    +0.000 HD
ENDBRANCH   7  22
TORSDOF 4
ENDMDL
MODEL 8
REMARK VINA RESULT:      -7.1      1.375      3.337
REMARK  Name = 
REMARK  7 active torsions:
REMARK  status: ('A' for Active; 'I' for Inactive)
REMARK    1  A    between atoms: C_1  and  O_2
REMARK    2  A    between atoms: O_2  and  C_3
REMARK    3  A    between atoms: C_6  and  N_7
REMARK    4  A    between atoms: C_8  and  C_9
REMARK    5  A    between atoms: C_10  and  C_11
REMARK    6  A    between atoms: C_11  and  C_12
REMARK    7  A    between atoms: C_16  and  O_17
REMARK                            x       y       z     vdW  Elec       q    Type
REMARK                         _______ _______ _______ _____ _____    ______ ____
ROOT
ATOM      1  N   UNL     1       4.516   4.910  17.727  0.00  0.00    +0.000 N 
ATOM      2  C   UNL     1       4.889   4.372  18.981  0.00  0.00    +0.000 A 
ATOM      3  C   UNL     1       6.085   5.131  19.570  0.00  0.00    +0.000 C 
ATOM      4  C   UNL     1       3.619   4.112  19.473  0.00  0.00    +0.000 A 
ATOM      5  C   UNL     1       3.134   5.426  19.434  0.00  0.00    +0.000 A 
ATOM      6  C   UNL     1       2.259   6.131  20.263  0.00  0.00    +0.000 A 
ATOM      7  C   UNL     1       1.930   7.414  19.911  0.00  0.00    +0.000 A 
ATOM      8  C   UNL     1       2.387   7.949  18.700  0.00  0.00    +0.000 A 
ATOM      9  C   UNL     1       3.209   7.216  17.785  0.00  0.00    +0.000 A 
ATOM     10  C   UNL     1       3.632   5.944  18.192  0.00  0.00    +0.000 A 
ENDROOT
BRANCH   1  14
ATOM     11  C   UNL     1       6.906   4.879  14.279  0.00  0.00    +0.000 A 
ATOM     12  C   UNL     1       7.287   5.551  15.425  0.00  0.00    +0.000 A 
ATOM     13  C   UNL     1       6.581   5.356  16.602  0.00  0.00    +0.000 A 
ATOM     14  C   UNL     1       5.404   4.561  16.659  0.00  0.00    +0.000 A 
ATOM     15  C   UNL     1       5.091   3.780  15.556  0.00  0.00    +0.000 A 
ATOM     16  C   UNL     1       5.852   3.953  14.357  0.00  0.00    +0.000 A 
BRANCH  11  18
ATOM     17  C   UNL     1       7.411   4.646  11.945  0.00  0.00    +0.000 C 
ATOM     18  O   UNL     1       7.608   5.291  13.186  0.00  0.00    +0.000 OA
ENDBRANCH  11  18
ENDBRANCH   1  14
BRANCH   4  19
ATOM     19  C   UNL     1       2.735   2.944  19.438  0.00  0.00    +0.000 C 
ATOM     20  C   UNL     1       2.453   2.248  18.133  0.00  0.00    +0.000 C 
ATOM     21  O   UNL     1       2.100   2.611  20.443  0.00  0.00    +0.000 OA
ENDBRANCH   4  19
BRANCH   7  22
ATOM     22  O   UNL     1       1.169   8.177  20.749  0.00  0.00    +0.000 OA
ATOM     23  H   UNL     1       0.285   8.260  20.366  0.00  0.00    +0.000 HD
ENDBRANCH   7  22
TORSDOF 4
ENDMDL
MODEL 9
REMARK VINA RESULT:      -7.1      2.291      6.619
REMARK  Name = 
REMARK  7 active torsions:
REMARK  status: ('A' for Active; 'I' for Inactive)
REMARK    1  A    between atoms: C_1  and  O_2
REMARK    2  A    between atoms: O_2  and  C_3
REMARK    3  A    between atoms: C_6  and  N_7
REMARK    4  A    between atoms: C_8  and  C_9
REMARK    5  A    between atoms: C_10  and  C_11
REMARK    6  A    between atoms: C_11  and  C_12
REMARK    7  A    between atoms: C_16  and  O_17
REMARK                            x       y       z     vdW  Elec       q    Type
REMARK                         _______ _______ _______ _____ _____    ______ ____
ROOT
ATOM      1  N   UNL     1       4.403   5.771  18.074  0.00  0.00    +0.000 N 
ATOM      2  C   UNL     1       4.976   4.647  18.712  0.00  0.00    +0.000 A 
ATOM      3  C   UNL     1       4.156   3.381  18.432  0.00  0.00    +0.000 C 
ATOM      4  C   UNL     1       6.311   4.956  18.500  0.00  0.00    +0.000 A 
ATOM      5  C   UNL     1       6.276   4.977  17.099  0.00  0.00    +0.000 A 
ATOM      6  C   UNL     1       7.208   4.605  16.129  0.00  0.00    +0.000 A 
ATOM      7  C   UNL     1       6.885   4.810  14.813  0.00  0.00    +0.000 A 
ATOM      8  C   UNL     1       5.695   5.466  14.475  0.00  0.00    +0.000 A 
ATOM      9  C   UNL     1       4.763   5.942  15.453  0.00  0.00    +0.000 A 
ATOM     10  C   UNL     1       5.040   5.640  16.793  0.00  0.00    +0.000 A 
ENDROOT
BRANCH   1  14
ATOM     11  C   UNL     1       1.575   8.027  20.200  0.00  0.00    +0.000 A 
ATOM     12  C   UNL     1       1.970   8.370  18.921  0.00  0.00    +0.000 A 
ATOM     13  C   UNL     1       2.734   7.485  18.178  0.00  0.00    +0.000 A 
ATOM     14  C   UNL     1       3.220   6.263  18.717  0.00  0.00    +0.000 A 
ATOM     15  C   UNL     1       2.723   5.848  19.944  0.00  0.00    +0.000 A 
ATOM     16  C   UNL     1       1.898   6.749  20.688  0.00  0.00    +0.000 A 
BRANCH  11  18
ATOM     17  C   UNL     1       1.110   9.206  22.237  0.00  0.00    +0.000 C 
ATOM     18  O   UNL     1       0.959   9.061  20.841  0.00  0.00    +0.000 OA
ENDBRANCH  11  18
ENDBRANCH   1  14
BRANCH   4  19
ATOM     19  C   UNL     1       7.321   5.683  19.274  0.00  0.00    +0.000 C 
ATOM     20  C   UNL     1       8.044   6.854  18.661  0.00  0.00    +0.000 C 
ATOM     21  O   UNL     1       7.694   5.257  20.371  0.00  0.00    +0.000 OA
ENDBRANCH   4  19
BRANCH   7  22
ATOM     22  O   UNL     1       7.718   4.360  13.828  0.00  0.00    +0.000 OA
ATOM     23  H   UNL     1       7.734   3.393  13.863  0.00  0.00    +0.000 HD
ENDBRANCH   7  22
TORSDOF 4
ENDMDL
