MODEL 1
REMARK VINA RESULT:      -7.6      0.000      0.000
REMARK  Name = 
REMARK  12 active torsions:
REMARK  status: ('A' for Active; 'I' for Inactive)
REMARK    1  A    between atoms: C_1  and  O_2
REMARK    2  A    between atoms: O_2  and  C_3
REMARK    3  A    between atoms: C_6  and  C_7
REMARK    4  A    between atoms: N_9  and  C_10
REMARK    5  A    between atoms: C_10  and  C_11
REMARK    6  A    between atoms: C_11  and  C_12
REMARK    7  A    between atoms: C_15  and  O_16
REMARK    8  A    between atoms: O_16  and  C_17
REMARK    9  A    between atoms: C_18  and  O_19
REMARK   10  A    between atoms: O_19  and  C_20
REMARK   11  A    between atoms: C_26  and  O_27
REMARK   12  A    between atoms: O_27  and  C_28
REMARK                            x       y       z     vdW  Elec       q    Type
REMARK                         _______ _______ _______ _____ _____    ______ ____
ROOT
ATOM      1  C   UNL     1       2.899   5.295  20.622  0.00  0.00    +0.000 C 
ENDROOT
BRANCH   1   2
ATOM      2  C   UNL     1       2.769   4.173  19.553  0.00  0.00    +0.000 C 
ATOM      3  C   UNL     1       2.831   2.782  20.236  0.00  0.00    +0.000 C 
ATOM      4  C   UNL     1       2.176   1.832  19.237  0.00  0.00    +0.000 C 
ATOM      5  C   UNL     1       1.143   2.672  18.492  0.00  0.00    +0.000 C 
ATOM      6  C   UNL     1       1.324   4.106  18.997  0.00  0.00    +0.000 C 
BRANCH   2   7
ATOM      7  C   UNL     1       3.879   4.294  18.489  0.00  0.00    +0.000 A 
ATOM      8  C   UNL     1       3.639   4.180  17.117  0.00  0.00    +0.000 A 
ATOM      9  C   UNL     1       4.692   4.206  16.200  0.00  0.00    +0.000 A 
ATOM     10  C   UNL     1       6.014   4.373  16.622  0.00  0.00    +0.000 A 
ATOM     11  C   UNL     1       6.288   4.515  17.989  0.00  0.00    +0.000 A 
ATOM     12  C   UNL     1       5.216   4.492  18.898  0.00  0.00    +0.000 A 
BRANCH  10  13
ATOM     13  O   UNL     1       6.918   4.306  15.592  0.00  0.00    +0.000 OA
ATOM     14  C   UNL     1       6.388   4.057  14.296  0.00  0.00    +0.000 C 
ENDBRANCH  10  13
BRANCH  11  15
ATOM     15  O   UNL     1       7.599   4.620  18.377  0.00  0.00    +0.000 OA
ATOM     16  C   UNL     1       7.955   5.682  19.249  0.00  0.00    +0.000 C 
ENDBRANCH  11  15
ENDBRANCH   2   7
ENDBRANCH   1   2
BRANCH   1  19
ATOM     17  C   UNL     1       2.379   7.442  19.465  0.00  0.00    +0.000 C 
ATOM     18  O   UNL     1       3.433   7.446  18.843  0.00  0.00    +0.000 OA
ATOM     19  N   UNL     1       2.037   6.435  20.354  0.00  0.00    +0.000 N 
ATOM     20  H   UNL     1       1.140   6.458  20.812  0.00  0.00    +0.000 HD
BRANCH  17  24
ATOM     21  C   UNL     1      -0.484  10.642  18.992  0.00  0.00    +0.000 A 
ATOM     22  C   UNL     1       0.084  10.021  17.884  0.00  0.00    +0.000 A 
ATOM     23  C   UNL     1       0.995   8.977  18.050  0.00  0.00    +0.000 A 
ATOM     24  C   UNL     1       1.374   8.550  19.337  0.00  0.00    +0.000 A 
ATOM     25  C   UNL     1       0.784   9.160  20.464  0.00  0.00    +0.000 A 
ATOM     26  C   UNL     1      -0.133  10.210  20.272  0.00  0.00    +0.000 A 
BRANCH  21  28
ATOM     27  C   UNL     1      -0.830  12.944  18.496  0.00  0.00    +0.000 C 
ATOM     28  O   UNL     1      -1.369  11.642  18.698  0.00  0.00    +0.000 OA
ENDBRANCH  21  28
BRANCH  25  29
ATOM     29  O   UNL     1       1.155   8.713  21.705  0.00  0.00    +0.000 OA
ATOM     30  C   UNL     1       0.634   9.391  22.843  0.00  0.00    +0.000 C 
ENDBRANCH  25  29
ENDBRANCH  17  24
ENDBRANCH   1  19
TORSDOF 8
ENDMDL
MODEL 2
REMARK VINA RESULT:      -7.5      1.492      1.527
REMARK  Name = 
REMARK  12 active torsions:
REMARK  status: ('A' for Active; 'I' for Inactive)
REMARK    1  A    between atoms: C_1  and  O_2
REMARK    2  A    between atoms: O_2  and  C_3
REMARK    3  A    between atoms: C_6  and  C_7
REMARK    4  A    between atoms: N_9  and  C_10
REMARK    5  A    between atoms: C_10  and  C_11
REMARK    6  A    between atoms: C_11  and  C_12
REMARK    7  A    between atoms: C_15  and  O_16
REMARK    8  A    between atoms: O_16  and  C_17
REMARK    9  A    between atoms: C_18  and  O_19
REMARK   10  A    between atoms: O_19  and  C_20
REMARK   11  A    between atoms: C_26  and  O_27
REMARK   12  A    between atoms: O_27  and  C_28
REMARK                            x       y       z     vdW  Elec       q    Type
REMARK                         _______ _______ _______ _____ _____    ______ ____
ROOT
ATOM      1  C   UNL     1       2.311   5.530  20.946  0.00  0.00    +0.000 C 
ENDROOT
BRANCH   1   2
ATOM      2  C   UNL     1       2.529   4.513  19.790  0.00  0.00    +0.000 C 
ATOM      3  C   UNL     1       2.840   3.110  20.373  0.00  0.00    +0.000 C 
ATOM      4  C   UNL     1       2.503   2.140  19.243  0.00  0.00    +0.000 C 
ATOM      5  C   UNL     1       1.377   2.806  18.456  0.00  0.00    +0.000 C 
ATOM      6  C   UNL     1       1.190   4.190  19.081  0.00  0.00    +0.000 C 
BRANCH   2   7
ATOM      7  C   UNL     1       3.672   4.970  18.862  0.00  0.00    +0.000 A 
ATOM      8  C   UNL     1       3.454   5.564  17.615  0.00  0.00    +0.000 A 
ATOM      9  C   UNL     1       4.523   5.876  16.772  0.00  0.00    +0.000 A 
ATOM     10  C   UNL     1       5.843   5.630  17.158  0.00  0.00    +0.000 A 
ATOM     11  C   UNL     1       6.099   5.058  18.412  0.00  0.00    +0.000 A 
ATOM     12  C   UNL     1       5.012   4.755  19.250  0.00  0.00    +0.000 A 
BRANCH  10  13
ATOM     13  O   UNL     1       6.754   5.937  16.180  0.00  0.00    +0.000 OA
ATOM     14  C   UNL     1       6.956   4.957  15.168  0.00  0.00    +0.000 C 
ENDBRANCH  10  13
BRANCH  11  15
ATOM     15  O   UNL     1       7.401   4.775  18.739  0.00  0.00    +0.000 OA
ATOM     16  C   UNL     1       8.155   5.775  19.407  0.00  0.00    +0.000 C 
ENDBRANCH  11  15
ENDBRANCH   2   7
ENDBRANCH   1   2
BRANCH   1  19
ATOM     17  C   UNL     1       1.140   7.728  20.824  0.00  0.00    +0.000 C 
ATOM     18  O   UNL     1       0.221   7.360  21.544  0.00  0.00    +0.000 OA
ATOM     19  N   UNL     1       2.198   6.903  20.480  0.00  0.00    +0.000 N 
ATOM     20  H   UNL     1       2.950   7.266  19.916  0.00  0.00    +0.000 HD
BRANCH  17  24
ATOM     21  C   UNL     1       1.307  11.648  19.016  0.00  0.00    +0.000 A 
ATOM     22  C   UNL     1       1.502  10.500  18.255  0.00  0.00    +0.000 A 
ATOM     23  C   UNL     1       1.429   9.239  18.847  0.00  0.00    +0.000 A 
ATOM     24  C   UNL     1       1.182   9.106  20.227  0.00  0.00    +0.000 A 
ATOM     25  C   UNL     1       0.960  10.264  20.999  0.00  0.00    +0.000 A 
ATOM     26  C   UNL     1       1.037  11.525  20.380  0.00  0.00    +0.000 A 
BRANCH  21  28
ATOM     27  C   UNL     1       0.743  13.956  18.880  0.00  0.00    +0.000 C 
ATOM     28  O   UNL     1       1.392  12.821  18.318  0.00  0.00    +0.000 OA
ENDBRANCH  21  28
BRANCH  25  29
ATOM     29  O   UNL     1       0.702  10.107  22.336  0.00  0.00    +0.000 OA
ATOM     30  C   UNL     1      -0.580  10.492  22.820  0.00  0.00    +0.000 C 
ENDBRANCH  25  29
ENDBRANCH  17  24
ENDBRANCH   1  19
TORSDOF 8
ENDMDL
MODEL 3
REMARK VINA RESULT:      -7.4      1.374      1.433
REMARK  Name = 
REMARK  12 active torsions:
REMARK  status: ('A' for Active; 'I' for Inactive)
REMARK    1  A    between atoms: C_1  and  O_2
REMARK    2  A    between atoms: O_2  and  C_3
REMARK    3  A    between atoms: C_6  and  C_7
REMARK    4  A    between atoms: N_9  and  C_10
REMARK    5  A    between atoms: C_10  and  C_11
REMARK    6  A    between atoms: C_11  and  C_12
REMARK    7  A    between atoms: C_15  and  O_16
REMARK    8  A    between atoms: O_16  and  C_17
REMARK    9  A    between atoms: C_18  and  O_19
REMARK   10  A    between atoms: O_19  and  C_20
REMARK   11  A    between atoms: C_26  and  O_27
REMARK   12  A    between atoms: O_27  and  C_28
REMARK                            x       y       z     vdW  Elec       q    Type
REMARK                         _______ _______ _______ _____ _____    ______ ____
ROOT
ATOM      1  C   UNL     1       3.549   4.697  20.240  0.00  0.00    +0.000 C 
ENDROOT
BRANCH   1   2
ATOM      2  C   UNL     1       3.622   3.764  18.999  0.00  0.00    +0.000 C 
ATOM      3  C   UNL     1       4.058   2.340  19.433  0.00  0.00    +0.000 C 
ATOM      4  C   UNL     1       3.586   1.431  18.302  0.00  0.00    +0.000 C 
ATOM      5  C   UNL     1       2.337   2.098  17.735  0.00  0.00    +0.000 C 
ATOM      6  C   UNL     1       2.202   3.433  18.473  0.00  0.00    +0.000 C 
BRANCH   2   7
ATOM      7  C   UNL     1       4.600   4.322  17.945  0.00  0.00    +0.000 A 
ATOM      8  C   UNL     1       4.394   4.198  16.568  0.00  0.00    +0.000 A 
ATOM      9  C   UNL     1       5.355   4.640  15.657  0.00  0.00    +0.000 A 
ATOM     10  C   UNL     1       6.539   5.245  16.090  0.00  0.00    +0.000 A 
ATOM     11  C   UNL     1       6.766   5.408  17.464  0.00  0.00    +0.000 A 
ATOM     12  C   UNL     1       5.786   4.962  18.367  0.00  0.00    +0.000 A 
BRANCH  10  13
ATOM     13  O   UNL     1       7.392   5.554  15.061  0.00  0.00    +0.000 OA
ATOM     14  C   UNL     1       7.203   4.841  13.844  0.00  0.00    +0.000 C 
ENDBRANCH  10  13
BRANCH  11  15
ATOM     15  O   UNL     1       7.960   5.953  17.860  0.00  0.00    +0.000 OA
ATOM     16  C   UNL     1       7.997   7.341  18.156  0.00  0.00    +0.000 C 
ENDBRANCH  11  15
ENDBRANCH   2   7
ENDBRANCH   1   2
BRANCH   1  19
ATOM     17  C   UNL     1       1.898   6.567  20.243  0.00  0.00    +0.000 C 
ATOM     18  O   UNL     1       1.053   5.916  20.843  0.00  0.00    +0.000 OA
ATOM     19  N   UNL     1       3.141   6.053  19.907  0.00  0.00    +0.000 N 
ATOM     20  H   UNL     1       3.816   6.642  19.447  0.00  0.00    +0.000 HD
BRANCH  17  24
ATOM     21  C   UNL     1       1.247  10.610  18.867  0.00  0.00    +0.000 A 
ATOM     22  C   UNL     1       1.883   9.673  18.060  0.00  0.00    +0.000 A 
ATOM     23  C   UNL     1       2.073   8.366  18.509  0.00  0.00    +0.000 A 
ATOM     24  C   UNL     1       1.647   7.978  19.793  0.00  0.00    +0.000 A 
ATOM     25  C   UNL     1       0.980   8.916  20.608  0.00  0.00    +0.000 A 
ATOM     26  C   UNL     1       0.799  10.228  20.133  0.00  0.00    +0.000 A 
BRANCH  21  28
ATOM     27  C   UNL     1      -0.045  12.599  18.671  0.00  0.00    +0.000 C 
ATOM     28  O   UNL     1       1.111  11.851  18.310  0.00  0.00    +0.000 OA
ENDBRANCH  21  28
BRANCH  25  29
ATOM     29  O   UNL     1       0.558   8.508  21.846  0.00  0.00    +0.000 OA
ATOM     30  C   UNL     1       0.477   9.483  22.880  0.00  0.00    +0.000 C 
ENDBRANCH  25  29
ENDBRANCH  17  24
ENDBRANCH   1  19
TORSDOF 8
ENDMDL
MODEL 4
REMARK VINA RESULT:      -7.3      1.241      1.350
REMARK  Name = 
REMARK  12 active torsions:
REMARK  status: ('A' for Active; 'I' for Inactive)
REMARK    1  A    between atoms: C_1  and  O_2
REMARK    2  A    between atoms: O_2  and  C_3
REMARK    3  A    between atoms: C_6  and  C_7
REMARK    4  A    between atoms: N_9  and  C_10
REMARK    5  A    between atoms: C_10  and  C_11
REMARK    6  A    between atoms: C_11  and  C_12
REMARK    7  A    between atoms: C_15  and  O_16
REMARK    8  A    between atoms: O_16  and  C_17
REMARK    9  A    between atoms: C_18  and  O_19
REMARK   10  A    between atoms: O_19  and  C_20
REMARK   11  A    between atoms: C_26  and  O_27
REMARK   12  A    between atoms: O_27  and  C_28
REMARK                            x       y       z     vdW  Elec       q    Type
REMARK                         _______ _______ _______ _____ _____    ______ ____
ROOT
ATOM      1  C   UNL     1       3.753   5.735  19.596  0.00  0.00    +0.000 C 
ENDROOT
BRANCH   1   2
ATOM      2  C   UNL     1       3.597   4.649  18.494  0.00  0.00    +0.000 C 
ATOM      3  C   UNL     1       3.735   3.237  19.119  0.00  0.00    +0.000 C 
ATOM      4  C   UNL     1       3.053   2.305  18.121  0.00  0.00    +0.000 C 
ATOM      5  C   UNL     1       1.957   3.140  17.465  0.00  0.00    +0.000 C 
ATOM      6  C   UNL     1       2.126   4.560  18.013  0.00  0.00    +0.000 C 
BRANCH   2   7
ATOM      7  C   UNL     1       4.643   4.842  17.377  0.00  0.00    +0.000 A 
ATOM      8  C   UNL     1       4.695   4.043  16.231  0.00  0.00    +0.000 A 
ATOM      9  C   UNL     1       5.718   4.199  15.294  0.00  0.00    +0.000 A 
ATOM     10  C   UNL     1       6.705   5.175  15.457  0.00  0.00    +0.000 A 
ATOM     11  C   UNL     1       6.668   6.011  16.581  0.00  0.00    +0.000 A 
ATOM     12  C   UNL     1       5.629   5.843  17.513  0.00  0.00    +0.000 A 
BRANCH  10  13
ATOM     13  O   UNL     1       7.663   5.139  14.475  0.00  0.00    +0.000 OA
ATOM     14  C   UNL     1       7.229   4.745  13.179  0.00  0.00    +0.000 C 
ENDBRANCH  10  13
BRANCH  11  15
ATOM     15  O   UNL     1       7.681   6.921  16.743  0.00  0.00    +0.000 OA
ATOM     16  C   UNL     1       7.916   7.437  18.045  0.00  0.00    +0.000 C 
ENDBRANCH  11  15
ENDBRANCH   2   7
ENDBRANCH   1   2
BRANCH   1  19
ATOM     17  C   UNL     1       2.620   7.801  18.780  0.00  0.00    +0.000 C 
ATOM     18  O   UNL     1       3.509   8.058  17.978  0.00  0.00    +0.000 OA
ATOM     19  N   UNL     1       2.658   6.691  19.609  0.00  0.00    +0.000 N 
ATOM     20  H   UNL     1       1.883   6.502  20.225  0.00  0.00    +0.000 HD
BRANCH  17  24
ATOM     21  C   UNL     1      -0.819  10.385  19.175  0.00  0.00    +0.000 A 
ATOM     22  C   UNL     1      -0.309  10.059  17.922  0.00  0.00    +0.000 A 
ATOM     23  C   UNL     1       0.792   9.210  17.807  0.00  0.00    +0.000 A 
ATOM     24  C   UNL     1       1.421   8.688  18.953  0.00  0.00    +0.000 A 
ATOM     25  C   UNL     1       0.895   8.996  20.225  0.00  0.00    +0.000 A 
ATOM     26  C   UNL     1      -0.217   9.854  20.316  0.00  0.00    +0.000 A 
BRANCH  21  28
ATOM     27  C   UNL     1      -1.650  12.610  19.031  0.00  0.00    +0.000 C 
ATOM     28  O   UNL     1      -1.906  11.215  19.154  0.00  0.00    +0.000 OA
ENDBRANCH  21  28
BRANCH  25  29
ATOM     29  O   UNL     1       1.513   8.460  21.324  0.00  0.00    +0.000 OA
ATOM     30  C   UNL     1       1.386   9.146  22.564  0.00  0.00    +0.000 C 
ENDBRANCH  25  29
ENDBRANCH  17  24
ENDBRANCH   1  19
TORSDOF 8
ENDMDL
MODEL 5
REMARK VINA RESULT:      -7.2      2.285      4.404
REMARK  Name = 
REMARK  12 active torsions:
REMARK  status: ('A' for Active; 'I' for Inactive)
REMARK    1  A    between atoms: C_1  and  O_2
REMARK    2  A    between atoms: O_2  and  C_3
REMARK    3  A    between atoms: C_6  and  C_7
REMARK    4  A    between atoms: N_9  and  C_10
REMARK    5  A    between atoms: C_10  and  C_11
REMARK    6  A    between atoms: C_11  and  C_12
REMARK    7  A    between atoms: C_15  and  O_16
REMARK    8  A    between atoms: O_16  and  C_17
REMARK    9  A    between atoms: C_18  and  O_19
REMARK   10  A    between atoms: O_19  and  C_20
REMARK   11  A    between atoms: C_26  and  O_27
REMARK   12  A    between atoms: O_27  and  C_28
REMARK                            x       y       z     vdW  Elec       q    Type
REMARK                         _______ _______ _______ _____ _____    ______ ____
ROOT
ATOM      1  C   UNL     1       4.516   6.955  16.745  0.00  0.00    +0.000 C 
ENDROOT
BRANCH   1   2
ATOM      2  C   UNL     1       5.396   5.794  17.291  0.00  0.00    +0.000 C 
ATOM      3  C   UNL     1       6.387   5.322  16.195  0.00  0.00    +0.000 C 
ATOM      4  C   UNL     1       7.502   4.616  16.962  0.00  0.00    +0.000 C 
ATOM      5  C   UNL     1       7.575   5.318  18.315  0.00  0.00    +0.000 C 
ATOM      6  C   UNL     1       6.417   6.319  18.331  0.00  0.00    +0.000 C 
BRANCH   2   7
ATOM      7  C   UNL     1       4.523   4.615  17.763  0.00  0.00    +0.000 A 
ATOM      8  C   UNL     1       3.874   3.743  16.883  0.00  0.00    +0.000 A 
ATOM      9  C   UNL     1       3.021   2.746  17.361  0.00  0.00    +0.000 A 
ATOM     10  C   UNL     1       2.808   2.571  18.731  0.00  0.00    +0.000 A 
ATOM     11  C   UNL     1       3.462   3.412  19.642  0.00  0.00    +0.000 A 
ATOM     12  C   UNL     1       4.322   4.407  19.145  0.00  0.00    +0.000 A 
BRANCH  10  13
ATOM     13  O   UNL     1       1.891   1.591  19.012  0.00  0.00    +0.000 OA
ATOM     14  C   UNL     1       0.519   1.959  18.921  0.00  0.00    +0.000 C 
ENDBRANCH  10  13
BRANCH  11  15
ATOM     15  O   UNL     1       3.191   3.254  20.977  0.00  0.00    +0.000 OA
ATOM     16  C   UNL     1       2.132   4.013  21.540  0.00  0.00    +0.000 C 
ENDBRANCH  11  15
ENDBRANCH   2   7
ENDBRANCH   1   2
BRANCH   1  19
ATOM     17  C   UNL     1       2.512   7.399  18.160  0.00  0.00    +0.000 C 
ATOM     18  O   UNL     1       1.847   6.524  17.622  0.00  0.00    +0.000 OA
ATOM     19  N   UNL     1       3.819   7.679  17.795  0.00  0.00    +0.000 N 
ATOM     20  H   UNL     1       4.337   8.384  18.296  0.00  0.00    +0.000 HD
BRANCH  17  24
ATOM     21  C   UNL     1       0.876   9.812  21.349  0.00  0.00    +0.000 A 
ATOM     22  C   UNL     1       1.164   8.465  21.546  0.00  0.00    +0.000 A 
ATOM     23  C   UNL     1       1.708   7.701  20.514  0.00  0.00    +0.000 A 
ATOM     24  C   UNL     1       1.952   8.269  19.249  0.00  0.00    +0.000 A 
ATOM     25  C   UNL     1       1.684   9.639  19.049  0.00  0.00    +0.000 A 
ATOM     26  C   UNL     1       1.137  10.391  20.106  0.00  0.00    +0.000 A 
BRANCH  21  28
ATOM     27  C   UNL     1      -0.662   9.776  23.164  0.00  0.00    +0.000 C 
ATOM     28  O   UNL     1       0.358  10.454  22.440  0.00  0.00    +0.000 OA
ENDBRANCH  21  28
BRANCH  25  29
ATOM     29  O   UNL     1       1.949  10.174  17.816  0.00  0.00    +0.000 OA
ATOM     30  C   UNL     1       2.444  11.507  17.756  0.00  0.00    +0.000 C 
ENDBRANCH  25  29
ENDBRANCH  17  24
ENDBRANCH   1  19
TORSDOF 8
ENDMDL
MODEL 6
REMARK VINA RESULT:      -7.2      0.972      1.065
REMARK  Name = 
REMARK  12 active torsions:
REMARK  status: ('A' for Active; 'I' for Inactive)
REMARK    1  A    between atoms: C_1  and  O_2
REMARK    2  A    between atoms: O_2  and  C_3
REMARK    3  A    between atoms: C_6  and  C_7
REMARK    4  A    between atoms: N_9  and  C_10
REMARK    5  A    between atoms: C_10  and  C_11
REMARK    6  A    between atoms: C_11  and  C_12
REMARK    7  A    between atoms: C_15  and  O_16
REMARK    8  A    between atoms: O_16  and  C_17
REMARK    9  A    between atoms: C_18  and  O_19
REMARK   10  A    between atoms: O_19  and  C_20
REMARK   11  A    between atoms: C_26  and  O_27
REMARK   12  A    between atoms: O_27  and  C_28
REMARK                            x       y       z     vdW  Elec       q    Type
REMARK                         _______ _______ _______ _____ _____    ______ ____
ROOT
ATOM      1  C   UNL     1       2.823   5.671  20.339  0.00  0.00    +0.000 C 
ENDROOT
BRANCH   1   2
ATOM      2  C   UNL     1       2.855   4.472  19.349  0.00  0.00    +0.000 C 
ATOM      3  C   UNL     1       2.917   3.138  20.136  0.00  0.00    +0.000 C 
ATOM      4  C   UNL     1       2.412   2.086  19.152  0.00  0.00    +0.000 C 
ATOM      5  C   UNL     1       1.419   2.813  18.251  0.00  0.00    +0.000 C 
ATOM      6  C   UNL     1       1.478   4.286  18.663  0.00  0.00    +0.000 C 
BRANCH   2   7
ATOM      7  C   UNL     1       4.058   4.582  18.390  0.00  0.00    +0.000 A 
ATOM      8  C   UNL     1       3.933   4.538  16.998  0.00  0.00    +0.000 A 
ATOM      9  C   UNL     1       5.062   4.549  16.176  0.00  0.00    +0.000 A 
ATOM     10  C   UNL     1       6.349   4.631  16.716  0.00  0.00    +0.000 A 
ATOM     11  C   UNL     1       6.509   4.703  18.107  0.00  0.00    +0.000 A 
ATOM     12  C   UNL     1       5.362   4.696  18.919  0.00  0.00    +0.000 A 
BRANCH  10  13
ATOM     13  O   UNL     1       7.335   4.562  15.765  0.00  0.00    +0.000 OA
ATOM     14  C   UNL     1       6.942   4.821  14.422  0.00  0.00    +0.000 C 
ENDBRANCH  10  13
BRANCH  11  15
ATOM     15  O   UNL     1       7.784   4.726  18.610  0.00  0.00    +0.000 OA
ATOM     16  C   UNL     1       8.148   5.800  19.462  0.00  0.00    +0.000 C 
ENDBRANCH  11  15
ENDBRANCH   2   7
ENDBRANCH   1   2
BRANCH   1  19
ATOM     17  C   UNL     1       1.708   7.882  20.640  0.00  0.00    +0.000 C 
ATOM     18  O   UNL     1       2.067   7.986  21.805  0.00  0.00    +0.000 OA
ATOM     19  N   UNL     1       2.028   6.787  19.852  0.00  0.00    +0.000 N 
ATOM     20  H   UNL     1       1.742   6.767  18.886  0.00  0.00    +0.000 HD
BRANCH  17  24
ATOM     21  C   UNL     1      -0.659  10.890  18.637  0.00  0.00    +0.000 A 
ATOM     22  C   UNL     1       0.393  10.256  17.985  0.00  0.00    +0.000 A 
ATOM     23  C   UNL     1       1.140   9.274  18.636  0.00  0.00    +0.000 A 
ATOM     24  C   UNL     1       0.859   8.925  19.971  0.00  0.00    +0.000 A 
ATOM     25  C   UNL     1      -0.221   9.546  20.631  0.00  0.00    +0.000 A 
ATOM     26  C   UNL     1      -0.961  10.532  19.953  0.00  0.00    +0.000 A 
BRANCH  21  28
ATOM     27  C   UNL     1      -2.394  11.360  17.078  0.00  0.00    +0.000 C 
ATOM     28  O   UNL     1      -1.321  11.824  17.889  0.00  0.00    +0.000 OA
ENDBRANCH  21  28
BRANCH  25  29
ATOM     29  O   UNL     1      -0.487   9.174  21.922  0.00  0.00    +0.000 OA
ATOM     30  C   UNL     1      -0.506  10.188  22.921  0.00  0.00    +0.000 C 
ENDBRANCH  25  29
ENDBRANCH  17  24
ENDBRANCH   1  19
TORSDOF 8
ENDMDL
MODEL 7
REMARK VINA RESULT:      -7.2      1.601      2.403
REMARK  Name = 
REMARK  12 active torsions:
REMARK  status: ('A' for Active; 'I' for Inactive)
REMARK    1  A    between atoms: C_1  and  O_2
REMARK    2  A    between atoms: O_2  and  C_3
REMARK    3  A    between atoms: C_6  and  C_7
REMARK    4  A    between atoms: N_9  and  C_10
REMARK    5  A    between atoms: C_10  and  C_11
REMARK    6  A    between atoms: C_11  and  C_12
REMARK    7  A    between atoms: C_15  and  O_16
REMARK    8  A    between atoms: O_16  and  C_17
REMARK    9  A    between atoms: C_18  and  O_19
REMARK   10  A    between atoms: O_19  and  C_20
REMARK   11  A    between atoms: C_26  and  O_27
REMARK   12  A    between atoms: O_27  and  C_28
REMARK                            x       y       z     vdW  Elec       q    Type
REMARK                         _______ _______ _______ _____ _____    ______ ____
ROOT
ATOM      1  C   UNL     1       2.521   5.270  20.487  0.00  0.00    +0.000 C 
ENDROOT
BRANCH   1   2
ATOM      2  C   UNL     1       3.003   4.367  19.316  0.00  0.00    +0.000 C 
ATOM      3  C   UNL     1       3.264   2.927  19.831  0.00  0.00    +0.000 C 
ATOM      4  C   UNL     1       3.195   2.053  18.583  0.00  0.00    +0.000 C 
ATOM      5  C   UNL     1       2.209   2.750  17.650  0.00  0.00    +0.000 C 
ATOM      6  C   UNL     1       1.840   4.067  18.337  0.00  0.00    +0.000 C 
BRANCH   2   7
ATOM      7  C   UNL     1       4.278   4.940  18.667  0.00  0.00    +0.000 A 
ATOM      8  C   UNL     1       5.438   5.237  19.390  0.00  0.00    +0.000 A 
ATOM      9  C   UNL     1       6.534   5.841  18.771  0.00  0.00    +0.000 A 
ATOM     10  C   UNL     1       6.519   6.142  17.406  0.00  0.00    +0.000 A 
ATOM     11  C   UNL     1       5.382   5.834  16.645  0.00  0.00    +0.000 A 
ATOM     12  C   UNL     1       4.289   5.222  17.283  0.00  0.00    +0.000 A 
BRANCH  10  13
ATOM     13  O   UNL     1       7.652   6.790  16.986  0.00  0.00    +0.000 OA
ATOM     14  C   UNL     1       7.908   8.063  17.568  0.00  0.00    +0.000 C 
ENDBRANCH  10  13
BRANCH  11  15
ATOM     15  O   UNL     1       5.374   6.192  15.322  0.00  0.00    +0.000 OA
ATOM     16  C   UNL     1       5.679   5.197  14.357  0.00  0.00    +0.000 C 
ENDBRANCH  11  15
ENDBRANCH   2   7
ENDBRANCH   1   2
BRANCH   1  19
ATOM     17  C   UNL     1       1.382   7.482  20.657  0.00  0.00    +0.000 C 
ATOM     18  O   UNL     1       0.604   7.097  21.520  0.00  0.00    +0.000 OA
ATOM     19  N   UNL     1       2.347   6.659  20.097  0.00  0.00    +0.000 N 
ATOM     20  H   UNL     1       2.989   7.036  19.418  0.00  0.00    +0.000 HD
BRANCH  17  24
ATOM     21  C   UNL     1       1.300  11.467  18.992  0.00  0.00    +0.000 A 
ATOM     22  C   UNL     1       1.547  10.360  18.186  0.00  0.00    +0.000 A 
ATOM     23  C   UNL     1       1.554   9.076  18.733  0.00  0.00    +0.000 A 
ATOM     24  C   UNL     1       1.337   8.880  20.110  0.00  0.00    +0.000 A 
ATOM     25  C   UNL     1       1.063   9.995  20.928  0.00  0.00    +0.000 A 
ATOM     26  C   UNL     1       1.059  11.280  20.354  0.00  0.00    +0.000 A 
BRANCH  21  28
ATOM     27  C   UNL     1       0.582  13.735  18.935  0.00  0.00    +0.000 C 
ATOM     28  O   UNL     1       1.308  12.667  18.336  0.00  0.00    +0.000 OA
ENDBRANCH  21  28
BRANCH  25  29
ATOM     29  O   UNL     1       0.835   9.776  22.261  0.00  0.00    +0.000 OA
ATOM     30  C   UNL     1      -0.398  10.225  22.812  0.00  0.00    +0.000 C 
ENDBRANCH  25  29
ENDBRANCH  17  24
ENDBRANCH   1  19
TORSDOF 8
ENDMDL
MODEL 8
REMARK VINA RESULT:      -7.1      2.284      4.507
REMARK  Name = 
REMARK  12 active torsions:
REMARK  status: ('A' for Active; 'I' for Inactive)
REMARK    1  A    between atoms: C_1  and  O_2
REMARK    2  A    between atoms: O_2  and  C_3
REMARK    3  A    between atoms: C_6  and  C_7
REMARK    4  A    between atoms: N_9  and  C_10
REMARK    5  A    between atoms: C_10  and  C_11
REMARK    6  A    between atoms: C_11  and  C_12
REMARK    7  A    between atoms: C_15  and  O_16
REMARK    8  A    between atoms: O_16  and  C_17
REMARK    9  A    between atoms: C_18  and  O_19
REMARK   10  A    between atoms: O_19  and  C_20
REMARK   11  A    between atoms: C_26  and  O_27
REMARK   12  A    between atoms: O_27  and  C_28
REMARK                            x       y       z     vdW  Elec       q    Type
REMARK                         _______ _______ _______ _____ _____    ______ ____
ROOT
ATOM      1  C   UNL     1       3.722   7.389  16.729  0.00  0.00    +0.000 C 
ENDROOT
BRANCH   1   2
ATOM      2  C   UNL     1       4.906   6.398  16.915  0.00  0.00    +0.000 C 
ATOM      3  C   UNL     1       5.353   5.844  15.536  0.00  0.00    +0.000 C 
ATOM      4  C   UNL     1       6.780   5.353  15.763  0.00  0.00    +0.000 C 
ATOM      5  C   UNL     1       7.355   6.255  16.851  0.00  0.00    +0.000 C 
ATOM      6  C   UNL     1       6.201   7.153  17.305  0.00  0.00    +0.000 C 
BRANCH   2   7
ATOM      7  C   UNL     1       4.512   5.238  17.852  0.00  0.00    +0.000 A 
ATOM      8  C   UNL     1       5.202   4.940  19.031  0.00  0.00    +0.000 A 
ATOM      9  C   UNL     1       4.862   3.824  19.798  0.00  0.00    +0.000 A 
ATOM     10  C   UNL     1       3.807   2.985  19.427  0.00  0.00    +0.000 A 
ATOM     11  C   UNL     1       3.078   3.269  18.264  0.00  0.00    +0.000 A 
ATOM     12  C   UNL     1       3.430   4.400  17.506  0.00  0.00    +0.000 A 
BRANCH  10  13
ATOM     13  O   UNL     1       3.662   1.905  20.259  0.00  0.00    +0.000 OA
ATOM     14  C   UNL     1       4.808   1.523  21.011  0.00  0.00    +0.000 C 
ENDBRANCH  10  13
BRANCH  11  15
ATOM     15  O   UNL     1       2.086   2.398  17.894  0.00  0.00    +0.000 OA
ATOM     16  C   UNL     1       0.852   2.455  18.592  0.00  0.00    +0.000 C 
ENDBRANCH  11  15
ENDBRANCH   2   7
ENDBRANCH   1   2
BRANCH   1  19
ATOM     17  C   UNL     1       2.087   8.710  18.071  0.00  0.00    +0.000 C 
ATOM     18  O   UNL     1       1.673   9.324  17.096  0.00  0.00    +0.000 OA
ATOM     19  N   UNL     1       3.085   7.752  17.985  0.00  0.00    +0.000 N 
ATOM     20  H   UNL     1       3.364   7.247  18.811  0.00  0.00    +0.000 HD
BRANCH  17  24
ATOM     21  C   UNL     1       0.585   9.559  22.032  0.00  0.00    +0.000 A 
ATOM     22  C   UNL     1       0.511  10.510  21.019  0.00  0.00    +0.000 A 
ATOM     23  C   UNL     1       0.984  10.218  19.739  0.00  0.00    +0.000 A 
ATOM     24  C   UNL     1       1.567   8.969  19.456  0.00  0.00    +0.000 A 
ATOM     25  C   UNL     1       1.624   7.992  20.471  0.00  0.00    +0.000 A 
ATOM     26  C   UNL     1       1.139   8.308  21.754  0.00  0.00    +0.000 A 
BRANCH  21  28
ATOM     27  C   UNL     1      -1.070  10.802  23.205  0.00  0.00    +0.000 C 
ATOM     28  O   UNL     1       0.078   9.962  23.236  0.00  0.00    +0.000 OA
ENDBRANCH  21  28
BRANCH  25  29
ATOM     29  O   UNL     1       2.178   6.777  20.165  0.00  0.00    +0.000 OA
ATOM     30  C   UNL     1       1.636   5.618  20.789  0.00  0.00    +0.000 C 
ENDBRANCH  25  29
ENDBRANCH  17  24
ENDBRANCH   1  19
TORSDOF 8
ENDMDL
MODEL 9
REMARK VINA RESULT:      -7.1      1.915      7.633
REMARK  Name = 
REMARK  12 active torsions:
REMARK  status: ('A' for Active; 'I' for Inactive)
REMARK    1  A    between atoms: C_1  and  O_2
REMARK    2  A    between atoms: O_2  and  C_3
REMARK    3  A    between atoms: C_6  and  C_7
REMARK    4  A    between atoms: N_9  and  C_10
REMARK    5  A    between atoms: C_10  and  C_11
REMARK    6  A    between atoms: C_11  and  C_12
REMARK    7  A    between atoms: C_15  and  O_16
REMARK    8  A    between atoms: O_16  and  C_17
REMARK    9  A    between atoms: C_18  and  O_19
REMARK   10  A    between atoms: O_19  and  C_20
REMARK   11  A    between atoms: C_26  and  O_27
REMARK   12  A    between atoms: O_27  and  C_28
REMARK                            x       y       z     vdW  Elec       q    Type
REMARK                         _______ _______ _______ _____ _____    ______ ____
ROOT
ATOM      1  C   UNL     1       4.281   5.648  19.818  0.00  0.00    +0.000 C 
ENDROOT
BRANCH   1   2
ATOM      2  C   UNL     1       2.737   5.485  19.899  0.00  0.00    +0.000 C 
ATOM      3  C   UNL     1       2.216   4.745  18.640  0.00  0.00    +0.000 C 
ATOM      4  C   UNL     1       0.861   4.181  19.057  0.00  0.00    +0.000 C 
ATOM      5  C   UNL     1       0.976   3.906  20.554  0.00  0.00    +0.000 C 
ATOM      6  C   UNL     1       2.349   4.438  20.974  0.00  0.00    +0.000 C 
BRANCH   2   7
ATOM      7  C   UNL     1       2.044   6.857  20.036  0.00  0.00    +0.000 A 
ATOM      8  C   UNL     1       1.297   7.227  21.158  0.00  0.00    +0.000 A 
ATOM      9  C   UNL     1       0.614   8.445  21.194  0.00  0.00    +0.000 A 
ATOM     10  C   UNL     1       0.676   9.341  20.123  0.00  0.00    +0.000 A 
ATOM     11  C   UNL     1       1.437   9.012  18.993  0.00  0.00    +0.000 A 
ATOM     12  C   UNL     1       2.123   7.785  18.976  0.00  0.00    +0.000 A 
BRANCH  10  13
ATOM     13  O   UNL     1      -0.108  10.451  20.306  0.00  0.00    +0.000 OA
ATOM     14  C   UNL     1      -0.031  11.081  21.580  0.00  0.00    +0.000 C 
ENDBRANCH  10  13
BRANCH  11  15
ATOM     15  O   UNL     1       1.434   9.885  17.936  0.00  0.00    +0.000 OA
ATOM     16  C   UNL     1       2.148  11.104  18.073  0.00  0.00    +0.000 C 
ENDBRANCH  11  15
ENDBRANCH   2   7
ENDBRANCH   1   2
BRANCH   1  19
ATOM     17  C   UNL     1       5.589   4.465  18.054  0.00  0.00    +0.000 C 
ATOM     18  O   UNL     1       5.923   3.559  18.807  0.00  0.00    +0.000 OA
ATOM     19  N   UNL     1       4.793   5.524  18.462  0.00  0.00    +0.000 N 
ATOM     20  H   UNL     1       4.514   6.224  17.794  0.00  0.00    +0.000 HD
BRANCH  17  24
ATOM     21  C   UNL     1       6.834   4.535  13.918  0.00  0.00    +0.000 A 
ATOM     22  C   UNL     1       5.750   3.764  14.327  0.00  0.00    +0.000 A 
ATOM     23  C   UNL     1       5.347   3.763  15.662  0.00  0.00    +0.000 A 
ATOM     24  C   UNL     1       6.043   4.520  16.624  0.00  0.00    +0.000 A 
ATOM     25  C   UNL     1       7.127   5.323  16.213  0.00  0.00    +0.000 A 
ATOM     26  C   UNL     1       7.514   5.309  14.860  0.00  0.00    +0.000 A 
BRANCH  21  28
ATOM     27  C   UNL     1       6.615   3.334  11.876  0.00  0.00    +0.000 C 
ATOM     28  O   UNL     1       7.121   4.460  12.583  0.00  0.00    +0.000 OA
ENDBRANCH  21  28
BRANCH  25  29
ATOM     29  O   UNL     1       7.775   6.066  17.164  0.00  0.00    +0.000 OA
ATOM     30  C   UNL     1       7.484   7.457  17.239  0.00  0.00    +0.000 C 
ENDBRANCH  25  29
ENDBRANCH  17  24
ENDBRANCH   1  19
TORSDOF 8
ENDMDL
