MODEL 1
REMARK VINA RESULT:      -7.3      0.000      0.000
REMARK  Name = 
REMARK  7 active torsions:
REMARK  status: ('A' for Active; 'I' for Inactive)
REMARK    1  A    between atoms: C_1  and  N_2
REMARK    2  A    between atoms: C_3  and  C_5
REMARK    3  A    between atoms: C_5  and  O_6
REMARK    4  A    between atoms: O_6  and  C_7
REMARK    5  A    between atoms: C_10  and  C_11
REMARK    6  A    between atoms: C_11  and  N_12
REMARK    7  A    between atoms: C_16  and  C_18
REMARK                            x       y       z     vdW  Elec       q    Type
REMARK                         _______ _______ _______ _____ _____    ______ ____
ROOT
ATOM      1  C   UNL     1       2.135   7.229  18.886  0.00  0.00    +0.000 A 
ATOM      2  C   UNL     1       2.150   6.277  17.936  0.00  0.00    +0.000 A 
ATOM      3  O   UNL     1       1.829   4.940  18.129  0.00  0.00    +0.000 OA
ATOM      4  C   UNL     1       1.563   4.501  19.433  0.00  0.00    +0.000 A 
ATOM      5  C   UNL     1       1.520   5.357  20.458  0.00  0.00    +0.000 A 
ATOM      6  C   UNL     1       1.704   6.796  20.245  0.00  0.00    +0.000 A 
ATOM      7  O   UNL     1       1.528   7.593  21.159  0.00  0.00    +0.000 OA
ENDROOT
BRANCH   1   8
ATOM      8  O   UNL     1       2.483   8.554  18.757  0.00  0.00    +0.000 OA
BRANCH   8   9
ATOM      9  C   UNL     1       1.721   9.357  17.865  0.00  0.00    +0.000 C 
BRANCH   9  12
ATOM     10  C   UNL     1      -0.458  10.883  20.610  0.00  0.00    +0.000 C 
ATOM     11  N   UNL     1       0.621  10.294  19.858  0.00  0.00    +0.000 N 
ATOM     12  C   UNL     1       0.468   9.927  18.543  0.00  0.00    +0.000 C 
ATOM     13  O   UNL     1      -0.590  10.059  17.930  0.00  0.00    +0.000 OA
ATOM     14  H   UNL     1       1.509  10.095  20.316  0.00  0.00    +0.000 HD
ENDBRANCH   9  12
ENDBRANCH   8   9
ENDBRANCH   1   8
BRANCH   4  15
ATOM     15  C   UNL     1       1.321   3.001  19.597  0.00  0.00    +0.000 C 
BRANCH  15  16
ATOM     16  N   UNL     1       2.567   2.214  19.666  0.00  0.00    +0.000 NA
ATOM     17  C   UNL     1       3.038   1.672  18.380  0.00  0.00    +0.000 C 
ATOM     18  C   UNL     1       3.791   2.648  17.461  0.00  0.00    +0.000 C 
ATOM     19  N   UNL     1       4.774   3.503  18.128  0.00  0.00    +0.000 N 
ATOM     20  C   UNL     1       5.521   4.349  17.272  0.00  0.00    +0.000 C 
ATOM     21  O   UNL     1       5.319   4.339  16.053  0.00  0.00    +0.000 OA
ATOM     22  C   UNL     1       4.476   3.911  19.507  0.00  0.00    +0.000 C 
ATOM     23  C   UNL     1       3.691   2.879  20.336  0.00  0.00    +0.000 C 
BRANCH  20  24
ATOM     24  C   UNL     1       6.507   5.244  17.859  0.00  0.00    +0.000 A 
ATOM     25  C   UNL     1       6.843   6.552  17.541  0.00  0.00    +0.000 A 
ATOM     26  C   UNL     1       7.932   6.911  18.373  0.00  0.00    +0.000 A 
ATOM     27  C   UNL     1       8.206   5.807  19.139  0.00  0.00    +0.000 A 
ATOM     28  O   UNL     1       7.359   4.792  18.831  0.00  0.00    +0.000 OA
ENDBRANCH  20  24
ENDBRANCH  15  16
ENDBRANCH   4  15
TORSDOF 6
ENDMDL
MODEL 2
REMARK VINA RESULT:      -7.2      2.741      3.990
REMARK  Name = 
REMARK  7 active torsions:
REMARK  status: ('A' for Active; 'I' for Inactive)
REMARK    1  A    between atoms: C_1  and  N_2
REMARK    2  A    between atoms: C_3  and  C_5
REMARK    3  A    between atoms: C_5  and  O_6
REMARK    4  A    between atoms: O_6  and  C_7
REMARK    5  A    between atoms: C_10  and  C_11
REMARK    6  A    between atoms: C_11  and  N_12
REMARK    7  A    between atoms: C_16  and  C_18
REMARK                            x       y       z     vdW  Elec       q    Type
REMARK                         _______ _______ _______ _____ _____    ______ ____
ROOT
ATOM      1  C   UNL     1       0.930  10.385  19.248  0.00  0.00    +0.000 A 
ATOM      2  C   UNL     1       1.403  10.085  18.025  0.00  0.00    +0.000 A 
ATOM      3  O   UNL     1       1.948   8.864  17.649  0.00  0.00    +0.000 OA
ATOM      4  C   UNL     1       2.124   7.882  18.634  0.00  0.00    +0.000 A 
ATOM      5  C   UNL     1       1.692   8.069  19.884  0.00  0.00    +0.000 A 
ATOM      6  C   UNL     1       0.975   9.292  20.258  0.00  0.00    +0.000 A 
ATOM      7  O   UNL     1       0.460   9.403  21.365  0.00  0.00    +0.000 OA
ENDROOT
BRANCH   1   8
ATOM      8  O   UNL     1       0.419  11.588  19.681  0.00  0.00    +0.000 OA
BRANCH   8   9
ATOM      9  C   UNL     1      -0.165  12.450  18.714  0.00  0.00    +0.000 C 
BRANCH   9  12
ATOM     10  C   UNL     1      -3.027  11.207  16.505  0.00  0.00    +0.000 C 
ATOM     11  N   UNL     1      -1.763  11.688  17.002  0.00  0.00    +0.000 N 
ATOM     12  C   UNL     1      -1.579  11.995  18.329  0.00  0.00    +0.000 C 
ATOM     13  O   UNL     1      -2.473  11.898  19.169  0.00  0.00    +0.000 OA
ATOM     14  H   UNL     1      -0.994  11.854  16.356  0.00  0.00    +0.000 HD
ENDBRANCH   9  12
ENDBRANCH   8   9
ENDBRANCH   1   8
BRANCH   4  15
ATOM     15  C   UNL     1       2.826   6.601  18.183  0.00  0.00    +0.000 C 
BRANCH  15  16
ATOM     16  N   UNL     1       4.286   6.635  18.386  0.00  0.00    +0.000 NA
ATOM     17  C   UNL     1       4.887   5.366  18.830  0.00  0.00    +0.000 C 
ATOM     18  C   UNL     1       5.137   4.309  17.742  0.00  0.00    +0.000 C 
ATOM     19  N   UNL     1       5.709   4.820  16.495  0.00  0.00    +0.000 N 
ATOM     20  C   UNL     1       6.008   3.837  15.520  0.00  0.00    +0.000 C 
ATOM     21  O   UNL     1       5.780   2.643  15.746  0.00  0.00    +0.000 OA
ATOM     22  C   UNL     1       5.324   6.178  16.092  0.00  0.00    +0.000 C 
ATOM     23  C   UNL     1       5.064   7.153  17.255  0.00  0.00    +0.000 C 
BRANCH  20  24
ATOM     24  C   UNL     1       6.563   4.263  14.243  0.00  0.00    +0.000 A 
ATOM     25  C   UNL     1       6.309   3.820  12.954  0.00  0.00    +0.000 A 
ATOM     26  C   UNL     1       7.192   4.520  12.096  0.00  0.00    +0.000 A 
ATOM     27  C   UNL     1       7.939   5.338  12.905  0.00  0.00    +0.000 A 
ATOM     28  O   UNL     1       7.574   5.186  14.203  0.00  0.00    +0.000 OA
ENDBRANCH  20  24
ENDBRANCH  15  16
ENDBRANCH   4  15
TORSDOF 6
ENDMDL
MODEL 3
REMARK VINA RESULT:      -7.2      1.035      1.115
REMARK  Name = 
REMARK  7 active torsions:
REMARK  status: ('A' for Active; 'I' for Inactive)
REMARK    1  A    between atoms: C_1  and  N_2
REMARK    2  A    between atoms: C_3  and  C_5
REMARK    3  A    between atoms: C_5  and  O_6
REMARK    4  A    between atoms: O_6  and  C_7
REMARK    5  A    between atoms: C_10  and  C_11
REMARK    6  A    between atoms: C_11  and  N_12
REMARK    7  A    between atoms: C_16  and  C_18
REMARK                            x       y       z     vdW  Elec       q    Type
REMARK                         _______ _______ _______ _____ _____    ______ ____
ROOT
ATOM      1  C   UNL     1       2.119   7.156  18.826  0.00  0.00    +0.000 A 
ATOM      2  C   UNL     1       2.094   6.174  17.907  0.00  0.00    +0.000 A 
ATOM      3  O   UNL     1       1.774   4.846  18.155  0.00  0.00    +0.000 OA
ATOM      4  C   UNL     1       1.554   4.450  19.482  0.00  0.00    +0.000 A 
ATOM      5  C   UNL     1       1.553   5.339  20.479  0.00  0.00    +0.000 A 
ATOM      6  C   UNL     1       1.736   6.769  20.213  0.00  0.00    +0.000 A 
ATOM      7  O   UNL     1       1.599   7.596  21.107  0.00  0.00    +0.000 OA
ENDROOT
BRANCH   1   8
ATOM      8  O   UNL     1       2.468   8.474  18.640  0.00  0.00    +0.000 OA
BRANCH   8   9
ATOM      9  C   UNL     1       1.569   9.304  17.917  0.00  0.00    +0.000 C 
BRANCH   9  12
ATOM     10  C   UNL     1       2.345  13.029  18.286  0.00  0.00    +0.000 C 
ATOM     11  N   UNL     1       2.323  11.648  17.876  0.00  0.00    +0.000 N 
ATOM     12  C   UNL     1       1.517  10.724  18.497  0.00  0.00    +0.000 C 
ATOM     13  O   UNL     1       0.782  11.006  19.443  0.00  0.00    +0.000 OA
ATOM     14  H   UNL     1       2.951  11.326  17.142  0.00  0.00    +0.000 HD
ENDBRANCH   9  12
ENDBRANCH   8   9
ENDBRANCH   1   8
BRANCH   4  15
ATOM     15  C   UNL     1       1.311   2.958  19.704  0.00  0.00    +0.000 C 
BRANCH  15  16
ATOM     16  N   UNL     1       2.554   2.166  19.747  0.00  0.00    +0.000 NA
ATOM     17  C   UNL     1       2.998   1.622  18.452  0.00  0.00    +0.000 C 
ATOM     18  C   UNL     1       3.736   2.595  17.518  0.00  0.00    +0.000 C 
ATOM     19  N   UNL     1       4.737   3.445  18.166  0.00  0.00    +0.000 N 
ATOM     20  C   UNL     1       5.469   4.288  17.296  0.00  0.00    +0.000 C 
ATOM     21  O   UNL     1       5.243   4.279  16.080  0.00  0.00    +0.000 OA
ATOM     22  C   UNL     1       4.468   3.854  19.550  0.00  0.00    +0.000 C 
ATOM     23  C   UNL     1       3.694   2.825  20.395  0.00  0.00    +0.000 C 
BRANCH  20  24
ATOM     24  C   UNL     1       6.472   5.179  17.863  0.00  0.00    +0.000 A 
ATOM     25  C   UNL     1       6.773   6.501  17.573  0.00  0.00    +0.000 A 
ATOM     26  C   UNL     1       7.897   6.850  18.362  0.00  0.00    +0.000 A 
ATOM     27  C   UNL     1       8.224   5.725  19.076  0.00  0.00    +0.000 A 
ATOM     28  O   UNL     1       7.376   4.708  18.777  0.00  0.00    +0.000 OA
ENDBRANCH  20  24
ENDBRANCH  15  16
ENDBRANCH   4  15
TORSDOF 6
ENDMDL
MODEL 4
REMARK VINA RESULT:      -7.1      2.840      8.540
REMARK  Name = 
REMARK  7 active torsions:
REMARK  status: ('A' for Active; 'I' for Inactive)
REMARK    1  A    between atoms: C_1  and  N_2
REMARK    2  A    between atoms: C_3  and  C_5
REMARK    3  A    between atoms: C_5  and  O_6
REMARK    4  A    between atoms: O_6  and  C_7
REMARK    5  A    between atoms: C_10  and  C_11
REMARK    6  A    between atoms: C_11  and  N_12
REMARK    7  A    between atoms: C_16  and  C_18
REMARK                            x       y       z     vdW  Elec       q    Type
REMARK                         _______ _______ _______ _____ _____    ______ ____
ROOT
ATOM      1  C   UNL     1       4.456   5.331  17.193  0.00  0.00    +0.000 A 
ATOM      2  C   UNL     1       4.540   6.655  16.971  0.00  0.00    +0.000 A 
ATOM      3  O   UNL     1       3.764   7.626  17.590  0.00  0.00    +0.000 OA
ATOM      4  C   UNL     1       2.733   7.211  18.444  0.00  0.00    +0.000 A 
ATOM      5  C   UNL     1       2.555   5.921  18.739  0.00  0.00    +0.000 A 
ATOM      6  C   UNL     1       3.464   4.896  18.215  0.00  0.00    +0.000 A 
ATOM      7  O   UNL     1       3.384   3.734  18.594  0.00  0.00    +0.000 OA
ENDROOT
BRANCH   1   8
ATOM      8  O   UNL     1       5.171   4.328  16.578  0.00  0.00    +0.000 OA
BRANCH   8   9
ATOM      9  C   UNL     1       6.557   4.542  16.352  0.00  0.00    +0.000 C 
BRANCH   9  12
ATOM     10  C   UNL     1       6.365   3.660  12.637  0.00  0.00    +0.000 C 
ATOM     11  N   UNL     1       6.190   3.701  14.067  0.00  0.00    +0.000 N 
ATOM     12  C   UNL     1       6.887   4.587  14.854  0.00  0.00    +0.000 C 
ATOM     13  O   UNL     1       7.708   5.383  14.400  0.00  0.00    +0.000 OA
ATOM     14  H   UNL     1       5.575   3.029  14.522  0.00  0.00    +0.000 HD
ENDBRANCH   9  12
ENDBRANCH   8   9
ENDBRANCH   1   8
BRANCH   4  15
ATOM     15  C   UNL     1       1.847   8.320  19.011  0.00  0.00    +0.000 C 
BRANCH  15  16
ATOM     16  N   UNL     1       1.473   9.336  18.009  0.00  0.00    +0.000 NA
ATOM     17  C   UNL     1       0.024   9.540  17.833  0.00  0.00    +0.000 C 
ATOM     18  C   UNL     1      -0.674  10.422  18.881  0.00  0.00    +0.000 C 
ATOM     19  N   UNL     1       0.046  11.642  19.250  0.00  0.00    +0.000 N 
ATOM     20  C   UNL     1      -0.631  12.492  20.159  0.00  0.00    +0.000 C 
ATOM     21  O   UNL     1      -1.747  12.183  20.590  0.00  0.00    +0.000 OA
ATOM     22  C   UNL     1       1.512  11.580  19.237  0.00  0.00    +0.000 C 
ATOM     23  C   UNL     1       2.115  10.644  18.173  0.00  0.00    +0.000 C 
BRANCH  20  24
ATOM     24  C   UNL     1       0.025  13.718  20.592  0.00  0.00    +0.000 A 
ATOM     25  C   UNL     1       0.168  14.940  19.953  0.00  0.00    +0.000 A 
ATOM     26  C   UNL     1       0.971  15.752  20.792  0.00  0.00    +0.000 A 
ATOM     27  C   UNL     1       1.281  14.981  21.883  0.00  0.00    +0.000 A 
ATOM     28  O   UNL     1       0.722  13.749  21.770  0.00  0.00    +0.000 OA
ENDBRANCH  20  24
ENDBRANCH  15  16
ENDBRANCH   4  15
TORSDOF 6
ENDMDL
MODEL 5
REMARK VINA RESULT:      -7.0      1.616      2.356
REMARK  Name = 
REMARK  7 active torsions:
REMARK  status: ('A' for Active; 'I' for Inactive)
REMARK    1  A    between atoms: C_1  and  N_2
REMARK    2  A    between atoms: C_3  and  C_5
REMARK    3  A    between atoms: C_5  and  O_6
REMARK    4  A    between atoms: O_6  and  C_7
REMARK    5  A    between atoms: C_10  and  C_11
REMARK    6  A    between atoms: C_11  and  N_12
REMARK    7  A    between atoms: C_16  and  C_18
REMARK                            x       y       z     vdW  Elec       q    Type
REMARK                         _______ _______ _______ _____ _____    ______ ____
ROOT
ATOM      1  C   UNL     1       1.786   8.063  19.874  0.00  0.00    +0.000 A 
ATOM      2  C   UNL     1       1.559   7.025  20.699  0.00  0.00    +0.000 A 
ATOM      3  O   UNL     1       1.680   5.685  20.358  0.00  0.00    +0.000 OA
ATOM      4  C   UNL     1       1.959   5.358  19.024  0.00  0.00    +0.000 A 
ATOM      5  C   UNL     1       2.203   6.307  18.116  0.00  0.00    +0.000 A 
ATOM      6  C   UNL     1       2.233   7.723  18.494  0.00  0.00    +0.000 A 
ATOM      7  O   UNL     1       2.591   8.579  17.694  0.00  0.00    +0.000 OA
ENDROOT
BRANCH   1   8
ATOM      8  O   UNL     1       1.642   9.405  20.149  0.00  0.00    +0.000 OA
BRANCH   8   9
ATOM      9  C   UNL     1       0.324   9.925  20.253  0.00  0.00    +0.000 C 
BRANCH   9  12
ATOM     10  C   UNL     1      -1.600  11.591  23.105  0.00  0.00    +0.000 C 
ATOM     11  N   UNL     1      -1.163  11.105  21.820  0.00  0.00    +0.000 N 
ATOM     12  C   UNL     1       0.019  10.419  21.673  0.00  0.00    +0.000 C 
ATOM     13  O   UNL     1       0.783  10.192  22.610  0.00  0.00    +0.000 OA
ATOM     14  H   UNL     1      -1.711  11.309  20.987  0.00  0.00    +0.000 HD
ENDBRANCH   9  12
ENDBRANCH   8   9
ENDBRANCH   1   8
BRANCH   4  15
ATOM     15  C   UNL     1       1.974   3.868  18.689  0.00  0.00    +0.000 C 
BRANCH  15  16
ATOM     16  N   UNL     1       3.272   3.222  18.962  0.00  0.00    +0.000 NA
ATOM     17  C   UNL     1       3.941   2.637  17.788  0.00  0.00    +0.000 C 
ATOM     18  C   UNL     1       4.701   3.613  16.876  0.00  0.00    +0.000 C 
ATOM     19  N   UNL     1       5.514   4.613  17.571  0.00  0.00    +0.000 N 
ATOM     20  C   UNL     1       6.272   5.466  16.732  0.00  0.00    +0.000 C 
ATOM     21  O   UNL     1       6.218   5.343  15.503  0.00  0.00    +0.000 OA
ATOM     22  C   UNL     1       5.017   5.091  18.868  0.00  0.00    +0.000 C 
ATOM     23  C   UNL     1       4.241   4.048  19.692  0.00  0.00    +0.000 C 
BRANCH  20  24
ATOM     24  C   UNL     1       7.094   6.500  17.344  0.00  0.00    +0.000 A 
ATOM     25  C   UNL     1       7.914   6.460  18.462  0.00  0.00    +0.000 A 
ATOM     26  C   UNL     1       8.407   7.773  18.660  0.00  0.00    +0.000 A 
ATOM     27  C   UNL     1       7.855   8.540  17.664  0.00  0.00    +0.000 A 
ATOM     28  O   UNL     1       7.055   7.784  16.870  0.00  0.00    +0.000 OA
ENDBRANCH  20  24
ENDBRANCH  15  16
ENDBRANCH   4  15
TORSDOF 6
ENDMDL
MODEL 6
REMARK VINA RESULT:      -7.0      1.948      5.545
REMARK  Name = 
REMARK  7 active torsions:
REMARK  status: ('A' for Active; 'I' for Inactive)
REMARK    1  A    between atoms: C_1  and  N_2
REMARK    2  A    between atoms: C_3  and  C_5
REMARK    3  A    between atoms: C_5  and  O_6
REMARK    4  A    between atoms: O_6  and  C_7
REMARK    5  A    between atoms: C_10  and  C_11
REMARK    6  A    between atoms: C_11  and  N_12
REMARK    7  A    between atoms: C_16  and  C_18
REMARK                            x       y       z     vdW  Elec       q    Type
REMARK                         _______ _______ _______ _____ _____    ______ ____
ROOT
ATOM      1  C   UNL     1       6.043   4.830  17.472  0.00  0.00    +0.000 A 
ATOM      2  C   UNL     1       5.249   4.158  16.619  0.00  0.00    +0.000 A 
ATOM      3  O   UNL     1       4.242   3.274  16.983  0.00  0.00    +0.000 OA
ATOM      4  C   UNL     1       4.089   2.960  18.341  0.00  0.00    +0.000 A 
ATOM      5  C   UNL     1       4.823   3.565  19.279  0.00  0.00    +0.000 A 
ATOM      6  C   UNL     1       5.783   4.615  18.923  0.00  0.00    +0.000 A 
ATOM      7  O   UNL     1       6.353   5.264  19.792  0.00  0.00    +0.000 OA
ENDROOT
BRANCH   1   8
ATOM      8  O   UNL     1       7.079   5.683  17.164  0.00  0.00    +0.000 OA
BRANCH   8   9
ATOM      9  C   UNL     1       6.807   7.078  17.144  0.00  0.00    +0.000 C 
BRANCH   9  12
ATOM     10  C   UNL     1       8.806  10.089  18.388  0.00  0.00    +0.000 C 
ATOM     11  N   UNL     1       7.910   9.214  17.676  0.00  0.00    +0.000 N 
ATOM     12  C   UNL     1       7.842   7.869  17.953  0.00  0.00    +0.000 C 
ATOM     13  O   UNL     1       8.543   7.326  18.806  0.00  0.00    +0.000 OA
ATOM     14  H   UNL     1       7.343   9.579  16.913  0.00  0.00    +0.000 HD
ENDBRANCH   9  12
ENDBRANCH   8   9
ENDBRANCH   1   8
BRANCH   4  15
ATOM     15  C   UNL     1       3.037   1.901  18.668  0.00  0.00    +0.000 C 
BRANCH  15  16
ATOM     16  N   UNL     1       1.660   2.431  18.674  0.00  0.00    +0.000 NA
ATOM     17  C   UNL     1       1.136   2.801  20.000  0.00  0.00    +0.000 C 
ATOM     18  C   UNL     1       1.584   4.161  20.558  0.00  0.00    +0.000 C 
ATOM     19  N   UNL     1       1.570   5.266  19.598  0.00  0.00    +0.000 N 
ATOM     20  C   UNL     1       1.911   6.534  20.129  0.00  0.00    +0.000 C 
ATOM     21  O   UNL     1       2.200   6.653  21.325  0.00  0.00    +0.000 OA
ATOM     22  C   UNL     1       1.872   4.937  18.199  0.00  0.00    +0.000 C 
ATOM     23  C   UNL     1       1.412   3.540  17.745  0.00  0.00    +0.000 C 
BRANCH  20  24
ATOM     24  C   UNL     1       1.939   7.683  19.235  0.00  0.00    +0.000 A 
ATOM     25  C   UNL     1       2.697   7.928  18.100  0.00  0.00    +0.000 A 
ATOM     26  C   UNL     1       2.385   9.241  17.670  0.00  0.00    +0.000 A 
ATOM     27  C   UNL     1       1.468   9.726  18.568  0.00  0.00    +0.000 A 
ATOM     28  O   UNL     1       1.198   8.799  19.521  0.00  0.00    +0.000 OA
ENDBRANCH  20  24
ENDBRANCH  15  16
ENDBRANCH   4  15
TORSDOF 6
ENDMDL
MODEL 7
REMARK VINA RESULT:      -7.0      1.414      1.979
REMARK  Name = 
REMARK  7 active torsions:
REMARK  status: ('A' for Active; 'I' for Inactive)
REMARK    1  A    between atoms: C_1  and  N_2
REMARK    2  A    between atoms: C_3  and  C_5
REMARK    3  A    between atoms: C_5  and  O_6
REMARK    4  A    between atoms: O_6  and  C_7
REMARK    5  A    between atoms: C_10  and  C_11
REMARK    6  A    between atoms: C_11  and  N_12
REMARK    7  A    between atoms: C_16  and  C_18
REMARK                            x       y       z     vdW  Elec       q    Type
REMARK                         _______ _______ _______ _____ _____    ______ ____
ROOT
ATOM      1  C   UNL     1       1.767   7.701  20.148  0.00  0.00    +0.000 A 
ATOM      2  C   UNL     1       1.523   6.603  20.886  0.00  0.00    +0.000 A 
ATOM      3  O   UNL     1       1.658   5.292  20.448  0.00  0.00    +0.000 OA
ATOM      4  C   UNL     1       1.974   5.068  19.101  0.00  0.00    +0.000 A 
ATOM      5  C   UNL     1       2.237   6.083  18.274  0.00  0.00    +0.000 A 
ATOM      6  C   UNL     1       2.251   7.466  18.759  0.00  0.00    +0.000 A 
ATOM      7  O   UNL     1       2.626   8.381  18.035  0.00  0.00    +0.000 OA
ENDROOT
BRANCH   1   8
ATOM      8  O   UNL     1       1.610   9.017  20.519  0.00  0.00    +0.000 OA
BRANCH   8   9
ATOM      9  C   UNL     1       0.293   9.551  20.536  0.00  0.00    +0.000 C 
BRANCH   9  12
ATOM     10  C   UNL     1       0.071  12.839  18.600  0.00  0.00    +0.000 C 
ATOM     11  N   UNL     1       0.223  11.837  19.624  0.00  0.00    +0.000 N 
ATOM     12  C   UNL     1       0.050  10.500  19.355  0.00  0.00    +0.000 C 
ATOM     13  O   UNL     1      -0.259  10.075  18.242  0.00  0.00    +0.000 OA
ATOM     14  H   UNL     1       0.416  12.116  20.583  0.00  0.00    +0.000 HD
ENDBRANCH   9  12
ENDBRANCH   8   9
ENDBRANCH   1   8
BRANCH   4  15
ATOM     15  C   UNL     1       2.003   3.607  18.655  0.00  0.00    +0.000 C 
BRANCH  15  16
ATOM     16  N   UNL     1       3.317   2.966  18.850  0.00  0.00    +0.000 NA
ATOM     17  C   UNL     1       3.953   2.454  17.623  0.00  0.00    +0.000 C 
ATOM     18  C   UNL     1       4.671   3.489  16.741  0.00  0.00    +0.000 C 
ATOM     19  N   UNL     1       5.494   4.461  17.463  0.00  0.00    +0.000 N 
ATOM     20  C   UNL     1       6.214   5.368  16.647  0.00  0.00    +0.000 C 
ATOM     21  O   UNL     1       6.119   5.311  15.416  0.00  0.00    +0.000 OA
ATOM     22  C   UNL     1       5.037   4.860  18.799  0.00  0.00    +0.000 C 
ATOM     23  C   UNL     1       4.301   3.764  19.590  0.00  0.00    +0.000 C 
BRANCH  20  24
ATOM     24  C   UNL     1       7.043   6.379  17.287  0.00  0.00    +0.000 A 
ATOM     25  C   UNL     1       7.836   6.311  18.423  0.00  0.00    +0.000 A 
ATOM     26  C   UNL     1       8.353   7.612  18.643  0.00  0.00    +0.000 A 
ATOM     27  C   UNL     1       7.841   8.398  17.642  0.00  0.00    +0.000 A 
ATOM     28  O   UNL     1       7.043   7.667  16.823  0.00  0.00    +0.000 OA
ENDBRANCH  20  24
ENDBRANCH  15  16
ENDBRANCH   4  15
TORSDOF 6
ENDMDL
MODEL 8
REMARK VINA RESULT:      -6.9      5.750      9.018
REMARK  Name = 
REMARK  7 active torsions:
REMARK  status: ('A' for Active; 'I' for Inactive)
REMARK    1  A    between atoms: C_1  and  N_2
REMARK    2  A    between atoms: C_3  and  C_5
REMARK    3  A    between atoms: C_5  and  O_6
REMARK    4  A    between atoms: O_6  and  C_7
REMARK    5  A    between atoms: C_10  and  C_11
REMARK    6  A    between atoms: C_11  and  N_12
REMARK    7  A    between atoms: C_16  and  C_18
REMARK                            x       y       z     vdW  Elec       q    Type
REMARK                         _______ _______ _______ _____ _____    ______ ____
ROOT
ATOM      1  C   UNL     1       6.822   5.710  17.654  0.00  0.00    +0.000 A 
ATOM      2  C   UNL     1       6.464   6.686  16.800  0.00  0.00    +0.000 A 
ATOM      3  O   UNL     1       6.938   7.991  16.824  0.00  0.00    +0.000 OA
ATOM      4  C   UNL     1       7.781   8.374  17.876  0.00  0.00    +0.000 A 
ATOM      5  C   UNL     1       8.203   7.489  18.783  0.00  0.00    +0.000 A 
ATOM      6  C   UNL     1       7.836   6.073  18.682  0.00  0.00    +0.000 A 
ATOM      7  O   UNL     1       8.333   5.241  19.432  0.00  0.00    +0.000 OA
ENDROOT
BRANCH   1   8
ATOM      8  O   UNL     1       6.353   4.416  17.698  0.00  0.00    +0.000 OA
BRANCH   8   9
ATOM      9  C   UNL     1       4.947   4.217  17.663  0.00  0.00    +0.000 C 
BRANCH   9  12
ATOM     10  C   UNL     1       2.436   3.019  20.284  0.00  0.00    +0.000 C 
ATOM     11  N   UNL     1       3.066   3.610  19.131  0.00  0.00    +0.000 N 
ATOM     12  C   UNL     1       4.430   3.589  18.964  0.00  0.00    +0.000 C 
ATOM     13  O   UNL     1       5.197   3.086  19.784  0.00  0.00    +0.000 OA
ATOM     14  H   UNL     1       2.501   4.100  18.440  0.00  0.00    +0.000 HD
ENDBRANCH   9  12
ENDBRANCH   8   9
ENDBRANCH   1   8
BRANCH   4  15
ATOM     15  C   UNL     1       8.183   9.848  17.908  0.00  0.00    +0.000 C 
BRANCH  15  16
ATOM     16  N   UNL     1       9.484  10.082  18.562  0.00  0.00    +0.000 NA
ATOM     17  C   UNL     1      10.406  10.966  17.828  0.00  0.00    +0.000 C 
ATOM     18  C   UNL     1      10.152  12.477  17.956  0.00  0.00    +0.000 C 
ATOM     19  N   UNL     1       9.847  12.947  19.309  0.00  0.00    +0.000 N 
ATOM     20  C   UNL     1       9.687  14.348  19.441  0.00  0.00    +0.000 C 
ATOM     21  O   UNL     1       9.799  15.085  18.455  0.00  0.00    +0.000 OA
ATOM     22  C   UNL     1       9.113  12.026  20.185  0.00  0.00    +0.000 C 
ATOM     23  C   UNL     1       9.412  10.533  19.957  0.00  0.00    +0.000 C 
BRANCH  20  24
ATOM     24  C   UNL     1       9.364  14.896  20.751  0.00  0.00    +0.000 A 
ATOM     25  C   UNL     1      10.157  15.079  21.874  0.00  0.00    +0.000 A 
ATOM     26  C   UNL     1       9.311  15.568  22.900  0.00  0.00    +0.000 A 
ATOM     27  C   UNL     1       8.056  15.645  22.353  0.00  0.00    +0.000 A 
ATOM     28  O   UNL     1       8.074  15.234  21.059  0.00  0.00    +0.000 OA
ENDBRANCH  20  24
ENDBRANCH  15  16
ENDBRANCH   4  15
TORSDOF 6
ENDMDL
MODEL 9
REMARK VINA RESULT:      -6.9      1.210      1.333
REMARK  Name = 
REMARK  7 active torsions:
REMARK  status: ('A' for Active; 'I' for Inactive)
REMARK    1  A    between atoms: C_1  and  N_2
REMARK    2  A    between atoms: C_3  and  C_5
REMARK    3  A    between atoms: C_5  and  O_6
REMARK    4  A    between atoms: O_6  and  C_7
REMARK    5  A    between atoms: C_10  and  C_11
REMARK    6  A    between atoms: C_11  and  N_12
REMARK    7  A    between atoms: C_16  and  C_18
REMARK                            x       y       z     vdW  Elec       q    Type
REMARK                         _______ _______ _______ _____ _____    ______ ____
ROOT
ATOM      1  C   UNL     1       2.071   7.305  19.101  0.00  0.00    +0.000 A 
ATOM      2  C   UNL     1       2.176   6.474  18.049  0.00  0.00    +0.000 A 
ATOM      3  O   UNL     1       2.017   5.095  18.093  0.00  0.00    +0.000 OA
ATOM      4  C   UNL     1       1.834   4.484  19.341  0.00  0.00    +0.000 A 
ATOM      5  C   UNL     1       1.715   5.210  20.457  0.00  0.00    +0.000 A 
ATOM      6  C   UNL     1       1.726   6.675  20.406  0.00  0.00    +0.000 A 
ATOM      7  O   UNL     1       1.479   7.339  21.407  0.00  0.00    +0.000 OA
ENDROOT
BRANCH   1   8
ATOM      8  O   UNL     1       2.259   8.669  19.119  0.00  0.00    +0.000 OA
BRANCH   8   9
ATOM      9  C   UNL     1       2.188   9.366  17.883  0.00  0.00    +0.000 C 
BRANCH   9  12
ATOM     10  C   UNL     1       0.001  12.378  18.753  0.00  0.00    +0.000 C 
ATOM     11  N   UNL     1       0.499  11.052  18.486  0.00  0.00    +0.000 N 
ATOM     12  C   UNL     1       1.794  10.835  18.082  0.00  0.00    +0.000 C 
ATOM     13  O   UNL     1       2.603  11.747  17.906  0.00  0.00    +0.000 OA
ATOM     14  H   UNL     1      -0.129  10.253  18.548  0.00  0.00    +0.000 HD
ENDBRANCH   9  12
ENDBRANCH   8   9
ENDBRANCH   1   8
BRANCH   4  15
ATOM     15  C   UNL     1       1.773   2.957  19.337  0.00  0.00    +0.000 C 
BRANCH  15  16
ATOM     16  N   UNL     1       3.104   2.322  19.339  0.00  0.00    +0.000 NA
ATOM     17  C   UNL     1       3.561   1.818  18.033  0.00  0.00    +0.000 C 
ATOM     18  C   UNL     1       4.142   2.861  17.063  0.00  0.00    +0.000 C 
ATOM     19  N   UNL     1       5.056   3.833  17.665  0.00  0.00    +0.000 N 
ATOM     20  C   UNL     1       5.648   4.747  16.760  0.00  0.00    +0.000 C 
ATOM     21  O   UNL     1       5.380   4.696  15.554  0.00  0.00    +0.000 OA
ATOM     22  C   UNL     1       4.791   4.225  19.055  0.00  0.00    +0.000 C 
ATOM     23  C   UNL     1       4.179   3.121  19.937  0.00  0.00    +0.000 C 
BRANCH  20  24
ATOM     24  C   UNL     1       6.556   5.759  17.281  0.00  0.00    +0.000 A 
ATOM     25  C   UNL     1       7.513   5.686  18.282  0.00  0.00    +0.000 A 
ATOM     26  C   UNL     1       8.046   6.990  18.440  0.00  0.00    +0.000 A 
ATOM     27  C   UNL     1       7.380   7.783  17.540  0.00  0.00    +0.000 A 
ATOM     28  O   UNL     1       6.474   7.053  16.841  0.00  0.00    +0.000 OA
ENDBRANCH  20  24
ENDBRANCH  15  16
ENDBRANCH   4  15
TORSDOF 6
ENDMDL
