MODEL 1
REMARK VINA RESULT:      -8.3      0.000      0.000
REMARK  Name = 
REMARK  7 active torsions:
REMARK  status: ('A' for Active; 'I' for Inactive)
REMARK    1  A    between atoms: C_1  and  C_2
REMARK    2  A    between atoms: C_5  and  O_6
REMARK    3  A    between atoms: O_6  and  C_7
REMARK    4  A    between atoms: C_7  and  C_8
REMARK    5  A    between atoms: C_7  and  C_9
REMARK    6  A    between atoms: N_11  and  C_12
REMARK    7  A    between atoms: C_20  and  N_21
REMARK                            x       y       z     vdW  Elec       q    Type
REMARK                         _______ _______ _______ _____ _____    ______ ____
ROOT
ATOM      1  C   UNL     1       3.552   3.140  17.161  0.00  0.00    +0.000 C 
ATOM      2  C   UNL     1       3.360   1.898  18.031  0.00  0.00    +0.000 C 
ENDROOT
BRANCH   1   3
ATOM      3  C   UNL     1       2.583   4.239  17.636  0.00  0.00    +0.000 C 
ATOM      4  O   UNL     1       1.379   4.169  17.398  0.00  0.00    +0.000 OA
ATOM      5  N   UNL     1       3.219   5.318  18.228  0.00  0.00    +0.000 N 
ATOM      6  H   UNL     1       4.236   5.308  18.253  0.00  0.00    +0.000 HD
BRANCH   5   7
ATOM      7  C   UNL     1       2.600   6.471  18.766  0.00  0.00    +0.000 A 
ATOM      8  C   UNL     1       2.456   7.654  18.034  0.00  0.00    +0.000 A 
ATOM      9  C   UNL     1       1.864   8.782  18.608  0.00  0.00    +0.000 A 
ATOM     10  C   UNL     1       1.409   8.735  19.921  0.00  0.00    +0.000 A 
ATOM     11 CL   UNL     1       0.717  10.140  20.632  0.00  0.00    +0.000 Cl
ATOM     12  C   UNL     1       1.516   7.561  20.662  0.00  0.00    +0.000 A 
ATOM     13  C   UNL     1       2.098   6.432  20.081  0.00  0.00    +0.000 A 
ATOM     14 CL   UNL     1       2.232   4.998  21.043  0.00  0.00    +0.000 Cl
ENDBRANCH   5   7
ENDBRANCH   1   3
BRANCH   1  15
ATOM     15  O   UNL     1       4.891   3.620  17.277  0.00  0.00    +0.000 OA
BRANCH  15  20
ATOM     16  C   UNL     1       8.072   5.382  12.964  0.00  0.00    +0.000 C 
ATOM     17  C   UNL     1       7.175   4.911  14.070  0.00  0.00    +0.000 A 
ATOM     18  C   UNL     1       6.029   4.174  13.798  0.00  0.00    +0.000 A 
ATOM     19  C   UNL     1       5.232   3.730  14.856  0.00  0.00    +0.000 A 
ATOM     20  C   UNL     1       5.578   4.036  16.171  0.00  0.00    +0.000 A 
ATOM     21  C   UNL     1       6.734   4.813  16.354  0.00  0.00    +0.000 A 
ATOM     22  N   UNL     1       7.533   5.243  15.327  0.00  0.00    +0.000 NA
BRANCH  21  23
ATOM     23  N   UNL     1       7.062   5.172  17.742  0.00  0.00    +0.000 N 
ATOM     24  O   UNL     1       7.950   4.517  18.311  0.00  0.00    +0.000 OA
ATOM     25  O   UNL     1       6.415   6.099  18.255  0.00  0.00    +0.000 OA
ENDBRANCH  21  23
ENDBRANCH  15  20
ENDBRANCH   1  15
TORSDOF 5
ENDMDL
MODEL 2
REMARK VINA RESULT:      -7.7      1.339      1.765
REMARK  Name = 
REMARK  7 active torsions:
REMARK  status: ('A' for Active; 'I' for Inactive)
REMARK    1  A    between atoms: C_1  and  C_2
REMARK    2  A    between atoms: C_5  and  O_6
REMARK    3  A    between atoms: O_6  and  C_7
REMARK    4  A    between atoms: C_7  and  C_8
REMARK    5  A    between atoms: C_7  and  C_9
REMARK    6  A    between atoms: N_11  and  C_12
REMARK    7  A    between atoms: C_20  and  N_21
REMARK                            x       y       z     vdW  Elec       q    Type
REMARK                         _______ _______ _______ _____ _____    ______ ____
ROOT
ATOM      1  C   UNL     1       4.066   3.496  18.397  0.00  0.00    +0.000 C 
ATOM      2  C   UNL     1       4.100   2.693  19.697  0.00  0.00    +0.000 C 
ENDROOT
BRANCH   1   3
ATOM      3  C   UNL     1       2.964   4.567  18.498  0.00  0.00    +0.000 C 
ATOM      4  O   UNL     1       1.908   4.452  17.878  0.00  0.00    +0.000 OA
ATOM      5  N   UNL     1       3.337   5.677  19.239  0.00  0.00    +0.000 N 
ATOM      6  H   UNL     1       4.289   5.703  19.598  0.00  0.00    +0.000 HD
BRANCH   5   7
ATOM      7  C   UNL     1       2.543   6.815  19.514  0.00  0.00    +0.000 A 
ATOM      8  C   UNL     1       1.835   6.962  20.711  0.00  0.00    +0.000 A 
ATOM      9  C   UNL     1       1.039   8.088  20.937  0.00  0.00    +0.000 A 
ATOM     10  C   UNL     1       0.946   9.079  19.965  0.00  0.00    +0.000 A 
ATOM     11 CL   UNL     1      -0.066  10.442  20.235  0.00  0.00    +0.000 Cl
ATOM     12  C   UNL     1       1.663   8.969  18.777  0.00  0.00    +0.000 A 
ATOM     13  C   UNL     1       2.466   7.847  18.560  0.00  0.00    +0.000 A 
ATOM     14 CL   UNL     1       3.324   7.737  17.059  0.00  0.00    +0.000 Cl
ENDBRANCH   5   7
ENDBRANCH   1   3
BRANCH   1  15
ATOM     15  O   UNL     1       5.322   4.141  18.184  0.00  0.00    +0.000 OA
BRANCH  15  20
ATOM     16  C   UNL     1       7.607   5.116  13.119  0.00  0.00    +0.000 C 
ATOM     17  C   UNL     1       6.940   4.853  14.436  0.00  0.00    +0.000 A 
ATOM     18  C   UNL     1       5.727   4.180  14.504  0.00  0.00    +0.000 A 
ATOM     19  C   UNL     1       5.149   3.931  15.751  0.00  0.00    +0.000 A 
ATOM     20  C   UNL     1       5.780   4.365  16.916  0.00  0.00    +0.000 A 
ATOM     21  C   UNL     1       6.986   5.066  16.755  0.00  0.00    +0.000 A 
ATOM     22  N   UNL     1       7.572   5.305  15.539  0.00  0.00    +0.000 NA
BRANCH  21  23
ATOM     23  N   UNL     1       7.618   5.564  17.987  0.00  0.00    +0.000 N 
ATOM     24  O   UNL     1       7.641   6.792  18.164  0.00  0.00    +0.000 OA
ATOM     25  O   UNL     1       8.099   4.718  18.758  0.00  0.00    +0.000 OA
ENDBRANCH  21  23
ENDBRANCH  15  20
ENDBRANCH   1  15
TORSDOF 5
ENDMDL
MODEL 3
REMARK VINA RESULT:      -7.6      1.099      1.135
REMARK  Name = 
REMARK  7 active torsions:
REMARK  status: ('A' for Active; 'I' for Inactive)
REMARK    1  A    between atoms: C_1  and  C_2
REMARK    2  A    between atoms: C_5  and  O_6
REMARK    3  A    between atoms: O_6  and  C_7
REMARK    4  A    between atoms: C_7  and  C_8
REMARK    5  A    between atoms: C_7  and  C_9
REMARK    6  A    between atoms: N_11  and  C_12
REMARK    7  A    between atoms: C_20  and  N_21
REMARK                            x       y       z     vdW  Elec       q    Type
REMARK                         _______ _______ _______ _____ _____    ______ ____
ROOT
ATOM      1  C   UNL     1       3.921   3.945  17.611  0.00  0.00    +0.000 C 
ATOM      2  C   UNL     1       3.371   2.820  18.487  0.00  0.00    +0.000 C 
ENDROOT
BRANCH   1   3
ATOM      3  C   UNL     1       3.757   5.285  18.353  0.00  0.00    +0.000 C 
ATOM      4  O   UNL     1       4.573   5.645  19.200  0.00  0.00    +0.000 OA
ATOM      5  N   UNL     1       2.576   5.943  18.050  0.00  0.00    +0.000 N 
ATOM      6  H   UNL     1       1.925   5.476  17.423  0.00  0.00    +0.000 HD
BRANCH   5   7
ATOM      7  C   UNL     1       2.150   7.191  18.564  0.00  0.00    +0.000 A 
ATOM      8  C   UNL     1       2.151   8.358  17.794  0.00  0.00    +0.000 A 
ATOM      9  C   UNL     1       1.748   9.578  18.343  0.00  0.00    +0.000 A 
ATOM     10  C   UNL     1       1.338   9.640  19.671  0.00  0.00    +0.000 A 
ATOM     11 CL   UNL     1       0.880  11.151  20.350  0.00  0.00    +0.000 Cl
ATOM     12  C   UNL     1       1.301   8.487  20.451  0.00  0.00    +0.000 A 
ATOM     13  C   UNL     1       1.695   7.267  19.894  0.00  0.00    +0.000 A 
ATOM     14 CL   UNL     1       1.656   5.861  20.904  0.00  0.00    +0.000 Cl
ENDBRANCH   5   7
ENDBRANCH   1   3
BRANCH   1  15
ATOM     15  O   UNL     1       5.307   3.729  17.345  0.00  0.00    +0.000 OA
BRANCH  15  20
ATOM     16  C   UNL     1       7.920   5.325  12.606  0.00  0.00    +0.000 C 
ATOM     17  C   UNL     1       7.169   4.895  13.831  0.00  0.00    +0.000 A 
ATOM     18  C   UNL     1       6.011   4.135  13.733  0.00  0.00    +0.000 A 
ATOM     19  C   UNL     1       5.353   3.731  14.897  0.00  0.00    +0.000 A 
ATOM     20  C   UNL     1       5.849   4.101  16.146  0.00  0.00    +0.000 A 
ATOM     21  C   UNL     1       7.006   4.898  16.154  0.00  0.00    +0.000 A 
ATOM     22  N   UNL     1       7.670   5.289  15.021  0.00  0.00    +0.000 NA
BRANCH  21  23
ATOM     23  N   UNL     1       7.492   5.324  17.476  0.00  0.00    +0.000 N 
ATOM     24  O   UNL     1       7.985   4.456  18.214  0.00  0.00    +0.000 OA
ATOM     25  O   UNL     1       7.361   6.524  17.767  0.00  0.00    +0.000 OA
ENDBRANCH  21  23
ENDBRANCH  15  20
ENDBRANCH   1  15
TORSDOF 5
ENDMDL
MODEL 4
REMARK VINA RESULT:      -7.2      1.457      1.879
REMARK  Name = 
REMARK  7 active torsions:
REMARK  status: ('A' for Active; 'I' for Inactive)
REMARK    1  A    between atoms: C_1  and  C_2
REMARK    2  A    between atoms: C_5  and  O_6
REMARK    3  A    between atoms: O_6  and  C_7
REMARK    4  A    between atoms: C_7  and  C_8
REMARK    5  A    between atoms: C_7  and  C_9
REMARK    6  A    between atoms: N_11  and  C_12
REMARK    7  A    between atoms: C_20  and  N_21
REMARK                            x       y       z     vdW  Elec       q    Type
REMARK                         _______ _______ _______ _____ _____    ______ ____
ROOT
ATOM      1  C   UNL     1       3.898   3.776  17.558  0.00  0.00    +0.000 C 
ATOM      2  C   UNL     1       3.278   2.483  18.087  0.00  0.00    +0.000 C 
ENDROOT
BRANCH   1   3
ATOM      3  C   UNL     1       3.719   4.885  18.611  0.00  0.00    +0.000 C 
ATOM      4  O   UNL     1       4.568   5.078  19.480  0.00  0.00    +0.000 OA
ATOM      5  N   UNL     1       2.493   5.526  18.536  0.00  0.00    +0.000 N 
ATOM      6  H   UNL     1       1.827   5.187  17.846  0.00  0.00    +0.000 HD
BRANCH   5   7
ATOM      7  C   UNL     1       2.043   6.586  19.359  0.00  0.00    +0.000 A 
ATOM      8  C   UNL     1       1.552   6.373  20.651  0.00  0.00    +0.000 A 
ATOM      9  C   UNL     1       1.090   7.441  21.426  0.00  0.00    +0.000 A 
ATOM     10  C   UNL     1       1.116   8.733  20.912  0.00  0.00    +0.000 A 
ATOM     11 CL   UNL     1       0.510  10.035  21.856  0.00  0.00    +0.000 Cl
ATOM     12  C   UNL     1       1.625   8.974  19.639  0.00  0.00    +0.000 A 
ATOM     13  C   UNL     1       2.096   7.905  18.873  0.00  0.00    +0.000 A 
ATOM     14 CL   UNL     1       2.700   8.245  17.285  0.00  0.00    +0.000 Cl
ENDBRANCH   5   7
ENDBRANCH   1   3
BRANCH   1  15
ATOM     15  O   UNL     1       5.292   3.590  17.313  0.00  0.00    +0.000 OA
BRANCH  15  20
ATOM     16  C   UNL     1       7.970   5.399  12.689  0.00  0.00    +0.000 C 
ATOM     17  C   UNL     1       7.203   4.911  13.882  0.00  0.00    +0.000 A 
ATOM     18  C   UNL     1       6.084   4.102  13.733  0.00  0.00    +0.000 A 
ATOM     19  C   UNL     1       5.411   3.646  14.869  0.00  0.00    +0.000 A 
ATOM     20  C   UNL     1       5.852   4.010  16.140  0.00  0.00    +0.000 A 
ATOM     21  C   UNL     1       6.972   4.856  16.199  0.00  0.00    +0.000 A 
ATOM     22  N   UNL     1       7.651   5.300  15.094  0.00  0.00    +0.000 NA
BRANCH  21  23
ATOM     23  N   UNL     1       7.400   5.275  17.542  0.00  0.00    +0.000 N 
ATOM     24  O   UNL     1       7.157   6.444  17.885  0.00  0.00    +0.000 OA
ATOM     25  O   UNL     1       7.990   4.432  18.237  0.00  0.00    +0.000 OA
ENDBRANCH  21  23
ENDBRANCH  15  20
ENDBRANCH   1  15
TORSDOF 5
ENDMDL
MODEL 5
REMARK VINA RESULT:      -7.0      2.017      2.556
REMARK  Name = 
REMARK  7 active torsions:
REMARK  status: ('A' for Active; 'I' for Inactive)
REMARK    1  A    between atoms: C_1  and  C_2
REMARK    2  A    between atoms: C_5  and  O_6
REMARK    3  A    between atoms: O_6  and  C_7
REMARK    4  A    between atoms: C_7  and  C_8
REMARK    5  A    between atoms: C_7  and  C_9
REMARK    6  A    between atoms: N_11  and  C_12
REMARK    7  A    between atoms: C_20  and  N_21
REMARK                            x       y       z     vdW  Elec       q    Type
REMARK                         _______ _______ _______ _____ _____    ______ ____
ROOT
ATOM      1  C   UNL     1       3.450   4.606  19.254  0.00  0.00    +0.000 C 
ATOM      2  C   UNL     1       3.766   3.391  20.126  0.00  0.00    +0.000 C 
ENDROOT
BRANCH   1   3
ATOM      3  C   UNL     1       2.486   5.534  20.018  0.00  0.00    +0.000 C 
ATOM      4  O   UNL     1       1.654   5.078  20.801  0.00  0.00    +0.000 OA
ATOM      5  N   UNL     1       2.586   6.863  19.643  0.00  0.00    +0.000 N 
ATOM      6  H   UNL     1       3.232   7.092  18.891  0.00  0.00    +0.000 HD
BRANCH   5   7
ATOM      7  C   UNL     1       1.842   7.947  20.168  0.00  0.00    +0.000 A 
ATOM      8  C   UNL     1       1.505   8.037  21.522  0.00  0.00    +0.000 A 
ATOM      9  C   UNL     1       0.745   9.108  22.000  0.00  0.00    +0.000 A 
ATOM     10  C   UNL     1       0.317  10.101  21.124  0.00  0.00    +0.000 A 
ATOM     11 CL   UNL     1      -0.650  11.395  21.713  0.00  0.00    +0.000 Cl
ATOM     12  C   UNL     1       0.663  10.048  19.777  0.00  0.00    +0.000 A 
ATOM     13  C   UNL     1       1.432   8.981  19.306  0.00  0.00    +0.000 A 
ATOM     14 CL   UNL     1       1.822   8.940  17.618  0.00  0.00    +0.000 Cl
ENDBRANCH   5   7
ENDBRANCH   1   3
BRANCH   1  15
ATOM     15  O   UNL     1       4.647   5.325  18.957  0.00  0.00    +0.000 OA
BRANCH  15  20
ATOM     16  C   UNL     1       7.421   4.851  14.068  0.00  0.00    +0.000 C 
ATOM     17  C   UNL     1       6.628   4.989  15.333  0.00  0.00    +0.000 A 
ATOM     18  C   UNL     1       5.256   4.773  15.348  0.00  0.00    +0.000 A 
ATOM     19  C   UNL     1       4.556   4.886  16.551  0.00  0.00    +0.000 A 
ATOM     20  C   UNL     1       5.228   5.226  17.724  0.00  0.00    +0.000 A 
ATOM     21  C   UNL     1       6.608   5.458  17.614  0.00  0.00    +0.000 A 
ATOM     22  N   UNL     1       7.311   5.337  16.444  0.00  0.00    +0.000 NA
BRANCH  21  23
ATOM     23  N   UNL     1       7.299   5.865  18.848  0.00  0.00    +0.000 N 
ATOM     24  O   UNL     1       8.046   6.854  18.789  0.00  0.00    +0.000 OA
ATOM     25  O   UNL     1       7.098   5.177  19.862  0.00  0.00    +0.000 OA
ENDBRANCH  21  23
ENDBRANCH  15  20
ENDBRANCH   1  15
TORSDOF 5
ENDMDL
MODEL 6
REMARK VINA RESULT:      -7.0      1.351      1.561
REMARK  Name = 
REMARK  7 active torsions:
REMARK  status: ('A' for Active; 'I' for Inactive)
REMARK    1  A    between atoms: C_1  and  C_2
REMARK    2  A    between atoms: C_5  and  O_6
REMARK    3  A    between atoms: O_6  and  C_7
REMARK    4  A    between atoms: C_7  and  C_8
REMARK    5  A    between atoms: C_7  and  C_9
REMARK    6  A    between atoms: N_11  and  C_12
REMARK    7  A    between atoms: C_20  and  N_21
REMARK                            x       y       z     vdW  Elec       q    Type
REMARK                         _______ _______ _______ _____ _____    ______ ____
ROOT
ATOM      1  C   UNL     1       3.513   3.999  18.652  0.00  0.00    +0.000 C 
ATOM      2  C   UNL     1       3.257   3.496  20.073  0.00  0.00    +0.000 C 
ENDROOT
BRANCH   1   3
ATOM      3  C   UNL     1       2.581   5.191  18.367  0.00  0.00    +0.000 C 
ATOM      4  O   UNL     1       1.617   5.076  17.611  0.00  0.00    +0.000 OA
ATOM      5  N   UNL     1       3.007   6.377  18.941  0.00  0.00    +0.000 N 
ATOM      6  H   UNL     1       3.892   6.364  19.444  0.00  0.00    +0.000 HD
BRANCH   5   7
ATOM      7  C   UNL     1       2.362   7.634  18.863  0.00  0.00    +0.000 A 
ATOM      8  C   UNL     1       2.468   8.461  17.741  0.00  0.00    +0.000 A 
ATOM      9  C   UNL     1       1.839   9.709  17.711  0.00  0.00    +0.000 A 
ATOM     10  C   UNL     1       1.094  10.138  18.804  0.00  0.00    +0.000 A 
ATOM     11 CL   UNL     1       0.354  11.690  18.774  0.00  0.00    +0.000 Cl
ATOM     12  C   UNL     1       0.950   9.320  19.922  0.00  0.00    +0.000 A 
ATOM     13  C   UNL     1       1.572   8.069  19.944  0.00  0.00    +0.000 A 
ATOM     14 CL   UNL     1       1.387   7.092  21.362  0.00  0.00    +0.000 Cl
ENDBRANCH   5   7
ENDBRANCH   1   3
BRANCH   1  15
ATOM     15  O   UNL     1       4.868   4.428  18.518  0.00  0.00    +0.000 OA
BRANCH  15  20
ATOM     16  C   UNL     1       7.562   5.114  13.609  0.00  0.00    +0.000 C 
ATOM     17  C   UNL     1       6.789   4.926  14.881  0.00  0.00    +0.000 A 
ATOM     18  C   UNL     1       5.571   4.259  14.888  0.00  0.00    +0.000 A 
ATOM     19  C   UNL     1       4.892   4.080  16.096  0.00  0.00    +0.000 A 
ATOM     20  C   UNL     1       5.429   4.580  17.281  0.00  0.00    +0.000 A 
ATOM     21  C   UNL     1       6.648   5.270  17.179  0.00  0.00    +0.000 A 
ATOM     22  N   UNL     1       7.332   5.440  16.004  0.00  0.00    +0.000 NA
BRANCH  21  23
ATOM     23  N   UNL     1       7.180   5.836  18.429  0.00  0.00    +0.000 N 
ATOM     24  O   UNL     1       7.751   6.937  18.363  0.00  0.00    +0.000 OA
ATOM     25  O   UNL     1       7.035   5.164  19.462  0.00  0.00    +0.000 OA
ENDBRANCH  21  23
ENDBRANCH  15  20
ENDBRANCH   1  15
TORSDOF 5
ENDMDL
MODEL 7
REMARK VINA RESULT:      -6.7      1.837      2.315
REMARK  Name = 
REMARK  7 active torsions:
REMARK  status: ('A' for Active; 'I' for Inactive)
REMARK    1  A    between atoms: C_1  and  C_2
REMARK    2  A    between atoms: C_5  and  O_6
REMARK    3  A    between atoms: O_6  and  C_7
REMARK    4  A    between atoms: C_7  and  C_8
REMARK    5  A    between atoms: C_7  and  C_9
REMARK    6  A    between atoms: N_11  and  C_12
REMARK    7  A    between atoms: C_20  and  N_21
REMARK                            x       y       z     vdW  Elec       q    Type
REMARK                         _______ _______ _______ _____ _____    ______ ____
ROOT
ATOM      1  C   UNL     1       3.738   5.374  18.243  0.00  0.00    +0.000 C 
ATOM      2  C   UNL     1       3.376   4.923  19.657  0.00  0.00    +0.000 C 
ENDROOT
BRANCH   1   3
ATOM      3  C   UNL     1       3.339   6.851  18.070  0.00  0.00    +0.000 C 
ATOM      4  O   UNL     1       3.919   7.575  17.262  0.00  0.00    +0.000 OA
ATOM      5  N   UNL     1       2.377   7.273  18.972  0.00  0.00    +0.000 N 
ATOM      6  H   UNL     1       2.066   6.605  19.674  0.00  0.00    +0.000 HD
BRANCH   5   7
ATOM      7  C   UNL     1       1.807   8.566  19.056  0.00  0.00    +0.000 A 
ATOM      8  C   UNL     1       1.863   9.479  17.999  0.00  0.00    +0.000 A 
ATOM      9  C   UNL     1       1.313  10.757  18.128  0.00  0.00    +0.000 A 
ATOM     10  C   UNL     1       0.699  11.132  19.318  0.00  0.00    +0.000 A 
ATOM     11 CL   UNL     1       0.059  12.719  19.482  0.00  0.00    +0.000 Cl
ATOM     12  C   UNL     1       0.606  10.232  20.376  0.00  0.00    +0.000 A 
ATOM     13  C   UNL     1       1.148   8.951  20.239  0.00  0.00    +0.000 A 
ATOM     14 CL   UNL     1       1.031   7.868  21.586  0.00  0.00    +0.000 Cl
ENDBRANCH   5   7
ENDBRANCH   1   3
BRANCH   1  15
ATOM     15  O   UNL     1       5.144   5.246  18.030  0.00  0.00    +0.000 OA
BRANCH  15  20
ATOM     16  C   UNL     1       7.591   4.741  12.972  0.00  0.00    +0.000 C 
ATOM     17  C   UNL     1       6.883   4.859  14.289  0.00  0.00    +0.000 A 
ATOM     18  C   UNL     1       5.706   4.163  14.535  0.00  0.00    +0.000 A 
ATOM     19  C   UNL     1       5.089   4.277  15.783  0.00  0.00    +0.000 A 
ATOM     20  C   UNL     1       5.644   5.093  16.767  0.00  0.00    +0.000 A 
ATOM     21  C   UNL     1       6.817   5.786  16.424  0.00  0.00    +0.000 A 
ATOM     22  N   UNL     1       7.441   5.672  15.209  0.00  0.00    +0.000 NA
BRANCH  21  23
ATOM     23  N   UNL     1       7.367   6.682  17.453  0.00  0.00    +0.000 N 
ATOM     24  O   UNL     1       7.254   7.905  17.269  0.00  0.00    +0.000 OA
ATOM     25  O   UNL     1       7.921   6.151  18.429  0.00  0.00    +0.000 OA
ENDBRANCH  21  23
ENDBRANCH  15  20
ENDBRANCH   1  15
TORSDOF 5
ENDMDL
MODEL 8
REMARK VINA RESULT:      -6.7      2.975      5.105
REMARK  Name = 
REMARK  7 active torsions:
REMARK  status: ('A' for Active; 'I' for Inactive)
REMARK    1  A    between atoms: C_1  and  C_2
REMARK    2  A    between atoms: C_5  and  O_6
REMARK    3  A    between atoms: O_6  and  C_7
REMARK    4  A    between atoms: C_7  and  C_8
REMARK    5  A    between atoms: C_7  and  C_9
REMARK    6  A    between atoms: N_11  and  C_12
REMARK    7  A    between atoms: C_20  and  N_21
REMARK                            x       y       z     vdW  Elec       q    Type
REMARK                         _______ _______ _______ _____ _____    ______ ____
ROOT
ATOM      1  C   UNL     1       2.409   7.996  18.925  0.00  0.00    +0.000 C 
ATOM      2  C   UNL     1       1.852   8.610  17.641  0.00  0.00    +0.000 C 
ENDROOT
BRANCH   1   3
ATOM      3  C   UNL     1       1.488   8.372  20.101  0.00  0.00    +0.000 C 
ATOM      4  O   UNL     1       1.211   7.554  20.977  0.00  0.00    +0.000 OA
ATOM      5  N   UNL     1       0.942   9.640  19.992  0.00  0.00    +0.000 N 
ATOM      6  H   UNL     1       1.154  10.173  19.151  0.00  0.00    +0.000 HD
BRANCH   5   7
ATOM      7  C   UNL     1       0.069  10.266  20.913  0.00  0.00    +0.000 A 
ATOM      8  C   UNL     1      -0.038   9.850  22.244  0.00  0.00    +0.000 A 
ATOM      9  C   UNL     1      -0.932  10.474  23.119  0.00  0.00    +0.000 A 
ATOM     10  C   UNL     1      -1.725  11.524  22.669  0.00  0.00    +0.000 A 
ATOM     11 CL   UNL     1      -2.849  12.261  23.741  0.00  0.00    +0.000 Cl
ATOM     12  C   UNL     1      -1.617  11.975  21.356  0.00  0.00    +0.000 A 
ATOM     13  C   UNL     1      -0.715  11.355  20.488  0.00  0.00    +0.000 A 
ATOM     14 CL   UNL     1      -0.627  11.931  18.857  0.00  0.00    +0.000 Cl
ENDBRANCH   5   7
ENDBRANCH   1   3
BRANCH   1  15
ATOM     15  O   UNL     1       2.458   6.574  18.811  0.00  0.00    +0.000 OA
BRANCH  15  20
ATOM     16  C   UNL     1       6.030   3.827  15.417  0.00  0.00    +0.000 C 
ATOM     17  C   UNL     1       5.131   4.595  16.340  0.00  0.00    +0.000 A 
ATOM     18  C   UNL     1       5.448   5.886  16.740  0.00  0.00    +0.000 A 
ATOM     19  C   UNL     1       4.574   6.580  17.579  0.00  0.00    +0.000 A 
ATOM     20  C   UNL     1       3.398   5.974  18.021  0.00  0.00    +0.000 A 
ATOM     21  C   UNL     1       3.171   4.655  17.595  0.00  0.00    +0.000 A 
ATOM     22  N   UNL     1       4.013   3.968  16.760  0.00  0.00    +0.000 NA
BRANCH  21  23
ATOM     23  N   UNL     1       1.953   4.008  18.108  0.00  0.00    +0.000 N 
ATOM     24  O   UNL     1       0.942   4.033  17.387  0.00  0.00    +0.000 OA
ATOM     25  O   UNL     1       2.017   3.493  19.236  0.00  0.00    +0.000 OA
ENDBRANCH  21  23
ENDBRANCH  15  20
ENDBRANCH   1  15
TORSDOF 5
ENDMDL
MODEL 9
REMARK VINA RESULT:      -6.7      2.371      3.412
REMARK  Name = 
REMARK  7 active torsions:
REMARK  status: ('A' for Active; 'I' for Inactive)
REMARK    1  A    between atoms: C_1  and  C_2
REMARK    2  A    between atoms: C_5  and  O_6
REMARK    3  A    between atoms: O_6  and  C_7
REMARK    4  A    between atoms: C_7  and  C_8
REMARK    5  A    between atoms: C_7  and  C_9
REMARK    6  A    between atoms: N_11  and  C_12
REMARK    7  A    between atoms: C_20  and  N_21
REMARK                            x       y       z     vdW  Elec       q    Type
REMARK                         _______ _______ _______ _____ _____    ______ ____
ROOT
ATOM      1  C   UNL     1       2.599   6.169  18.655  0.00  0.00    +0.000 C 
ATOM      2  C   UNL     1       2.253   4.681  18.705  0.00  0.00    +0.000 C 
ENDROOT
BRANCH   1   3
ATOM      3  C   UNL     1       1.944   6.877  19.856  0.00  0.00    +0.000 C 
ATOM      4  O   UNL     1       1.759   6.285  20.918  0.00  0.00    +0.000 OA
ATOM      5  N   UNL     1       1.504   8.158  19.569  0.00  0.00    +0.000 N 
ATOM      6  H   UNL     1       1.607   8.487  18.612  0.00  0.00    +0.000 HD
BRANCH   5   7
ATOM      7  C   UNL     1       0.872   9.055  20.464  0.00  0.00    +0.000 A 
ATOM      8  C   UNL     1       1.045   8.974  21.849  0.00  0.00    +0.000 A 
ATOM      9  C   UNL     1       0.383   9.860  22.705  0.00  0.00    +0.000 A 
ATOM     10  C   UNL     1      -0.456  10.836  22.179  0.00  0.00    +0.000 A 
ATOM     11 CL   UNL     1      -1.296  11.897  23.240  0.00  0.00    +0.000 Cl
ATOM     12  C   UNL     1      -0.623  10.954  20.802  0.00  0.00    +0.000 A 
ATOM     13  C   UNL     1       0.049  10.074  19.950  0.00  0.00    +0.000 A 
ATOM     14 CL   UNL     1      -0.202  10.240  18.244  0.00  0.00    +0.000 Cl
ENDBRANCH   5   7
ENDBRANCH   1   3
BRANCH   1  15
ATOM     15  O   UNL     1       4.014   6.348  18.727  0.00  0.00    +0.000 OA
BRANCH  15  20
ATOM     16  C   UNL     1       7.384   4.786  14.481  0.00  0.00    +0.000 C 
ATOM     17  C   UNL     1       6.477   5.258  15.578  0.00  0.00    +0.000 A 
ATOM     18  C   UNL     1       5.485   6.200  15.333  0.00  0.00    +0.000 A 
ATOM     19  C   UNL     1       4.642   6.596  16.374  0.00  0.00    +0.000 A 
ATOM     20  C   UNL     1       4.805   6.060  17.650  0.00  0.00    +0.000 A 
ATOM     21  C   UNL     1       5.853   5.139  17.818  0.00  0.00    +0.000 A 
ATOM     22  N   UNL     1       6.678   4.731  16.803  0.00  0.00    +0.000 NA
BRANCH  21  23
ATOM     23  N   UNL     1       6.047   4.617  19.180  0.00  0.00    +0.000 N 
ATOM     24  O   UNL     1       5.397   3.612  19.508  0.00  0.00    +0.000 OA
ATOM     25  O   UNL     1       6.839   5.231  19.914  0.00  0.00    +0.000 OA
ENDBRANCH  21  23
ENDBRANCH  15  20
ENDBRANCH   1  15
TORSDOF 5
ENDMDL
