MODEL 1
REMARK VINA RESULT:      -8.2      0.000      0.000
REMARK  Name = 
REMARK  8 active torsions:
REMARK  status: ('A' for Active; 'I' for Inactive)
REMARK    1  A    between atoms: O_1  and  C_2
REMARK    2  A    between atoms: C_2  and  C_3
REMARK    3  A    between atoms: C_5  and  C_6
REMARK    4  A    between atoms: C_8  and  C_9
REMARK    5  A    between atoms: C_13  and  C_14
REMARK    6  A    between atoms: C_23  and  O_24
REMARK    7  A    between atoms: C_25  and  O_26
REMARK    8  A    between atoms: C_27  and  O_28
REMARK                            x       y       z     vdW  Elec       q    Type
REMARK                         _______ _______ _______ _____ _____    ______ ____
ROOT
ATOM      1  C   UNL     1       2.257   7.098  19.905  0.00  0.00    +0.000 A 
ATOM      2  N   UNL     1       2.000   8.105  19.100  0.00  0.00    +0.000 NA
ATOM      3  C   UNL     1       1.254   8.970  19.882  0.00  0.00    +0.000 A 
ATOM      4  N   UNL     1       1.075   8.538  21.138  0.00  0.00    +0.000 NA
ATOM      5  N   UNL     1       1.699   7.361  21.124  0.00  0.00    +0.000 N 
ATOM      6  H   UNL     1       1.654   6.751  21.934  0.00  0.00    +0.000 HD
ENDROOT
BRANCH   1   9
ATOM      7  C   UNL     1       4.825   4.850  18.528  0.00  0.00    +0.000 C 
ATOM      8  O   UNL     1       4.091   6.048  18.809  0.00  0.00    +0.000 OA
ATOM      9  C   UNL     1       2.961   5.801  19.656  0.00  0.00    +0.000 C 
ATOM     10  C   UNL     1       1.978   4.799  19.021  0.00  0.00    +0.000 C 
ATOM     11  C   UNL     1       2.698   3.553  18.508  0.00  0.00    +0.000 C 
ATOM     12  C   UNL     1       3.946   3.902  17.686  0.00  0.00    +0.000 C 
BRANCH  10  13
ATOM     13  O   UNL     1       0.995   4.424  20.015  0.00  0.00    +0.000 OA
ATOM     14  H   UNL     1       1.421   4.532  20.890  0.00  0.00    +0.000 HD
ENDBRANCH  10  13
BRANCH  11  15
ATOM     15  O   UNL     1       1.748   2.767  17.772  0.00  0.00    +0.000 OA
ATOM     16  H   UNL     1       1.555   1.962  18.287  0.00  0.00    +0.000 HD
ENDBRANCH  11  15
BRANCH  12  17
ATOM     17  O   UNL     1       4.590   2.680  17.324  0.00  0.00    +0.000 OA
ATOM     18  H   UNL     1       3.958   2.136  16.813  0.00  0.00    +0.000 HD
ENDBRANCH  12  17
BRANCH   7  19
ATOM     19  C   UNL     1       6.132   5.221  17.823  0.00  0.00    +0.000 C 
BRANCH  19  20
ATOM     20  O   UNL     1       7.107   4.203  18.052  0.00  0.00    +0.000 OA
ATOM     21  H   UNL     1       6.827   3.428  17.530  0.00  0.00    +0.000 HD
ENDBRANCH  19  20
ENDBRANCH   7  19
ENDBRANCH   1   9
BRANCH   3  22
ATOM     22  C   UNL     1       0.687  10.200  19.358  0.00  0.00    +0.000 A 
ATOM     23  C   UNL     1       1.482  11.355  19.247  0.00  0.00    +0.000 A 
ATOM     24  C   UNL     1       0.939  12.537  18.758  0.00  0.00    +0.000 A 
ATOM     25  C   UNL     1      -0.404  12.577  18.374  0.00  0.00    +0.000 A 
ATOM     26  C   UNL     1      -1.239  11.451  18.485  0.00  0.00    +0.000 A 
ATOM     27  C   UNL     1      -0.663  10.263  18.970  0.00  0.00    +0.000 A 
BRANCH  26  28
ATOM     28  C   UNL     1      -2.673  11.520  18.115  0.00  0.00    +0.000 A 
ATOM     29  C   UNL     1      -3.131  11.152  16.838  0.00  0.00    +0.000 A 
ATOM     30  C   UNL     1      -4.485  11.226  16.495  0.00  0.00    +0.000 A 
ATOM     31  C   UNL     1      -5.417  11.680  17.424  0.00  0.00    +0.000 A 
ATOM     32  C   UNL     1      -4.993  12.047  18.699  0.00  0.00    +0.000 A 
ATOM     33  C   UNL     1      -3.642  11.960  19.040  0.00  0.00    +0.000 A 
ENDBRANCH  26  28
ENDBRANCH   3  22
TORSDOF 8
ENDMDL
MODEL 2
REMARK VINA RESULT:      -8.1      1.162      2.522
REMARK  Name = 
REMARK  8 active torsions:
REMARK  status: ('A' for Active; 'I' for Inactive)
REMARK    1  A    between atoms: O_1  and  C_2
REMARK    2  A    between atoms: C_2  and  C_3
REMARK    3  A    between atoms: C_5  and  C_6
REMARK    4  A    between atoms: C_8  and  C_9
REMARK    5  A    between atoms: C_13  and  C_14
REMARK    6  A    between atoms: C_23  and  O_24
REMARK    7  A    between atoms: C_25  and  O_26
REMARK    8  A    between atoms: C_27  and  O_28
REMARK                            x       y       z     vdW  Elec       q    Type
REMARK                         _______ _______ _______ _____ _____    ______ ____
ROOT
ATOM      1  C   UNL     1       2.230   7.074  19.428  0.00  0.00    +0.000 A 
ATOM      2  N   UNL     1       1.836   8.075  18.674  0.00  0.00    +0.000 NA
ATOM      3  C   UNL     1       1.363   9.007  19.582  0.00  0.00    +0.000 A 
ATOM      4  N   UNL     1       1.484   8.618  20.860  0.00  0.00    +0.000 NA
ATOM      5  N   UNL     1       2.014   7.403  20.737  0.00  0.00    +0.000 N 
ATOM      6  H   UNL     1       2.141   6.817  21.556  0.00  0.00    +0.000 HD
ENDROOT
BRANCH   1   9
ATOM      7  C   UNL     1       2.836   3.461  19.777  0.00  0.00    +0.000 C 
ATOM      8  O   UNL     1       2.360   4.783  20.059  0.00  0.00    +0.000 OA
ATOM      9  C   UNL     1       2.772   5.727  19.063  0.00  0.00    +0.000 C 
ATOM     10  C   UNL     1       4.307   5.808  18.952  0.00  0.00    +0.000 C 
ATOM     11  C   UNL     1       4.935   4.420  18.839  0.00  0.00    +0.000 C 
ATOM     12  C   UNL     1       4.376   3.444  19.882  0.00  0.00    +0.000 C 
BRANCH  10  13
ATOM     13  O   UNL     1       4.644   6.596  17.785  0.00  0.00    +0.000 OA
ATOM     14  H   UNL     1       4.819   5.964  17.057  0.00  0.00    +0.000 HD
ENDBRANCH  10  13
BRANCH  11  15
ATOM     15  O   UNL     1       6.361   4.574  18.928  0.00  0.00    +0.000 OA
ATOM     16  H   UNL     1       6.583   5.491  18.686  0.00  0.00    +0.000 HD
ENDBRANCH  11  15
BRANCH  12  17
ATOM     17  O   UNL     1       4.960   2.163  19.644  0.00  0.00    +0.000 OA
ATOM     18  H   UNL     1       5.564   2.235  18.878  0.00  0.00    +0.000 HD
ENDBRANCH  12  17
BRANCH   7  19
ATOM     19  C   UNL     1       2.171   2.475  20.740  0.00  0.00    +0.000 C 
BRANCH  19  20
ATOM     20  O   UNL     1       2.928   2.399  21.949  0.00  0.00    +0.000 OA
ATOM     21  H   UNL     1       2.298   2.540  22.680  0.00  0.00    +0.000 HD
ENDBRANCH  19  20
ENDBRANCH   7  19
ENDBRANCH   1   9
BRANCH   3  22
ATOM     22  C   UNL     1       0.754  10.258  19.169  0.00  0.00    +0.000 A 
ATOM     23  C   UNL     1       1.523  11.434  19.109  0.00  0.00    +0.000 A 
ATOM     24  C   UNL     1       0.940  12.636  18.726  0.00  0.00    +0.000 A 
ATOM     25  C   UNL     1      -0.418  12.676  18.397  0.00  0.00    +0.000 A 
ATOM     26  C   UNL     1      -1.227  11.527  18.459  0.00  0.00    +0.000 A 
ATOM     27  C   UNL     1      -0.612  10.320  18.837  0.00  0.00    +0.000 A 
BRANCH  26  28
ATOM     28  C   UNL     1      -2.676  11.592  18.150  0.00  0.00    +0.000 A 
ATOM     29  C   UNL     1      -3.621  12.018  19.097  0.00  0.00    +0.000 A 
ATOM     30  C   UNL     1      -4.987  12.071  18.800  0.00  0.00    +0.000 A 
ATOM     31  C   UNL     1      -5.441  11.688  17.541  0.00  0.00    +0.000 A 
ATOM     32  C   UNL     1      -4.527  11.264  16.580  0.00  0.00    +0.000 A 
ATOM     33  C   UNL     1      -3.164  11.226  16.878  0.00  0.00    +0.000 A 
ENDBRANCH  26  28
ENDBRANCH   3  22
TORSDOF 8
ENDMDL
MODEL 3
REMARK VINA RESULT:      -8.1      7.632      9.041
REMARK  Name = 
REMARK  8 active torsions:
REMARK  status: ('A' for Active; 'I' for Inactive)
REMARK    1  A    between atoms: O_1  and  C_2
REMARK    2  A    between atoms: C_2  and  C_3
REMARK    3  A    between atoms: C_5  and  C_6
REMARK    4  A    between atoms: C_8  and  C_9
REMARK    5  A    between atoms: C_13  and  C_14
REMARK    6  A    between atoms: C_23  and  O_24
REMARK    7  A    between atoms: C_25  and  O_26
REMARK    8  A    between atoms: C_27  and  O_28
REMARK                            x       y       z     vdW  Elec       q    Type
REMARK                         _______ _______ _______ _____ _____    ______ ____
ROOT
ATOM      1  C   UNL     1       7.950   7.727  17.986  0.00  0.00    +0.000 A 
ATOM      2  N   UNL     1       8.737   8.279  18.881  0.00  0.00    +0.000 NA
ATOM      3  C   UNL     1       8.676   9.630  18.586  0.00  0.00    +0.000 A 
ATOM      4  N   UNL     1       7.859   9.919  17.563  0.00  0.00    +0.000 NA
ATOM      5  N   UNL     1       7.428   8.713  17.197  0.00  0.00    +0.000 N 
ATOM      6  H   UNL     1       6.847   8.608  16.371  0.00  0.00    +0.000 HD
ENDROOT
BRANCH   1   9
ATOM      7  C   UNL     1       6.651   4.845  16.101  0.00  0.00    +0.000 C 
ATOM      8  O   UNL     1       6.980   6.198  16.441  0.00  0.00    +0.000 OA
ATOM      9  C   UNL     1       7.636   6.289  17.712  0.00  0.00    +0.000 C 
ATOM     10  C   UNL     1       6.759   5.732  18.850  0.00  0.00    +0.000 C 
ATOM     11  C   UNL     1       6.193   4.357  18.501  0.00  0.00    +0.000 C 
ATOM     12  C   UNL     1       5.591   4.318  17.091  0.00  0.00    +0.000 C 
BRANCH  10  13
ATOM     13  O   UNL     1       7.562   5.643  20.051  0.00  0.00    +0.000 OA
ATOM     14  H   UNL     1       6.940   5.626  20.807  0.00  0.00    +0.000 HD
ENDBRANCH  10  13
BRANCH  11  15
ATOM     15  O   UNL     1       5.248   3.997  19.521  0.00  0.00    +0.000 OA
ATOM     16  H   UNL     1       5.729   3.909  20.364  0.00  0.00    +0.000 HD
ENDBRANCH  11  15
BRANCH  12  17
ATOM     17  O   UNL     1       5.166   2.980  16.830  0.00  0.00    +0.000 OA
ATOM     18  H   UNL     1       4.456   3.005  16.158  0.00  0.00    +0.000 HD
ENDBRANCH  12  17
BRANCH   7  19
ATOM     19  C   UNL     1       6.173   4.798  14.648  0.00  0.00    +0.000 C 
BRANCH  19  20
ATOM     20  O   UNL     1       6.320   3.473  14.136  0.00  0.00    +0.000 OA
ATOM     21  H   UNL     1       6.873   2.989  14.776  0.00  0.00    +0.000 HD
ENDBRANCH  19  20
ENDBRANCH   7  19
ENDBRANCH   1   9
BRANCH   3  22
ATOM     22  C   UNL     1       9.468  10.620  19.295  0.00  0.00    +0.000 A 
ATOM     23  C   UNL     1      10.757  10.953  18.840  0.00  0.00    +0.000 A 
ATOM     24  C   UNL     1      11.522  11.890  19.525  0.00  0.00    +0.000 A 
ATOM     25  C   UNL     1      11.007  12.506  20.668  0.00  0.00    +0.000 A 
ATOM     26  C   UNL     1       9.730  12.190  21.167  0.00  0.00    +0.000 A 
ATOM     27  C   UNL     1       8.970  11.248  20.450  0.00  0.00    +0.000 A 
BRANCH  26  28
ATOM     28  C   UNL     1       9.214  12.818  22.406  0.00  0.00    +0.000 A 
ATOM     29  C   UNL     1       9.281  14.205  22.621  0.00  0.00    +0.000 A 
ATOM     30  C   UNL     1       8.797  14.790  23.796  0.00  0.00    +0.000 A 
ATOM     31  C   UNL     1       8.239  13.994  24.793  0.00  0.00    +0.000 A 
ATOM     32  C   UNL     1       8.155  12.617  24.606  0.00  0.00    +0.000 A 
ATOM     33  C   UNL     1       8.628  12.040  23.426  0.00  0.00    +0.000 A 
ENDBRANCH  26  28
ENDBRANCH   3  22
TORSDOF 8
ENDMDL
MODEL 4
REMARK VINA RESULT:      -8.1      1.044      1.629
REMARK  Name = 
REMARK  8 active torsions:
REMARK  status: ('A' for Active; 'I' for Inactive)
REMARK    1  A    between atoms: O_1  and  C_2
REMARK    2  A    between atoms: C_2  and  C_3
REMARK    3  A    between atoms: C_5  and  C_6
REMARK    4  A    between atoms: C_8  and  C_9
REMARK    5  A    between atoms: C_13  and  C_14
REMARK    6  A    between atoms: C_23  and  O_24
REMARK    7  A    between atoms: C_25  and  O_26
REMARK    8  A    between atoms: C_27  and  O_28
REMARK                            x       y       z     vdW  Elec       q    Type
REMARK                         _______ _______ _______ _____ _____    ______ ____
ROOT
ATOM      1  C   UNL     1       2.555   7.406  19.077  0.00  0.00    +0.000 A 
ATOM      2  N   UNL     1       1.745   8.226  19.708  0.00  0.00    +0.000 NA
ATOM      3  C   UNL     1       1.439   9.184  18.756  0.00  0.00    +0.000 A 
ATOM      4  N   UNL     1       2.010   8.957  17.564  0.00  0.00    +0.000 NA
ATOM      5  N   UNL     1       2.713   7.849  17.794  0.00  0.00    +0.000 N 
ATOM      6  H   UNL     1       3.331   7.481  17.079  0.00  0.00    +0.000 HD
ENDROOT
BRANCH   1   9
ATOM      7  C   UNL     1       5.174   4.821  19.078  0.00  0.00    +0.000 C 
ATOM      8  O   UNL     1       4.402   5.959  18.677  0.00  0.00    +0.000 OA
ATOM      9  C   UNL     1       3.301   6.202  19.561  0.00  0.00    +0.000 C 
ATOM     10  C   UNL     1       2.342   4.997  19.624  0.00  0.00    +0.000 C 
ATOM     11  C   UNL     1       3.096   3.690  19.859  0.00  0.00    +0.000 C 
ATOM     12  C   UNL     1       4.312   3.548  18.935  0.00  0.00    +0.000 C 
BRANCH  10  13
ATOM     13  O   UNL     1       1.394   5.217  20.696  0.00  0.00    +0.000 OA
ATOM     14  H   UNL     1       1.370   4.394  21.226  0.00  0.00    +0.000 HD
ENDBRANCH  10  13
BRANCH  11  15
ATOM     15  O   UNL     1       2.160   2.610  19.717  0.00  0.00    +0.000 OA
ATOM     16  H   UNL     1       2.664   1.780  19.632  0.00  0.00    +0.000 HD
ENDBRANCH  11  15
BRANCH  12  17
ATOM     17  O   UNL     1       4.993   2.343  19.285  0.00  0.00    +0.000 OA
ATOM     18  H   UNL     1       5.664   2.156  18.599  0.00  0.00    +0.000 HD
ENDBRANCH  12  17
BRANCH   7  19
ATOM     19  C   UNL     1       6.451   4.763  18.237  0.00  0.00    +0.000 C 
BRANCH  19  20
ATOM     20  O   UNL     1       6.252   3.897  17.119  0.00  0.00    +0.000 OA
ATOM     21  H   UNL     1       5.321   4.005  16.848  0.00  0.00    +0.000 HD
ENDBRANCH  19  20
ENDBRANCH   7  19
ENDBRANCH   1   9
BRANCH   3  22
ATOM     22  C   UNL     1       0.615  10.343  19.054  0.00  0.00    +0.000 A 
ATOM     23  C   UNL     1       1.118  11.380  19.859  0.00  0.00    +0.000 A 
ATOM     24  C   UNL     1       0.328  12.484  20.157  0.00  0.00    +0.000 A 
ATOM     25  C   UNL     1      -0.971  12.565  19.650  0.00  0.00    +0.000 A 
ATOM     26  C   UNL     1      -1.520  11.543  18.854  0.00  0.00    +0.000 A 
ATOM     27  C   UNL     1      -0.697  10.441  18.556  0.00  0.00    +0.000 A 
BRANCH  26  28
ATOM     28  C   UNL     1      -2.915  11.621  18.359  0.00  0.00    +0.000 A 
ATOM     29  C   UNL     1      -3.967  12.081  19.168  0.00  0.00    +0.000 A 
ATOM     30  C   UNL     1      -5.282  12.147  18.696  0.00  0.00    +0.000 A 
ATOM     31  C   UNL     1      -5.577  11.742  17.397  0.00  0.00    +0.000 A 
ATOM     32  C   UNL     1      -4.555  11.284  16.570  0.00  0.00    +0.000 A 
ATOM     33  C   UNL     1      -3.242  11.233  17.043  0.00  0.00    +0.000 A 
ENDBRANCH  26  28
ENDBRANCH   3  22
TORSDOF 8
ENDMDL
MODEL 5
REMARK VINA RESULT:      -8.1      1.294      1.603
REMARK  Name = 
REMARK  8 active torsions:
REMARK  status: ('A' for Active; 'I' for Inactive)
REMARK    1  A    between atoms: O_1  and  C_2
REMARK    2  A    between atoms: C_2  and  C_3
REMARK    3  A    between atoms: C_5  and  C_6
REMARK    4  A    between atoms: C_8  and  C_9
REMARK    5  A    between atoms: C_13  and  C_14
REMARK    6  A    between atoms: C_23  and  O_24
REMARK    7  A    between atoms: C_25  and  O_26
REMARK    8  A    between atoms: C_27  and  O_28
REMARK                            x       y       z     vdW  Elec       q    Type
REMARK                         _______ _______ _______ _____ _____    ______ ____
ROOT
ATOM      1  C   UNL     1       2.631   7.325  18.763  0.00  0.00    +0.000 A 
ATOM      2  N   UNL     1       1.739   7.943  19.504  0.00  0.00    +0.000 NA
ATOM      3  C   UNL     1       1.437   9.082  18.776  0.00  0.00    +0.000 A 
ATOM      4  N   UNL     1       2.092   9.161  17.609  0.00  0.00    +0.000 NA
ATOM      5  N   UNL     1       2.841   8.060  17.630  0.00  0.00    +0.000 N 
ATOM      6  H   UNL     1       3.522   7.893  16.896  0.00  0.00    +0.000 HD
ENDROOT
BRANCH   1   9
ATOM      7  C   UNL     1       4.598   4.335  17.904  0.00  0.00    +0.000 C 
ATOM      8  O   UNL     1       3.833   5.538  17.750  0.00  0.00    +0.000 OA
ATOM      9  C   UNL     1       3.413   6.073  19.012  0.00  0.00    +0.000 C 
ATOM     10  C   UNL     1       2.540   5.073  19.795  0.00  0.00    +0.000 C 
ATOM     11  C   UNL     1       3.185   3.690  19.853  0.00  0.00    +0.000 C 
ATOM     12  C   UNL     1       3.690   3.228  18.479  0.00  0.00    +0.000 C 
BRANCH  10  13
ATOM     13  O   UNL     1       2.347   5.581  21.137  0.00  0.00    +0.000 OA
ATOM     14  H   UNL     1       1.587   6.198  21.100  0.00  0.00    +0.000 HD
ENDBRANCH  10  13
BRANCH  11  15
ATOM     15  O   UNL     1       2.233   2.783  20.430  0.00  0.00    +0.000 OA
ATOM     16  H   UNL     1       1.830   2.266  19.709  0.00  0.00    +0.000 HD
ENDBRANCH  11  15
BRANCH  12  17
ATOM     17  O   UNL     1       4.344   1.970  18.651  0.00  0.00    +0.000 OA
ATOM     18  H   UNL     1       4.284   1.472  17.811  0.00  0.00    +0.000 HD
ENDBRANCH  12  17
BRANCH   7  19
ATOM     19  C   UNL     1       5.205   3.954  16.552  0.00  0.00    +0.000 C 
BRANCH  19  20
ATOM     20  O   UNL     1       6.629   3.930  16.654  0.00  0.00    +0.000 OA
ATOM     21  H   UNL     1       6.851   4.305  17.527  0.00  0.00    +0.000 HD
ENDBRANCH  19  20
ENDBRANCH   7  19
ENDBRANCH   1   9
BRANCH   3  22
ATOM     22  C   UNL     1       0.533  10.105  19.270  0.00  0.00    +0.000 A 
ATOM     23  C   UNL     1       0.881  10.873  20.396  0.00  0.00    +0.000 A 
ATOM     24  C   UNL     1       0.012  11.844  20.879  0.00  0.00    +0.000 A 
ATOM     25  C   UNL     1      -1.212  12.061  20.241  0.00  0.00    +0.000 A 
ATOM     26  C   UNL     1      -1.606  11.305  19.122  0.00  0.00    +0.000 A 
ATOM     27  C   UNL     1      -0.705  10.336  18.644  0.00  0.00    +0.000 A 
BRANCH  26  28
ATOM     28  C   UNL     1      -2.926  11.515  18.481  0.00  0.00    +0.000 A 
ATOM     29  C   UNL     1      -3.161  11.187  17.135  0.00  0.00    +0.000 A 
ATOM     30  C   UNL     1      -4.408  11.394  16.535  0.00  0.00    +0.000 A 
ATOM     31  C   UNL     1      -5.453  11.945  17.272  0.00  0.00    +0.000 A 
ATOM     32  C   UNL     1      -5.251  12.276  18.609  0.00  0.00    +0.000 A 
ATOM     33  C   UNL     1      -4.008  12.056  19.206  0.00  0.00    +0.000 A 
ENDBRANCH  26  28
ENDBRANCH   3  22
TORSDOF 8
ENDMDL
MODEL 6
REMARK VINA RESULT:      -8.0      4.293      9.342
REMARK  Name = 
REMARK  8 active torsions:
REMARK  status: ('A' for Active; 'I' for Inactive)
REMARK    1  A    between atoms: O_1  and  C_2
REMARK    2  A    between atoms: C_2  and  C_3
REMARK    3  A    between atoms: C_5  and  C_6
REMARK    4  A    between atoms: C_8  and  C_9
REMARK    5  A    between atoms: C_13  and  C_14
REMARK    6  A    between atoms: C_23  and  O_24
REMARK    7  A    between atoms: C_25  and  O_26
REMARK    8  A    between atoms: C_27  and  O_28
REMARK                            x       y       z     vdW  Elec       q    Type
REMARK                         _______ _______ _______ _____ _____    ______ ____
ROOT
ATOM      1  C   UNL     1       0.581  10.631  19.153  0.00  0.00    +0.000 A 
ATOM      2  N   UNL     1       0.983   9.508  19.704  0.00  0.00    +0.000 NA
ATOM      3  C   UNL     1       1.772   8.925  18.727  0.00  0.00    +0.000 A 
ATOM      4  N   UNL     1       1.887   9.668  17.617  0.00  0.00    +0.000 NA
ATOM      5  N   UNL     1       1.123  10.722  17.902  0.00  0.00    +0.000 N 
ATOM      6  H   UNL     1       0.946  11.428  17.195  0.00  0.00    +0.000 HD
ENDROOT
BRANCH   1   9
ATOM      7  C   UNL     1      -1.537  12.399  21.588  0.00  0.00    +0.000 C 
ATOM      8  O   UNL     1      -0.648  11.423  21.031  0.00  0.00    +0.000 OA
ATOM      9  C   UNL     1      -0.354  11.687  19.653  0.00  0.00    +0.000 C 
ATOM     10  C   UNL     1      -1.629  11.693  18.788  0.00  0.00    +0.000 C 
ATOM     11  C   UNL     1      -2.722  12.564  19.403  0.00  0.00    +0.000 C 
ATOM     12  C   UNL     1      -2.913  12.283  20.899  0.00  0.00    +0.000 C 
BRANCH  10  13
ATOM     13  O   UNL     1      -1.290  12.189  17.470  0.00  0.00    +0.000 OA
ATOM     14  H   UNL     1      -2.100  12.601  17.105  0.00  0.00    +0.000 HD
ENDBRANCH  10  13
BRANCH  11  15
ATOM     15  O   UNL     1      -3.924  12.366  18.642  0.00  0.00    +0.000 OA
ATOM     16  H   UNL     1      -4.431  11.643  19.055  0.00  0.00    +0.000 HD
ENDBRANCH  11  15
BRANCH  12  17
ATOM     17  O   UNL     1      -3.892  13.197  21.397  0.00  0.00    +0.000 OA
ATOM     18  H   UNL     1      -4.058  13.876  20.714  0.00  0.00    +0.000 HD
ENDBRANCH  12  17
BRANCH   7  19
ATOM     19  C   UNL     1      -1.619  12.192  23.103  0.00  0.00    +0.000 C 
BRANCH  19  20
ATOM     20  O   UNL     1      -2.909  11.685  23.449  0.00  0.00    +0.000 OA
ATOM     21  H   UNL     1      -3.226  11.182  22.676  0.00  0.00    +0.000 HD
ENDBRANCH  19  20
ENDBRANCH   7  19
ENDBRANCH   1   9
BRANCH   3  22
ATOM     22  C   UNL     1       2.371   7.612  18.890  0.00  0.00    +0.000 A 
ATOM     23  C   UNL     1       1.956   6.771  19.938  0.00  0.00    +0.000 A 
ATOM     24  C   UNL     1       2.536   5.518  20.103  0.00  0.00    +0.000 A 
ATOM     25  C   UNL     1       3.533   5.093  19.222  0.00  0.00    +0.000 A 
ATOM     26  C   UNL     1       3.989   5.909  18.171  0.00  0.00    +0.000 A 
ATOM     27  C   UNL     1       3.379   7.166  18.016  0.00  0.00    +0.000 A 
BRANCH  26  28
ATOM     28  C   UNL     1       5.079   5.462  17.271  0.00  0.00    +0.000 A 
ATOM     29  C   UNL     1       4.951   5.497  15.872  0.00  0.00    +0.000 A 
ATOM     30  C   UNL     1       5.981   5.068  15.029  0.00  0.00    +0.000 A 
ATOM     31  C   UNL     1       7.169   4.584  15.571  0.00  0.00    +0.000 A 
ATOM     32  C   UNL     1       7.327   4.542  16.953  0.00  0.00    +0.000 A 
ATOM     33  C   UNL     1       6.299   4.983  17.790  0.00  0.00    +0.000 A 
ENDBRANCH  26  28
ENDBRANCH   3  22
TORSDOF 8
ENDMDL
MODEL 7
REMARK VINA RESULT:      -8.0      0.996      2.440
REMARK  Name = 
REMARK  8 active torsions:
REMARK  status: ('A' for Active; 'I' for Inactive)
REMARK    1  A    between atoms: O_1  and  C_2
REMARK    2  A    between atoms: C_2  and  C_3
REMARK    3  A    between atoms: C_5  and  C_6
REMARK    4  A    between atoms: C_8  and  C_9
REMARK    5  A    between atoms: C_13  and  C_14
REMARK    6  A    between atoms: C_23  and  O_24
REMARK    7  A    between atoms: C_25  and  O_26
REMARK    8  A    between atoms: C_27  and  O_28
REMARK                            x       y       z     vdW  Elec       q    Type
REMARK                         _______ _______ _______ _____ _____    ______ ____
ROOT
ATOM      1  C   UNL     1       2.322   6.961  18.847  0.00  0.00    +0.000 A 
ATOM      2  N   UNL     1       1.869   8.005  18.191  0.00  0.00    +0.000 NA
ATOM      3  C   UNL     1       1.496   8.887  19.191  0.00  0.00    +0.000 A 
ATOM      4  N   UNL     1       1.733   8.427  20.427  0.00  0.00    +0.000 NA
ATOM      5  N   UNL     1       2.236   7.217  20.187  0.00  0.00    +0.000 N 
ATOM      6  H   UNL     1       2.434   6.585  20.956  0.00  0.00    +0.000 HD
ENDROOT
BRANCH   1   9
ATOM      7  C   UNL     1       2.478   3.293  18.596  0.00  0.00    +0.000 C 
ATOM      8  O   UNL     1       2.070   4.600  19.018  0.00  0.00    +0.000 OA
ATOM      9  C   UNL     1       2.812   5.634  18.358  0.00  0.00    +0.000 C 
ATOM     10  C   UNL     1       4.324   5.515  18.630  0.00  0.00    +0.000 C 
ATOM     11  C   UNL     1       4.828   4.093  18.392  0.00  0.00    +0.000 C 
ATOM     12  C   UNL     1       3.929   3.041  19.055  0.00  0.00    +0.000 C 
BRANCH  10  13
ATOM     13  O   UNL     1       5.023   6.437  17.758  0.00  0.00    +0.000 OA
ATOM     14  H   UNL     1       4.943   6.082  16.849  0.00  0.00    +0.000 HD
ENDBRANCH  10  13
BRANCH  11  15
ATOM     15  O   UNL     1       6.190   4.027  18.844  0.00  0.00    +0.000 OA
ATOM     16  H   UNL     1       6.197   3.621  19.730  0.00  0.00    +0.000 HD
ENDBRANCH  11  15
BRANCH  12  17
ATOM     17  O   UNL     1       4.433   1.751  18.710  0.00  0.00    +0.000 OA
ATOM     18  H   UNL     1       4.338   1.163  19.486  0.00  0.00    +0.000 HD
ENDBRANCH  12  17
BRANCH   7  19
ATOM     19  C   UNL     1       1.497   2.260  19.157  0.00  0.00    +0.000 C 
BRANCH  19  20
ATOM     20  O   UNL     1       0.448   2.926  19.860  0.00  0.00    +0.000 OA
ATOM     21  H   UNL     1       0.098   2.286  20.508  0.00  0.00    +0.000 HD
ENDBRANCH  19  20
ENDBRANCH   7  19
ENDBRANCH   1   9
BRANCH   3  22
ATOM     22  C   UNL     1       0.864  10.163  18.908  0.00  0.00    +0.000 A 
ATOM     23  C   UNL     1       1.614  11.352  18.962  0.00  0.00    +0.000 A 
ATOM     24  C   UNL     1       1.008  12.576  18.705  0.00  0.00    +0.000 A 
ATOM     25  C   UNL     1      -0.352  12.626  18.388  0.00  0.00    +0.000 A 
ATOM     26  C   UNL     1      -1.143  11.463  18.339  0.00  0.00    +0.000 A 
ATOM     27  C   UNL     1      -0.505  10.235  18.591  0.00  0.00    +0.000 A 
BRANCH  26  28
ATOM     28  C   UNL     1      -2.594  11.535  18.045  0.00  0.00    +0.000 A 
ATOM     29  C   UNL     1      -3.117  11.179  16.791  0.00  0.00    +0.000 A 
ATOM     30  C   UNL     1      -4.487  11.255  16.518  0.00  0.00    +0.000 A 
ATOM     31  C   UNL     1      -5.369  11.700  17.499  0.00  0.00    +0.000 A 
ATOM     32  C   UNL     1      -4.880  12.055  18.753  0.00  0.00    +0.000 A 
ATOM     33  C   UNL     1      -3.513  11.966  19.023  0.00  0.00    +0.000 A 
ENDBRANCH  26  28
ENDBRANCH   3  22
TORSDOF 8
ENDMDL
MODEL 8
REMARK VINA RESULT:      -8.0      3.834      9.073
REMARK  Name = 
REMARK  8 active torsions:
REMARK  status: ('A' for Active; 'I' for Inactive)
REMARK    1  A    between atoms: O_1  and  C_2
REMARK    2  A    between atoms: C_2  and  C_3
REMARK    3  A    between atoms: C_5  and  C_6
REMARK    4  A    between atoms: C_8  and  C_9
REMARK    5  A    between atoms: C_13  and  C_14
REMARK    6  A    between atoms: C_23  and  O_24
REMARK    7  A    between atoms: C_25  and  O_26
REMARK    8  A    between atoms: C_27  and  O_28
REMARK                            x       y       z     vdW  Elec       q    Type
REMARK                         _______ _______ _______ _____ _____    ______ ____
ROOT
ATOM      1  C   UNL     1       1.131   9.552  19.815  0.00  0.00    +0.000 A 
ATOM      2  N   UNL     1       1.663   8.513  19.212  0.00  0.00    +0.000 NA
ATOM      3  C   UNL     1       1.720   7.549  20.203  0.00  0.00    +0.000 A 
ATOM      4  N   UNL     1       1.214   7.956  21.377  0.00  0.00    +0.000 NA
ATOM      5  N   UNL     1       0.866   9.214  21.113  0.00  0.00    +0.000 N 
ATOM      6  H   UNL     1       0.525   9.815  21.857  0.00  0.00    +0.000 HD
ENDROOT
BRANCH   1   9
ATOM      7  C   UNL     1       0.720  13.202  20.038  0.00  0.00    +0.000 C 
ATOM      8  O   UNL     1       0.957  11.845  20.431  0.00  0.00    +0.000 OA
ATOM      9  C   UNL     1       0.864  10.940  19.323  0.00  0.00    +0.000 C 
ATOM     10  C   UNL     1      -0.526  10.989  18.660  0.00  0.00    +0.000 C 
ATOM     11  C   UNL     1      -0.961  12.424  18.372  0.00  0.00    +0.000 C 
ATOM     12  C   UNL     1      -0.746  13.348  19.578  0.00  0.00    +0.000 C 
BRANCH  10  13
ATOM     13  O   UNL     1      -0.475  10.234  17.425  0.00  0.00    +0.000 OA
ATOM     14  H   UNL     1      -0.560  10.880  16.694  0.00  0.00    +0.000 HD
ENDBRANCH  10  13
BRANCH  11  15
ATOM     15  O   UNL     1      -2.328  12.391  17.933  0.00  0.00    +0.000 OA
ATOM     16  H   UNL     1      -2.768  13.203  18.245  0.00  0.00    +0.000 HD
ENDBRANCH  11  15
BRANCH  12  17
ATOM     17  O   UNL     1      -1.103  14.674  19.186  0.00  0.00    +0.000 OA
ATOM     18  H   UNL     1      -1.822  14.619  18.525  0.00  0.00    +0.000 HD
ENDBRANCH  12  17
BRANCH   7  19
ATOM     19  C   UNL     1       1.063  14.127  21.208  0.00  0.00    +0.000 C 
BRANCH  19  20
ATOM     20  O   UNL     1       2.405  13.888  21.632  0.00  0.00    +0.000 OA
ATOM     21  H   UNL     1       2.368  13.151  22.270  0.00  0.00    +0.000 HD
ENDBRANCH  19  20
ENDBRANCH   7  19
ENDBRANCH   1   9
BRANCH   3  22
ATOM     22  C   UNL     1       2.318   6.243  19.988  0.00  0.00    +0.000 A 
ATOM     23  C   UNL     1       1.918   5.144  20.768  0.00  0.00    +0.000 A 
ATOM     24  C   UNL     1       2.498   3.896  20.572  0.00  0.00    +0.000 A 
ATOM     25  C   UNL     1       3.481   3.733  19.594  0.00  0.00    +0.000 A 
ATOM     26  C   UNL     1       3.923   4.809  18.802  0.00  0.00    +0.000 A 
ATOM     27  C   UNL     1       3.313   6.059  19.010  0.00  0.00    +0.000 A 
BRANCH  26  28
ATOM     28  C   UNL     1       4.999   4.632  17.798  0.00  0.00    +0.000 A 
ATOM     29  C   UNL     1       6.354   4.814  18.119  0.00  0.00    +0.000 A 
ATOM     30  C   UNL     1       7.364   4.651  17.164  0.00  0.00    +0.000 A 
ATOM     31  C   UNL     1       7.036   4.308  15.855  0.00  0.00    +0.000 A 
ATOM     32  C   UNL     1       5.701   4.116  15.509  0.00  0.00    +0.000 A 
ATOM     33  C   UNL     1       4.699   4.268  16.469  0.00  0.00    +0.000 A 
ENDBRANCH  26  28
ENDBRANCH   3  22
TORSDOF 8
ENDMDL
MODEL 9
REMARK VINA RESULT:      -7.9      3.841      9.128
REMARK  Name = 
REMARK  8 active torsions:
REMARK  status: ('A' for Active; 'I' for Inactive)
REMARK    1  A    between atoms: O_1  and  C_2
REMARK    2  A    between atoms: C_2  and  C_3
REMARK    3  A    between atoms: C_5  and  C_6
REMARK    4  A    between atoms: C_8  and  C_9
REMARK    5  A    between atoms: C_13  and  C_14
REMARK    6  A    between atoms: C_23  and  O_24
REMARK    7  A    between atoms: C_25  and  O_26
REMARK    8  A    between atoms: C_27  and  O_28
REMARK                            x       y       z     vdW  Elec       q    Type
REMARK                         _______ _______ _______ _____ _____    ______ ____
ROOT
ATOM      1  C   UNL     1       1.125   9.564  19.814  0.00  0.00    +0.000 A 
ATOM      2  N   UNL     1       1.655   8.527  19.206  0.00  0.00    +0.000 NA
ATOM      3  C   UNL     1       1.716   7.560  20.195  0.00  0.00    +0.000 A 
ATOM      4  N   UNL     1       1.217   7.965  21.372  0.00  0.00    +0.000 NA
ATOM      5  N   UNL     1       0.867   9.224  21.112  0.00  0.00    +0.000 N 
ATOM      6  H   UNL     1       0.530   9.824  21.859  0.00  0.00    +0.000 HD
ENDROOT
BRANCH   1   9
ATOM      7  C   UNL     1       0.715  13.214  20.045  0.00  0.00    +0.000 C 
ATOM      8  O   UNL     1       0.954  11.856  20.434  0.00  0.00    +0.000 OA
ATOM      9  C   UNL     1       0.856  10.953  19.325  0.00  0.00    +0.000 C 
ATOM     10  C   UNL     1      -0.537  11.003  18.669  0.00  0.00    +0.000 C 
ATOM     11  C   UNL     1      -0.974  12.439  18.386  0.00  0.00    +0.000 C 
ATOM     12  C   UNL     1      -0.753  13.360  19.592  0.00  0.00    +0.000 C 
BRANCH  10  13
ATOM     13  O   UNL     1      -0.492  10.250  17.433  0.00  0.00    +0.000 OA
ATOM     14  H   UNL     1      -0.430   9.304  17.679  0.00  0.00    +0.000 HD
ENDBRANCH  10  13
BRANCH  11  15
ATOM     15  O   UNL     1      -2.343  12.405  17.953  0.00  0.00    +0.000 OA
ATOM     16  H   UNL     1      -2.851  13.030  18.503  0.00  0.00    +0.000 HD
ENDBRANCH  11  15
BRANCH  12  17
ATOM     17  O   UNL     1      -1.113  14.687  19.205  0.00  0.00    +0.000 OA
ATOM     18  H   UNL     1      -0.386  15.291  19.457  0.00  0.00    +0.000 HD
ENDBRANCH  12  17
BRANCH   7  19
ATOM     19  C   UNL     1       1.063  14.137  21.216  0.00  0.00    +0.000 C 
BRANCH  19  20
ATOM     20  O   UNL     1      -0.087  14.318  22.043  0.00  0.00    +0.000 OA
ATOM     21  H   UNL     1       0.242  14.437  22.953  0.00  0.00    +0.000 HD
ENDBRANCH  19  20
ENDBRANCH   7  19
ENDBRANCH   1   9
BRANCH   3  22
ATOM     22  C   UNL     1       2.314   6.255  19.974  0.00  0.00    +0.000 A 
ATOM     23  C   UNL     1       1.921   5.155  20.758  0.00  0.00    +0.000 A 
ATOM     24  C   UNL     1       2.501   3.908  20.557  0.00  0.00    +0.000 A 
ATOM     25  C   UNL     1       3.476   3.746  19.570  0.00  0.00    +0.000 A 
ATOM     26  C   UNL     1       3.909   4.823  18.775  0.00  0.00    +0.000 A 
ATOM     27  C   UNL     1       3.300   6.072  18.988  0.00  0.00    +0.000 A 
BRANCH  26  28
ATOM     28  C   UNL     1       4.976   4.646  17.761  0.00  0.00    +0.000 A 
ATOM     29  C   UNL     1       4.688   4.300  16.430  0.00  0.00    +0.000 A 
ATOM     30  C   UNL     1       5.701   4.130  15.480  0.00  0.00    +0.000 A 
ATOM     31  C   UNL     1       7.034   4.294  15.845  0.00  0.00    +0.000 A 
ATOM     32  C   UNL     1       7.350   4.641  17.156  0.00  0.00    +0.000 A 
ATOM     33  C   UNL     1       6.334   4.822  18.097  0.00  0.00    +0.000 A 
ENDBRANCH  26  28
ENDBRANCH   3  22
TORSDOF 8
ENDMDL
