MODEL 1
REMARK VINA RESULT:      -7.6      0.000      0.000
REMARK  Name = 
REMARK  2 active torsions:
REMARK  status: ('A' for Active; 'I' for Inactive)
REMARK    1  A    between atoms: C_1  and  C_2
REMARK    2  A    between atoms: C_8  and  C_9
REMARK                            x       y       z     vdW  Elec       q    Type
REMARK                         _______ _______ _______ _____ _____    ______ ____
ROOT
ATOM      1  C   UNL     1       3.129   2.147  17.715  0.00  0.00    +0.000 C 
ATOM      2  C   UNL     1       2.952   1.851  19.202  0.00  0.00    +0.000 C 
ATOM      3  C   UNL     1       3.377   3.018  20.116  0.00  0.00    +0.000 C 
ATOM      4  N   UNL     1       2.377   4.104  20.098  0.00  0.00    +0.000 N 
ATOM      5  C   UNL     1       2.663   5.302  19.506  0.00  0.00    +0.000 C 
ATOM      6  N   UNL     1       3.742   5.559  18.832  0.00  0.00    +0.000 NA
ATOM      7  C   UNL     1       3.622   6.874  18.441  0.00  0.00    +0.000 C 
ATOM      8  C   UNL     1       4.471   7.587  17.690  0.00  0.00    +0.000 C 
ATOM      9  C   UNL     1       2.354   7.430  18.968  0.00  0.00    +0.000 C 
ATOM     10  O   UNL     1       1.905   8.552  18.865  0.00  0.00    +0.000 OA
ATOM     11  N   UNL     1       1.814   6.356  19.598  0.00  0.00    +0.000 N 
ATOM     12  C   UNL     1       1.023   3.632  20.386  0.00  0.00    +0.000 C 
ATOM     13  C   UNL     1       0.655   2.483  19.440  0.00  0.00    +0.000 C 
ATOM     14  O   UNL     1       1.609   1.414  19.493  0.00  0.00    +0.000 OA
ATOM     15  H   UNL     1       0.953   6.405  20.110  0.00  0.00    +0.000 HD
ENDROOT
BRANCH   8  16
ATOM     16  C   UNL     1       5.659   7.089  17.074  0.00  0.00    +0.000 A 
ATOM     17  C   UNL     1       6.945   7.498  17.378  0.00  0.00    +0.000 A 
ATOM     18  N   UNL     1       7.813   6.752  16.631  0.00  0.00    +0.000 N 
ATOM     19  C   UNL     1       7.119   5.870  15.858  0.00  0.00    +0.000 A 
ATOM     20  N   UNL     1       7.689   4.980  15.024  0.00  0.00    +0.000 NA
ATOM     21  C   UNL     1       6.782   4.228  14.362  0.00  0.00    +0.000 A 
ATOM     22  C   UNL     1       5.399   4.333  14.474  0.00  0.00    +0.000 A 
ATOM     23  C   UNL     1       4.861   5.271  15.355  0.00  0.00    +0.000 A 
ATOM     24  C   UNL     1       5.757   6.066  16.090  0.00  0.00    +0.000 A 
ATOM     25  H   UNL     1       8.820   6.817  16.639  0.00  0.00    +0.000 HD
ENDBRANCH   8  16
TORSDOF 1
ENDMDL
MODEL 2
REMARK VINA RESULT:      -7.5      2.509      5.786
REMARK  Name = 
REMARK  2 active torsions:
REMARK  status: ('A' for Active; 'I' for Inactive)
REMARK    1  A    between atoms: C_1  and  C_2
REMARK    2  A    between atoms: C_8  and  C_9
REMARK                            x       y       z     vdW  Elec       q    Type
REMARK                         _______ _______ _______ _____ _____    ______ ____
ROOT
ATOM      1  C   UNL     1       1.199   4.058  20.791  0.00  0.00    +0.000 C 
ATOM      2  C   UNL     1       0.991   2.995  19.716  0.00  0.00    +0.000 C 
ATOM      3  C   UNL     1       1.131   3.539  18.280  0.00  0.00    +0.000 C 
ATOM      4  N   UNL     1       2.546   3.775  17.931  0.00  0.00    +0.000 N 
ATOM      5  C   UNL     1       3.021   5.047  17.778  0.00  0.00    +0.000 C 
ATOM      6  N   UNL     1       2.345   6.127  18.021  0.00  0.00    +0.000 NA
ATOM      7  C   UNL     1       3.194   7.166  17.713  0.00  0.00    +0.000 C 
ATOM      8  C   UNL     1       2.962   8.479  17.834  0.00  0.00    +0.000 C 
ATOM      9  C   UNL     1       4.479   6.620  17.220  0.00  0.00    +0.000 C 
ATOM     10  O   UNL     1       5.464   7.209  16.825  0.00  0.00    +0.000 OA
ATOM     11  N   UNL     1       4.278   5.282  17.326  0.00  0.00    +0.000 N 
ATOM     12  C   UNL     1       3.391   2.606  18.172  0.00  0.00    +0.000 C 
ATOM     13  C   UNL     1       3.218   2.120  19.616  0.00  0.00    +0.000 C 
ATOM     14  O   UNL     1       1.845   1.854  19.934  0.00  0.00    +0.000 OA
ATOM     15  H   UNL     1       4.956   4.607  17.026  0.00  0.00    +0.000 HD
ENDROOT
BRANCH   8  16
ATOM     16  C   UNL     1       1.785   9.070  18.388  0.00  0.00    +0.000 A 
ATOM     17  C   UNL     1       0.857   9.810  17.679  0.00  0.00    +0.000 A 
ATOM     18  N   UNL     1      -0.155  10.149  18.534  0.00  0.00    +0.000 N 
ATOM     19  C   UNL     1       0.097   9.642  19.774  0.00  0.00    +0.000 A 
ATOM     20  N   UNL     1      -0.722   9.784  20.832  0.00  0.00    +0.000 NA
ATOM     21  C   UNL     1      -0.238   9.198  21.950  0.00  0.00    +0.000 A 
ATOM     22  C   UNL     1       0.974   8.526  22.058  0.00  0.00    +0.000 A 
ATOM     23  C   UNL     1       1.784   8.405  20.929  0.00  0.00    +0.000 A 
ATOM     24  C   UNL     1       1.322   8.974  19.730  0.00  0.00    +0.000 A 
ATOM     25  H   UNL     1      -0.979  10.684  18.305  0.00  0.00    +0.000 HD
ENDBRANCH   8  16
TORSDOF 1
ENDMDL
MODEL 3
REMARK VINA RESULT:      -7.1      7.697     11.633
REMARK  Name = 
REMARK  2 active torsions:
REMARK  status: ('A' for Active; 'I' for Inactive)
REMARK    1  A    between atoms: C_1  and  C_2
REMARK    2  A    between atoms: C_8  and  C_9
REMARK                            x       y       z     vdW  Elec       q    Type
REMARK                         _______ _______ _______ _____ _____    ______ ____
ROOT
ATOM      1  C   UNL     1      -1.211  12.270  21.544  0.00  0.00    +0.000 C 
ATOM      2  C   UNL     1      -0.207  11.125  21.432  0.00  0.00    +0.000 C 
ATOM      3  C   UNL     1      -0.650  10.013  20.461  0.00  0.00    +0.000 C 
ATOM      4  N   UNL     1      -0.496  10.435  19.055  0.00  0.00    +0.000 N 
ATOM      5  C   UNL     1      -1.594  10.672  18.276  0.00  0.00    +0.000 C 
ATOM      6  N   UNL     1      -2.820  10.663  18.699  0.00  0.00    +0.000 NA
ATOM      7  C   UNL     1      -3.591  10.927  17.589  0.00  0.00    +0.000 C 
ATOM      8  C   UNL     1      -4.922  11.057  17.525  0.00  0.00    +0.000 C 
ATOM      9  C   UNL     1      -2.712  11.077  16.406  0.00  0.00    +0.000 C 
ATOM     10  O   UNL     1      -3.010  11.286  15.248  0.00  0.00    +0.000 OA
ATOM     11  N   UNL     1      -1.477  10.928  16.949  0.00  0.00    +0.000 N 
ATOM     12  C   UNL     1       0.845  10.936  18.757  0.00  0.00    +0.000 C 
ATOM     13  C   UNL     1       1.224  12.045  19.746  0.00  0.00    +0.000 C 
ATOM     14  O   UNL     1       1.111  11.614  21.109  0.00  0.00    +0.000 OA
ATOM     15  H   UNL     1      -0.639  10.931  16.398  0.00  0.00    +0.000 HD
ENDROOT
BRANCH   8  16
ATOM     16  C   UNL     1      -5.817  11.017  18.637  0.00  0.00    +0.000 A 
ATOM     17  C   UNL     1      -6.833  10.095  18.809  0.00  0.00    +0.000 A 
ATOM     18  N   UNL     1      -7.425  10.339  20.017  0.00  0.00    +0.000 N 
ATOM     19  C   UNL     1      -6.814  11.392  20.628  0.00  0.00    +0.000 A 
ATOM     20  N   UNL     1      -7.153  11.866  21.841  0.00  0.00    +0.000 NA
ATOM     21  C   UNL     1      -6.402  12.925  22.218  0.00  0.00    +0.000 A 
ATOM     22  C   UNL     1      -5.390  13.514  21.467  0.00  0.00    +0.000 A 
ATOM     23  C   UNL     1      -5.077  12.981  20.216  0.00  0.00    +0.000 A 
ATOM     24  C   UNL     1      -5.810  11.864  19.781  0.00  0.00    +0.000 A 
ATOM     25  H   UNL     1      -8.194   9.826  20.422  0.00  0.00    +0.000 HD
ENDBRANCH   8  16
TORSDOF 1
ENDMDL
MODEL 4
REMARK VINA RESULT:      -7.0      2.412      6.128
REMARK  Name = 
REMARK  2 active torsions:
REMARK  status: ('A' for Active; 'I' for Inactive)
REMARK    1  A    between atoms: C_1  and  C_2
REMARK    2  A    between atoms: C_8  and  C_9
REMARK                            x       y       z     vdW  Elec       q    Type
REMARK                         _______ _______ _______ _____ _____    ______ ____
ROOT
ATOM      1  C   UNL     1       5.444   7.183  16.281  0.00  0.00    +0.000 C 
ATOM      2  C   UNL     1       6.862   6.944  16.796  0.00  0.00    +0.000 C 
ATOM      3  C   UNL     1       6.911   6.460  18.259  0.00  0.00    +0.000 C 
ATOM      4  N   UNL     1       6.511   5.043  18.368  0.00  0.00    +0.000 N 
ATOM      5  C   UNL     1       5.330   4.698  18.963  0.00  0.00    +0.000 C 
ATOM      6  N   UNL     1       4.429   5.539  19.369  0.00  0.00    +0.000 NA
ATOM      7  C   UNL     1       3.429   4.767  19.916  0.00  0.00    +0.000 C 
ATOM      8  C   UNL     1       2.267   5.178  20.438  0.00  0.00    +0.000 C 
ATOM      9  C   UNL     1       3.813   3.338  19.835  0.00  0.00    +0.000 C 
ATOM     10  O   UNL     1       3.216   2.358  20.232  0.00  0.00    +0.000 OA
ATOM     11  N   UNL     1       5.008   3.401  19.196  0.00  0.00    +0.000 N 
ATOM     12  C   UNL     1       7.261   4.171  17.465  0.00  0.00    +0.000 C 
ATOM     13  C   UNL     1       7.165   4.696  16.028  0.00  0.00    +0.000 C 
ATOM     14  O   UNL     1       7.594   6.060  15.922  0.00  0.00    +0.000 OA
ATOM     15  H   UNL     1       5.570   2.590  19.018  0.00  0.00    +0.000 HD
ENDROOT
BRANCH   8  16
ATOM     16  C   UNL     1       1.795   6.526  20.463  0.00  0.00    +0.000 A 
ATOM     17  C   UNL     1       1.196   7.139  21.548  0.00  0.00    +0.000 A 
ATOM     18  N   UNL     1       0.943   8.440  21.211  0.00  0.00    +0.000 N 
ATOM     19  C   UNL     1       1.368   8.680  19.938  0.00  0.00    +0.000 A 
ATOM     20  N   UNL     1       1.279   9.872  19.320  0.00  0.00    +0.000 NA
ATOM     21  C   UNL     1       1.760   9.844  18.057  0.00  0.00    +0.000 A 
ATOM     22  C   UNL     1       2.282   8.730  17.409  0.00  0.00    +0.000 A 
ATOM     23  C   UNL     1       2.354   7.519  18.096  0.00  0.00    +0.000 A 
ATOM     24  C   UNL     1       1.890   7.492  19.423  0.00  0.00    +0.000 A 
ATOM     25  H   UNL     1       0.517   9.140  21.799  0.00  0.00    +0.000 HD
ENDBRANCH   8  16
TORSDOF 1
ENDMDL
MODEL 5
REMARK VINA RESULT:      -6.8      2.737      6.007
REMARK  Name = 
REMARK  2 active torsions:
REMARK  status: ('A' for Active; 'I' for Inactive)
REMARK    1  A    between atoms: C_1  and  C_2
REMARK    2  A    between atoms: C_8  and  C_9
REMARK                            x       y       z     vdW  Elec       q    Type
REMARK                         _______ _______ _______ _____ _____    ______ ____
ROOT
ATOM      1  C   UNL     1       1.709   3.287  20.977  0.00  0.00    +0.000 C 
ATOM      2  C   UNL     1       1.261   2.426  19.798  0.00  0.00    +0.000 C 
ATOM      3  C   UNL     1       1.056   3.227  18.497  0.00  0.00    +0.000 C 
ATOM      4  N   UNL     1       2.347   3.593  17.883  0.00  0.00    +0.000 N 
ATOM      5  C   UNL     1       2.764   4.895  17.866  0.00  0.00    +0.000 C 
ATOM      6  N   UNL     1       2.156   5.877  18.456  0.00  0.00    +0.000 NA
ATOM      7  C   UNL     1       2.902   6.997  18.161  0.00  0.00    +0.000 C 
ATOM      8  C   UNL     1       2.695   8.253  18.577  0.00  0.00    +0.000 C 
ATOM      9  C   UNL     1       4.039   6.614  17.293  0.00  0.00    +0.000 C 
ATOM     10  O   UNL     1       4.900   7.314  16.800  0.00  0.00    +0.000 OA
ATOM     11  N   UNL     1       3.878   5.271  17.189  0.00  0.00    +0.000 N 
ATOM     12  C   UNL     1       3.234   2.445  17.700  0.00  0.00    +0.000 C 
ATOM     13  C   UNL     1       3.408   1.698  19.028  0.00  0.00    +0.000 C 
ATOM     14  O   UNL     1       2.151   1.310  19.597  0.00  0.00    +0.000 OA
ATOM     15  H   UNL     1       4.471   4.697  16.621  0.00  0.00    +0.000 HD
ENDROOT
BRANCH   8  16
ATOM     16  C   UNL     1       1.678   8.673  19.486  0.00  0.00    +0.000 A 
ATOM     17  C   UNL     1       1.440   8.114  20.728  0.00  0.00    +0.000 A 
ATOM     18  N   UNL     1       0.435   8.823  21.325  0.00  0.00    +0.000 N 
ATOM     19  C   UNL     1       0.023   9.827  20.501  0.00  0.00    +0.000 A 
ATOM     20  N   UNL     1      -0.939  10.716  20.809  0.00  0.00    +0.000 NA
ATOM     21  C   UNL     1      -1.170  11.603  19.816  0.00  0.00    +0.000 A 
ATOM     22  C   UNL     1      -0.527  11.631  18.583  0.00  0.00    +0.000 A 
ATOM     23  C   UNL     1       0.466  10.688  18.315  0.00  0.00    +0.000 A 
ATOM     24  C   UNL     1       0.765   9.753  19.321  0.00  0.00    +0.000 A 
ATOM     25  H   UNL     1       0.045   8.656  22.241  0.00  0.00    +0.000 HD
ENDBRANCH   8  16
TORSDOF 1
ENDMDL
MODEL 6
REMARK VINA RESULT:      -6.8      4.631      7.798
REMARK  Name = 
REMARK  2 active torsions:
REMARK  status: ('A' for Active; 'I' for Inactive)
REMARK    1  A    between atoms: C_1  and  C_2
REMARK    2  A    between atoms: C_8  and  C_9
REMARK                            x       y       z     vdW  Elec       q    Type
REMARK                         _______ _______ _______ _____ _____    ______ ____
ROOT
ATOM      1  C   UNL     1       1.245  12.987  18.326  0.00  0.00    +0.000 C 
ATOM      2  C   UNL     1      -0.227  13.392  18.307  0.00  0.00    +0.000 C 
ATOM      3  C   UNL     1      -1.164  12.332  18.921  0.00  0.00    +0.000 C 
ATOM      4  N   UNL     1      -1.069  12.321  20.394  0.00  0.00    +0.000 N 
ATOM      5  C   UNL     1      -0.493  11.267  21.046  0.00  0.00    +0.000 C 
ATOM      6  N   UNL     1       0.102  10.271  20.466  0.00  0.00    +0.000 NA
ATOM      7  C   UNL     1       0.507   9.443  21.489  0.00  0.00    +0.000 C 
ATOM      8  C   UNL     1       1.198   8.300  21.395  0.00  0.00    +0.000 C 
ATOM      9  C   UNL     1       0.075  10.016  22.785  0.00  0.00    +0.000 C 
ATOM     10  O   UNL     1       0.216   9.574  23.906  0.00  0.00    +0.000 OA
ATOM     11  N   UNL     1      -0.519  11.174  22.399  0.00  0.00    +0.000 N 
ATOM     12  C   UNL     1      -1.261  13.646  20.984  0.00  0.00    +0.000 C 
ATOM     13  C   UNL     1      -0.296  14.651  20.344  0.00  0.00    +0.000 C 
ATOM     14  O   UNL     1      -0.423  14.685  18.916  0.00  0.00    +0.000 OA
ATOM     15  H   UNL     1      -0.967  11.794  23.046  0.00  0.00    +0.000 HD
ENDROOT
BRANCH   8  16
ATOM     16  C   UNL     1       1.724   7.740  20.191  0.00  0.00    +0.000 A 
ATOM     17  C   UNL     1       2.016   8.454  19.043  0.00  0.00    +0.000 A 
ATOM     18  N   UNL     1       2.558   7.589  18.134  0.00  0.00    +0.000 N 
ATOM     19  C   UNL     1       2.626   6.337  18.669  0.00  0.00    +0.000 A 
ATOM     20  N   UNL     1       3.131   5.265  18.031  0.00  0.00    +0.000 NA
ATOM     21  C   UNL     1       3.071   4.138  18.774  0.00  0.00    +0.000 A 
ATOM     22  C   UNL     1       2.540   4.034  20.055  0.00  0.00    +0.000 A 
ATOM     23  C   UNL     1       2.031   5.177  20.672  0.00  0.00    +0.000 A 
ATOM     24  C   UNL     1       2.088   6.385  19.956  0.00  0.00    +0.000 A 
ATOM     25  H   UNL     1       2.877   7.818  17.205  0.00  0.00    +0.000 HD
ENDBRANCH   8  16
TORSDOF 1
ENDMDL
MODEL 7
REMARK VINA RESULT:      -6.7      9.111     12.513
REMARK  Name = 
REMARK  2 active torsions:
REMARK  status: ('A' for Active; 'I' for Inactive)
REMARK    1  A    between atoms: C_1  and  C_2
REMARK    2  A    between atoms: C_8  and  C_9
REMARK                            x       y       z     vdW  Elec       q    Type
REMARK                         _______ _______ _______ _____ _____    ______ ____
ROOT
ATOM      1  C   UNL     1      -2.139  14.085  20.962  0.00  0.00    +0.000 C 
ATOM      2  C   UNL     1      -0.877  13.240  21.122  0.00  0.00    +0.000 C 
ATOM      3  C   UNL     1      -0.978  11.853  20.456  0.00  0.00    +0.000 C 
ATOM      4  N   UNL     1      -0.861  11.953  18.988  0.00  0.00    +0.000 N 
ATOM      5  C   UNL     1      -1.941  11.712  18.186  0.00  0.00    +0.000 C 
ATOM      6  N   UNL     1      -3.147  11.492  18.610  0.00  0.00    +0.000 NA
ATOM      7  C   UNL     1      -3.899  11.280  17.477  0.00  0.00    +0.000 C 
ATOM      8  C   UNL     1      -5.216  11.048  17.398  0.00  0.00    +0.000 C 
ATOM      9  C   UNL     1      -3.025  11.362  16.285  0.00  0.00    +0.000 C 
ATOM     10  O   UNL     1      -3.304  11.205  15.114  0.00  0.00    +0.000 OA
ATOM     11  N   UNL     1      -1.822  11.664  16.835  0.00  0.00    +0.000 N 
ATOM     12  C   UNL     1       0.328  12.693  18.563  0.00  0.00    +0.000 C 
ATOM     13  C   UNL     1       0.366  14.064  19.248  0.00  0.00    +0.000 C 
ATOM     14  O   UNL     1       0.292  13.956  20.676  0.00  0.00    +0.000 OA
ATOM     15  H   UNL     1      -0.984  11.749  16.292  0.00  0.00    +0.000 HD
ENDROOT
BRANCH   8  16
ATOM     16  C   UNL     1      -6.130  11.048  18.495  0.00  0.00    +0.000 A 
ATOM     17  C   UNL     1      -6.791   9.935  18.980  0.00  0.00    +0.000 A 
ATOM     18  N   UNL     1      -7.523  10.320  20.069  0.00  0.00    +0.000 N 
ATOM     19  C   UNL     1      -7.346  11.652  20.299  0.00  0.00    +0.000 A 
ATOM     20  N   UNL     1      -7.916  12.330  21.312  0.00  0.00    +0.000 NA
ATOM     21  C   UNL     1      -7.592  13.642  21.312  0.00  0.00    +0.000 A 
ATOM     22  C   UNL     1      -6.779  14.280  20.381  0.00  0.00    +0.000 A 
ATOM     23  C   UNL     1      -6.211  13.530  19.352  0.00  0.00    +0.000 A 
ATOM     24  C   UNL     1      -6.494  12.154  19.314  0.00  0.00    +0.000 A 
ATOM     25  H   UNL     1      -8.106   9.727  20.640  0.00  0.00    +0.000 HD
ENDBRANCH   8  16
TORSDOF 1
ENDMDL
MODEL 8
REMARK VINA RESULT:      -6.6      2.995      6.782
REMARK  Name = 
REMARK  2 active torsions:
REMARK  status: ('A' for Active; 'I' for Inactive)
REMARK    1  A    between atoms: C_1  and  C_2
REMARK    2  A    between atoms: C_8  and  C_9
REMARK                            x       y       z     vdW  Elec       q    Type
REMARK                         _______ _______ _______ _____ _____    ______ ____
ROOT
ATOM      1  C   UNL     1       5.209   6.942  15.726  0.00  0.00    +0.000 C 
ATOM      2  C   UNL     1       6.607   6.661  16.273  0.00  0.00    +0.000 C 
ATOM      3  C   UNL     1       6.649   6.528  17.809  0.00  0.00    +0.000 C 
ATOM      4  N   UNL     1       6.093   5.234  18.251  0.00  0.00    +0.000 N 
ATOM      5  C   UNL     1       4.901   5.181  18.916  0.00  0.00    +0.000 C 
ATOM      6  N   UNL     1       4.118   6.196  19.119  0.00  0.00    +0.000 NA
ATOM      7  C   UNL     1       3.054   5.697  19.839  0.00  0.00    +0.000 C 
ATOM      8  C   UNL     1       1.966   6.356  20.256  0.00  0.00    +0.000 C 
ATOM      9  C   UNL     1       3.268   4.254  20.093  0.00  0.00    +0.000 C 
ATOM     10  O   UNL     1       2.576   3.472  20.712  0.00  0.00    +0.000 OA
ATOM     11  N   UNL     1       4.439   4.022  19.450  0.00  0.00    +0.000 N 
ATOM     12  C   UNL     1       6.706   4.092  17.573  0.00  0.00    +0.000 C 
ATOM     13  C   UNL     1       6.622   4.276  16.053  0.00  0.00    +0.000 C 
ATOM     14  O   UNL     1       7.202   5.517  15.628  0.00  0.00    +0.000 OA
ATOM     15  H   UNL     1       4.898   3.131  19.463  0.00  0.00    +0.000 HD
ENDROOT
BRANCH   8  16
ATOM     16  C   UNL     1       1.654   7.719  19.967  0.00  0.00    +0.000 A 
ATOM     17  C   UNL     1       1.871   8.345  18.753  0.00  0.00    +0.000 A 
ATOM     18  N   UNL     1       1.387   9.620  18.843  0.00  0.00    +0.000 N 
ATOM     19  C   UNL     1       0.860   9.830  20.083  0.00  0.00    +0.000 A 
ATOM     20  N   UNL     1       0.286  10.980  20.479  0.00  0.00    +0.000 NA
ATOM     21  C   UNL     1      -0.146  10.936  21.759  0.00  0.00    +0.000 A 
ATOM     22  C   UNL     1      -0.020   9.855  22.624  0.00  0.00    +0.000 A 
ATOM     23  C   UNL     1       0.582   8.684  22.162  0.00  0.00    +0.000 A 
ATOM     24  C   UNL     1       1.030   8.663  20.830  0.00  0.00    +0.000 A 
ATOM     25  H   UNL     1       1.397  10.318  18.114  0.00  0.00    +0.000 HD
ENDBRANCH   8  16
TORSDOF 1
ENDMDL
MODEL 9
REMARK VINA RESULT:      -6.3      2.931      5.749
REMARK  Name = 
REMARK  2 active torsions:
REMARK  status: ('A' for Active; 'I' for Inactive)
REMARK    1  A    between atoms: C_1  and  C_2
REMARK    2  A    between atoms: C_8  and  C_9
REMARK                            x       y       z     vdW  Elec       q    Type
REMARK                         _______ _______ _______ _____ _____    ______ ____
ROOT
ATOM      1  C   UNL     1       1.537   4.018  20.803  0.00  0.00    +0.000 C 
ATOM      2  C   UNL     1       1.119   3.022  19.724  0.00  0.00    +0.000 C 
ATOM      3  C   UNL     1       1.126   3.618  18.303  0.00  0.00    +0.000 C 
ATOM      4  N   UNL     1       2.502   3.769  17.790  0.00  0.00    +0.000 N 
ATOM      5  C   UNL     1       3.050   5.009  17.625  0.00  0.00    +0.000 C 
ATOM      6  N   UNL     1       2.492   6.122  17.989  0.00  0.00    +0.000 NA
ATOM      7  C   UNL     1       3.374   7.112  17.615  0.00  0.00    +0.000 C 
ATOM      8  C   UNL     1       3.258   8.431  17.812  0.00  0.00    +0.000 C 
ATOM      9  C   UNL     1       4.545   6.499  16.947  0.00  0.00    +0.000 C 
ATOM     10  O   UNL     1       5.517   7.034  16.455  0.00  0.00    +0.000 OA
ATOM     11  N   UNL     1       4.258   5.175  17.029  0.00  0.00    +0.000 N 
ATOM     12  C   UNL     1       3.279   2.533  17.882  0.00  0.00    +0.000 C 
ATOM     13  C   UNL     1       3.245   1.997  19.318  0.00  0.00    +0.000 C 
ATOM     14  O   UNL     1       1.905   1.814  19.794  0.00  0.00    +0.000 OA
ATOM     15  H   UNL     1       4.841   4.468  16.623  0.00  0.00    +0.000 HD
ENDROOT
BRANCH   8  16
ATOM     16  C   UNL     1       2.206   9.078  18.528  0.00  0.00    +0.000 A 
ATOM     17  C   UNL     1       1.337   8.453  19.403  0.00  0.00    +0.000 A 
ATOM     18  N   UNL     1       0.516   9.407  19.938  0.00  0.00    +0.000 N 
ATOM     19  C   UNL     1       0.838  10.631  19.432  0.00  0.00    +0.000 A 
ATOM     20  N   UNL     1       0.227  11.779  19.777  0.00  0.00    +0.000 NA
ATOM     21  C   UNL     1       0.724  12.853  19.124  0.00  0.00    +0.000 A 
ATOM     22  C   UNL     1       1.741  12.831  18.175  0.00  0.00    +0.000 A 
ATOM     23  C   UNL     1       2.343  11.614  17.856  0.00  0.00    +0.000 A 
ATOM     24  C   UNL     1       1.883  10.464  18.521  0.00  0.00    +0.000 A 
ATOM     25  H   UNL     1      -0.218   9.256  20.613  0.00  0.00    +0.000 HD
ENDBRANCH   8  16
TORSDOF 1
ENDMDL
