MODEL 1
REMARK VINA RESULT:      -7.7      0.000      0.000
REMARK  Name = 
REMARK  8 active torsions:
REMARK  status: ('A' for Active; 'I' for Inactive)
REMARK    1  A    between atoms: N_1  and  C_2
REMARK    2  A    between atoms: C_2  and  C_3
REMARK    3  A    between atoms: C_2  and  C_16
REMARK    4  A    between atoms: C_6  and  O_7
REMARK    5  A    between atoms: O_7  and  C_8
REMARK    6  A    between atoms: N_19  and  C_20
REMARK    7  A    between atoms: C_20  and  C_21
REMARK    8  A    between atoms: C_20  and  C_27
REMARK                            x       y       z     vdW  Elec       q    Type
REMARK                         _______ _______ _______ _____ _____    ______ ____
ROOT
ATOM      1  C   UNL     1       0.749  10.067  19.963  0.00  0.00    +0.000 C 
ENDROOT
BRANCH   1   2
ATOM      2  C   UNL     1       1.453   8.765  19.532  0.00  0.00    +0.000 A 
ATOM      3  C   UNL     1       1.672   7.696  20.429  0.00  0.00    +0.000 A 
ATOM      4  C   UNL     1       2.269   6.501  20.020  0.00  0.00    +0.000 A 
ATOM      5  C   UNL     1       2.668   6.341  18.701  0.00  0.00    +0.000 A 
ATOM      6  C   UNL     1       2.580   7.421  17.827  0.00  0.00    +0.000 A 
ATOM      7  C   UNL     1       1.978   8.616  18.240  0.00  0.00    +0.000 A 
BRANCH   5   8
ATOM      8  O   UNL     1       3.204   5.119  18.379  0.00  0.00    +0.000 OA
BRANCH   8   9
ATOM      9  C   UNL     1       4.535   5.016  18.046  0.00  0.00    +0.000 A 
ATOM     10  C   UNL     1       4.788   4.532  16.762  0.00  0.00    +0.000 A 
ATOM     11  C   UNL     1       6.099   4.374  16.316  0.00  0.00    +0.000 A 
ATOM     12  C   UNL     1       7.163   4.703  17.154  0.00  0.00    +0.000 A 
ATOM     13  C   UNL     1       6.915   5.222  18.425  0.00  0.00    +0.000 A 
ATOM     14  C   UNL     1       5.602   5.405  18.861  0.00  0.00    +0.000 A 
ENDBRANCH   8   9
ENDBRANCH   5   8
ENDBRANCH   1   2
BRANCH   1  15
ATOM     15  C   UNL     1       0.624  10.197  21.514  0.00  0.00    +0.000 C 
ATOM     16  C   UNL     1      -0.374   9.299  22.269  0.00  0.00    +0.000 C 
ATOM     17  C   UNL     1      -0.744  10.512  23.104  0.00  0.00    +0.000 C 
ATOM     18  N   UNL     1      -0.003  11.400  22.180  0.00  0.00    +0.000 NA
BRANCH  18  19
ATOM     19  C   UNL     1      -0.947  12.263  21.410  0.00  0.00    +0.000 C 
BRANCH  19  20
ATOM     20  C   UNL     1      -2.124  12.728  22.310  0.00  0.00    +0.000 A 
ATOM     21  C   UNL     1      -3.468  12.460  21.983  0.00  0.00    +0.000 A 
ATOM     22  C   UNL     1      -4.519  12.968  22.743  0.00  0.00    +0.000 A 
ATOM     23  C   UNL     1      -4.251  13.775  23.852  0.00  0.00    +0.000 A 
ATOM     24  C   UNL     1      -2.937  14.050  24.196  0.00  0.00    +0.000 A 
ATOM     25  C   UNL     1      -1.875  13.527  23.443  0.00  0.00    +0.000 A 
ENDBRANCH  19  20
BRANCH  19  26
ATOM     26  C   UNL     1      -0.253  13.469  20.759  0.00  0.00    +0.000 A 
ATOM     27  C   UNL     1      -0.752  14.009  19.558  0.00  0.00    +0.000 A 
ATOM     28  C   UNL     1       0.001  14.934  18.824  0.00  0.00    +0.000 A 
ATOM     29  C   UNL     1       1.238  15.367  19.301  0.00  0.00    +0.000 A 
ATOM     30  C   UNL     1       1.707  14.908  20.529  0.00  0.00    +0.000 A 
ATOM     31  C   UNL     1       0.966  13.971  21.253  0.00  0.00    +0.000 A 
ENDBRANCH  19  26
ENDBRANCH  18  19
ENDBRANCH   1  15
BRANCH   1  32
ATOM     32  N   UNL     1       1.490  11.217  19.459  0.00  0.00    +0.000 NA
ATOM     33  H   UNL     1       2.435  10.964  19.192  0.00  0.00    +0.000 HD
ATOM     34  H   UNL     1       1.508  11.976  20.130  0.00  0.00    +0.000 HD
ENDBRANCH   1  32
TORSDOF 8
ENDMDL
MODEL 2
REMARK VINA RESULT:      -7.7      1.352      2.073
REMARK  Name = 
REMARK  8 active torsions:
REMARK  status: ('A' for Active; 'I' for Inactive)
REMARK    1  A    between atoms: N_1  and  C_2
REMARK    2  A    between atoms: C_2  and  C_3
REMARK    3  A    between atoms: C_2  and  C_16
REMARK    4  A    between atoms: C_6  and  O_7
REMARK    5  A    between atoms: O_7  and  C_8
REMARK    6  A    between atoms: N_19  and  C_20
REMARK    7  A    between atoms: C_20  and  C_21
REMARK    8  A    between atoms: C_20  and  C_27
REMARK                            x       y       z     vdW  Elec       q    Type
REMARK                         _______ _______ _______ _____ _____    ______ ____
ROOT
ATOM      1  C   UNL     1       0.666  10.515  19.943  0.00  0.00    +0.000 C 
ENDROOT
BRANCH   1   2
ATOM      2  C   UNL     1       1.340   9.234  19.413  0.00  0.00    +0.000 A 
ATOM      3  C   UNL     1       1.586   9.028  18.037  0.00  0.00    +0.000 A 
ATOM      4  C   UNL     1       2.240   7.886  17.569  0.00  0.00    +0.000 A 
ATOM      5  C   UNL     1       2.664   6.913  18.462  0.00  0.00    +0.000 A 
ATOM      6  C   UNL     1       2.324   7.030  19.808  0.00  0.00    +0.000 A 
ATOM      7  C   UNL     1       1.672   8.178  20.273  0.00  0.00    +0.000 A 
BRANCH   5   8
ATOM      8  O   UNL     1       3.336   5.848  17.917  0.00  0.00    +0.000 OA
BRANCH   8   9
ATOM      9  C   UNL     1       2.995   4.563  18.271  0.00  0.00    +0.000 A 
ATOM     10  C   UNL     1       1.651   4.235  18.085  0.00  0.00    +0.000 A 
ATOM     11  C   UNL     1       1.186   2.963  18.419  0.00  0.00    +0.000 A 
ATOM     12  C   UNL     1       2.066   2.016  18.938  0.00  0.00    +0.000 A 
ATOM     13  C   UNL     1       3.416   2.327  19.091  0.00  0.00    +0.000 A 
ATOM     14  C   UNL     1       3.887   3.591  18.732  0.00  0.00    +0.000 A 
ENDBRANCH   8   9
ENDBRANCH   5   8
ENDBRANCH   1   2
BRANCH   1  15
ATOM     15  C   UNL     1       0.527  10.521  21.499  0.00  0.00    +0.000 C 
ATOM     16  C   UNL     1      -0.468   9.557  22.172  0.00  0.00    +0.000 C 
ATOM     17  C   UNL     1      -0.857  10.697  23.096  0.00  0.00    +0.000 C 
ATOM     18  N   UNL     1      -0.117  11.662  22.252  0.00  0.00    +0.000 NA
BRANCH  18  19
ATOM     19  C   UNL     1      -1.063  12.574  21.545  0.00  0.00    +0.000 C 
BRANCH  19  20
ATOM     20  C   UNL     1      -2.266  12.933  22.458  0.00  0.00    +0.000 A 
ATOM     21  C   UNL     1      -3.586  12.557  22.139  0.00  0.00    +0.000 A 
ATOM     22  C   UNL     1      -4.670  12.969  22.911  0.00  0.00    +0.000 A 
ATOM     23  C   UNL     1      -4.460  13.786  24.025  0.00  0.00    +0.000 A 
ATOM     24  C   UNL     1      -3.171  14.166  24.362  0.00  0.00    +0.000 A 
ATOM     25  C   UNL     1      -2.075  13.740  23.596  0.00  0.00    +0.000 A 
ENDBRANCH  19  20
BRANCH  19  26
ATOM     26  C   UNL     1      -0.381  13.849  21.022  0.00  0.00    +0.000 A 
ATOM     27  C   UNL     1      -0.836  14.460  19.838  0.00  0.00    +0.000 A 
ATOM     28  C   UNL     1      -0.080  15.461  19.216  0.00  0.00    +0.000 A 
ATOM     29  C   UNL     1       1.114  15.898  19.791  0.00  0.00    +0.000 A 
ATOM     30  C   UNL     1       1.534  15.365  21.007  0.00  0.00    +0.000 A 
ATOM     31  C   UNL     1       0.791  14.352  21.619  0.00  0.00    +0.000 A 
ENDBRANCH  19  26
ENDBRANCH  18  19
ENDBRANCH   1  15
BRANCH   1  32
ATOM     32  N   UNL     1       1.443  11.682  19.542  0.00  0.00    +0.000 NA
ATOM     33  H   UNL     1       1.402  12.416  20.240  0.00  0.00    +0.000 HD
ATOM     34  H   UNL     1       1.146  12.039  18.641  0.00  0.00    +0.000 HD
ENDBRANCH   1  32
TORSDOF 8
ENDMDL
MODEL 3
REMARK VINA RESULT:      -7.6      0.878      1.391
REMARK  Name = 
REMARK  8 active torsions:
REMARK  status: ('A' for Active; 'I' for Inactive)
REMARK    1  A    between atoms: N_1  and  C_2
REMARK    2  A    between atoms: C_2  and  C_3
REMARK    3  A    between atoms: C_2  and  C_16
REMARK    4  A    between atoms: C_6  and  O_7
REMARK    5  A    between atoms: O_7  and  C_8
REMARK    6  A    between atoms: N_19  and  C_20
REMARK    7  A    between atoms: C_20  and  C_21
REMARK    8  A    between atoms: C_20  and  C_27
REMARK                            x       y       z     vdW  Elec       q    Type
REMARK                         _______ _______ _______ _____ _____    ______ ____
ROOT
ATOM      1  C   UNL     1       0.639  10.623  19.951  0.00  0.00    +0.000 C 
ENDROOT
BRANCH   1   2
ATOM      2  C   UNL     1       1.359   9.373  19.407  0.00  0.00    +0.000 A 
ATOM      3  C   UNL     1       1.764   9.266  18.058  0.00  0.00    +0.000 A 
ATOM      4  C   UNL     1       2.457   8.150  17.583  0.00  0.00    +0.000 A 
ATOM      5  C   UNL     1       2.765   7.106  18.443  0.00  0.00    +0.000 A 
ATOM      6  C   UNL     1       2.270   7.129  19.745  0.00  0.00    +0.000 A 
ATOM      7  C   UNL     1       1.578   8.250  20.218  0.00  0.00    +0.000 A 
BRANCH   5   8
ATOM      8  O   UNL     1       3.486   6.072  17.901  0.00  0.00    +0.000 OA
BRANCH   8   9
ATOM      9  C   UNL     1       4.859   6.070  17.985  0.00  0.00    +0.000 A 
ATOM     10  C   UNL     1       5.383   5.393  19.087  0.00  0.00    +0.000 A 
ATOM     11  C   UNL     1       6.762   5.332  19.283  0.00  0.00    +0.000 A 
ATOM     12  C   UNL     1       7.621   5.948  18.374  0.00  0.00    +0.000 A 
ATOM     13  C   UNL     1       7.104   6.594  17.253  0.00  0.00    +0.000 A 
ATOM     14  C   UNL     1       5.725   6.631  17.042  0.00  0.00    +0.000 A 
ENDBRANCH   8   9
ENDBRANCH   5   8
ENDBRANCH   1   2
BRANCH   1  15
ATOM     15  C   UNL     1       0.472  10.592  21.504  0.00  0.00    +0.000 C 
ATOM     16  C   UNL     1      -0.510   9.587  22.137  0.00  0.00    +0.000 C 
ATOM     17  C   UNL     1      -0.946  10.696  23.077  0.00  0.00    +0.000 C 
ATOM     18  N   UNL     1      -0.218  11.698  22.268  0.00  0.00    +0.000 NA
BRANCH  18  19
ATOM     19  C   UNL     1      -1.175  12.600  21.562  0.00  0.00    +0.000 C 
BRANCH  19  20
ATOM     20  C   UNL     1      -2.391  12.928  22.469  0.00  0.00    +0.000 A 
ATOM     21  C   UNL     1      -3.709  12.584  22.108  0.00  0.00    +0.000 A 
ATOM     22  C   UNL     1      -4.802  12.971  22.880  0.00  0.00    +0.000 A 
ATOM     23  C   UNL     1      -4.605  13.730  24.036  0.00  0.00    +0.000 A 
ATOM     24  C   UNL     1      -3.318  14.079  24.414  0.00  0.00    +0.000 A 
ATOM     25  C   UNL     1      -2.212  13.677  23.649  0.00  0.00    +0.000 A 
ENDBRANCH  19  20
BRANCH  19  26
ATOM     26  C   UNL     1      -0.512  13.891  21.057  0.00  0.00    +0.000 A 
ATOM     27  C   UNL     1      -0.935  14.478  19.848  0.00  0.00    +0.000 A 
ATOM     28  C   UNL     1      -0.185  15.498  19.249  0.00  0.00    +0.000 A 
ATOM     29  C   UNL     1       0.968  15.978  19.871  0.00  0.00    +0.000 A 
ATOM     30  C   UNL     1       1.352  15.469  21.108  0.00  0.00    +0.000 A 
ATOM     31  C   UNL     1       0.617  14.438  21.698  0.00  0.00    +0.000 A 
ENDBRANCH  19  26
ENDBRANCH  18  19
ENDBRANCH   1  15
BRANCH   1  32
ATOM     32  N   UNL     1       1.390  11.819  19.589  0.00  0.00    +0.000 NA
ATOM     33  H   UNL     1       0.784  12.625  19.489  0.00  0.00    +0.000 HD
ATOM     34  H   UNL     1       1.931  11.681  18.743  0.00  0.00    +0.000 HD
ENDBRANCH   1  32
TORSDOF 8
ENDMDL
MODEL 4
REMARK VINA RESULT:      -7.6      2.377      4.637
REMARK  Name = 
REMARK  8 active torsions:
REMARK  status: ('A' for Active; 'I' for Inactive)
REMARK    1  A    between atoms: N_1  and  C_2
REMARK    2  A    between atoms: C_2  and  C_3
REMARK    3  A    between atoms: C_2  and  C_16
REMARK    4  A    between atoms: C_6  and  O_7
REMARK    5  A    between atoms: O_7  and  C_8
REMARK    6  A    between atoms: N_19  and  C_20
REMARK    7  A    between atoms: C_20  and  C_21
REMARK    8  A    between atoms: C_20  and  C_27
REMARK                            x       y       z     vdW  Elec       q    Type
REMARK                         _______ _______ _______ _____ _____    ______ ____
ROOT
ATOM      1  C   UNL     1       0.109  11.511  18.936  0.00  0.00    +0.000 C 
ENDROOT
BRANCH   1   2
ATOM      2  C   UNL     1       0.814  10.145  19.055  0.00  0.00    +0.000 A 
ATOM      3  C   UNL     1       1.341   9.470  17.932  0.00  0.00    +0.000 A 
ATOM      4  C   UNL     1       2.019   8.255  18.054  0.00  0.00    +0.000 A 
ATOM      5  C   UNL     1       2.189   7.677  19.303  0.00  0.00    +0.000 A 
ATOM      6  C   UNL     1       1.572   8.255  20.410  0.00  0.00    +0.000 A 
ATOM      7  C   UNL     1       0.896   9.474  20.284  0.00  0.00    +0.000 A 
BRANCH   5   8
ATOM      8  O   UNL     1       2.905   6.507  19.333  0.00  0.00    +0.000 OA
BRANCH   8   9
ATOM      9  C   UNL     1       2.256   5.303  19.481  0.00  0.00    +0.000 A 
ATOM     10  C   UNL     1       2.006   4.616  18.293  0.00  0.00    +0.000 A 
ATOM     11  C   UNL     1       1.344   3.389  18.317  0.00  0.00    +0.000 A 
ATOM     12  C   UNL     1       0.933   2.845  19.532  0.00  0.00    +0.000 A 
ATOM     13  C   UNL     1       1.213   3.510  20.725  0.00  0.00    +0.000 A 
ATOM     14  C   UNL     1       1.899   4.725  20.703  0.00  0.00    +0.000 A 
ENDBRANCH   8   9
ENDBRANCH   5   8
ENDBRANCH   1   2
BRANCH   1  15
ATOM     15  C   UNL     1       1.036  12.614  18.333  0.00  0.00    +0.000 C 
ATOM     16  C   UNL     1       2.539  12.325  18.160  0.00  0.00    +0.000 C 
ATOM     17  C   UNL     1       2.807  13.733  18.662  0.00  0.00    +0.000 C 
ATOM     18  N   UNL     1       1.396  13.872  19.088  0.00  0.00    +0.000 NA
BRANCH  18  19
ATOM     19  C   UNL     1       1.297  13.896  20.577  0.00  0.00    +0.000 C 
BRANCH  19  20
ATOM     20  C   UNL     1       1.880  15.218  21.145  0.00  0.00    +0.000 A 
ATOM     21  C   UNL     1       1.543  16.477  20.608  0.00  0.00    +0.000 A 
ATOM     22  C   UNL     1       2.147  17.648  21.058  0.00  0.00    +0.000 A 
ATOM     23  C   UNL     1       3.123  17.589  22.057  0.00  0.00    +0.000 A 
ATOM     24  C   UNL     1       3.469  16.364  22.603  0.00  0.00    +0.000 A 
ATOM     25  C   UNL     1       2.851  15.183  22.164  0.00  0.00    +0.000 A 
ENDBRANCH  19  20
BRANCH  19  26
ATOM     26  C   UNL     1      -0.139  13.677  21.080  0.00  0.00    +0.000 A 
ATOM     27  C   UNL     1      -0.407  12.683  22.042  0.00  0.00    +0.000 A 
ATOM     28  C   UNL     1      -1.725  12.300  22.323  0.00  0.00    +0.000 A 
ATOM     29  C   UNL     1      -2.790  12.935  21.685  0.00  0.00    +0.000 A 
ATOM     30  C   UNL     1      -2.546  13.978  20.796  0.00  0.00    +0.000 A 
ATOM     31  C   UNL     1      -1.232  14.348  20.499  0.00  0.00    +0.000 A 
ENDBRANCH  19  26
ENDBRANCH  18  19
ENDBRANCH   1  15
BRANCH   1  32
ATOM     32  N   UNL     1      -1.071  11.382  18.089  0.00  0.00    +0.000 NA
ATOM     33  H   UNL     1      -1.905  11.199  18.636  0.00  0.00    +0.000 HD
ATOM     34  H   UNL     1      -0.951  10.663  17.384  0.00  0.00    +0.000 HD
ENDBRANCH   1  32
TORSDOF 8
ENDMDL
MODEL 5
REMARK VINA RESULT:      -7.6      2.304      4.168
REMARK  Name = 
REMARK  8 active torsions:
REMARK  status: ('A' for Active; 'I' for Inactive)
REMARK    1  A    between atoms: N_1  and  C_2
REMARK    2  A    between atoms: C_2  and  C_3
REMARK    3  A    between atoms: C_2  and  C_16
REMARK    4  A    between atoms: C_6  and  O_7
REMARK    5  A    between atoms: O_7  and  C_8
REMARK    6  A    between atoms: N_19  and  C_20
REMARK    7  A    between atoms: C_20  and  C_21
REMARK    8  A    between atoms: C_20  and  C_27
REMARK                            x       y       z     vdW  Elec       q    Type
REMARK                         _______ _______ _______ _____ _____    ______ ____
ROOT
ATOM      1  C   UNL     1      -0.309  11.097  19.360  0.00  0.00    +0.000 C 
ENDROOT
BRANCH   1   2
ATOM      2  C   UNL     1       0.612   9.862  19.347  0.00  0.00    +0.000 A 
ATOM      3  C   UNL     1       0.929   9.148  20.524  0.00  0.00    +0.000 A 
ATOM      4  C   UNL     1       1.727   8.002  20.499  0.00  0.00    +0.000 A 
ATOM      5  C   UNL     1       2.236   7.537  19.295  0.00  0.00    +0.000 A 
ATOM      6  C   UNL     1       2.044   8.290  18.139  0.00  0.00    +0.000 A 
ATOM      7  C   UNL     1       1.241   9.436  18.168  0.00  0.00    +0.000 A 
BRANCH   5   8
ATOM      8  O   UNL     1       2.973   6.381  19.359  0.00  0.00    +0.000 OA
BRANCH   8   9
ATOM      9  C   UNL     1       2.342   5.169  19.519  0.00  0.00    +0.000 A 
ATOM     10  C   UNL     1       1.933   4.554  18.334  0.00  0.00    +0.000 A 
ATOM     11  C   UNL     1       1.273   3.326  18.371  0.00  0.00    +0.000 A 
ATOM     12  C   UNL     1       1.023   2.709  19.596  0.00  0.00    +0.000 A 
ATOM     13  C   UNL     1       1.462   3.301  20.779  0.00  0.00    +0.000 A 
ATOM     14  C   UNL     1       2.146   4.517  20.739  0.00  0.00    +0.000 A 
ENDBRANCH   8   9
ENDBRANCH   5   8
ENDBRANCH   1   2
BRANCH   1  15
ATOM     15  C   UNL     1       0.358  12.352  18.711  0.00  0.00    +0.000 C 
ATOM     16  C   UNL     1       1.895  12.440  18.647  0.00  0.00    +0.000 C 
ATOM     17  C   UNL     1       1.768  13.903  19.034  0.00  0.00    +0.000 C 
ATOM     18  N   UNL     1       0.339  13.712  19.369  0.00  0.00    +0.000 NA
BRANCH  18  19
ATOM     19  C   UNL     1       0.126  13.819  20.842  0.00  0.00    +0.000 C 
BRANCH  19  20
ATOM     20  C   UNL     1       0.330  15.281  21.321  0.00  0.00    +0.000 A 
ATOM     21  C   UNL     1      -0.263  16.376  20.661  0.00  0.00    +0.000 A 
ATOM     22  C   UNL     1       0.007  17.689  21.037  0.00  0.00    +0.000 A 
ATOM     23  C   UNL     1       0.896  17.945  22.085  0.00  0.00    +0.000 A 
ATOM     24  C   UNL     1       1.489  16.886  22.753  0.00  0.00    +0.000 A 
ATOM     25  C   UNL     1       1.208  15.560  22.388  0.00  0.00    +0.000 A 
ENDBRANCH  19  20
BRANCH  19  26
ATOM     26  C   UNL     1      -1.248  13.292  21.283  0.00  0.00    +0.000 A 
ATOM     27  C   UNL     1      -2.417  13.723  20.625  0.00  0.00    +0.000 A 
ATOM     28  C   UNL     1      -3.680  13.455  21.166  0.00  0.00    +0.000 A 
ATOM     29  C   UNL     1      -3.797  12.715  22.343  0.00  0.00    +0.000 A 
ATOM     30  C   UNL     1      -2.657  12.208  22.960  0.00  0.00    +0.000 A 
ATOM     31  C   UNL     1      -1.394  12.490  22.432  0.00  0.00    +0.000 A 
ENDBRANCH  19  26
ENDBRANCH  18  19
ENDBRANCH   1  15
BRANCH   1  32
ATOM     32  N   UNL     1      -1.540  10.800  18.636  0.00  0.00    +0.000 NA
ATOM     33  H   UNL     1      -1.359  10.595  17.660  0.00  0.00    +0.000 HD
ATOM     34  H   UNL     1      -2.214  11.553  18.716  0.00  0.00    +0.000 HD
ENDBRANCH   1  32
TORSDOF 8
ENDMDL
MODEL 6
REMARK VINA RESULT:      -7.5      2.278      4.403
REMARK  Name = 
REMARK  8 active torsions:
REMARK  status: ('A' for Active; 'I' for Inactive)
REMARK    1  A    between atoms: N_1  and  C_2
REMARK    2  A    between atoms: C_2  and  C_3
REMARK    3  A    between atoms: C_2  and  C_16
REMARK    4  A    between atoms: C_6  and  O_7
REMARK    5  A    between atoms: O_7  and  C_8
REMARK    6  A    between atoms: N_19  and  C_20
REMARK    7  A    between atoms: C_20  and  C_21
REMARK    8  A    between atoms: C_20  and  C_27
REMARK                            x       y       z     vdW  Elec       q    Type
REMARK                         _______ _______ _______ _____ _____    ______ ____
ROOT
ATOM      1  C   UNL     1      -0.080  11.060  19.411  0.00  0.00    +0.000 C 
ENDROOT
BRANCH   1   2
ATOM      2  C   UNL     1       0.780   9.780  19.413  0.00  0.00    +0.000 A 
ATOM      3  C   UNL     1       1.054   9.061  20.598  0.00  0.00    +0.000 A 
ATOM      4  C   UNL     1       1.795   7.877  20.586  0.00  0.00    +0.000 A 
ATOM      5  C   UNL     1       2.287   7.378  19.389  0.00  0.00    +0.000 A 
ATOM      6  C   UNL     1       2.139   8.130  18.226  0.00  0.00    +0.000 A 
ATOM      7  C   UNL     1       1.394   9.315  18.242  0.00  0.00    +0.000 A 
BRANCH   5   8
ATOM      8  O   UNL     1       2.964   6.187  19.466  0.00  0.00    +0.000 OA
BRANCH   8   9
ATOM      9  C   UNL     1       2.272   4.998  19.475  0.00  0.00    +0.000 A 
ATOM     10  C   UNL     1       2.100   4.405  18.223  0.00  0.00    +0.000 A 
ATOM     11  C   UNL     1       1.405   3.202  18.105  0.00  0.00    +0.000 A 
ATOM     12  C   UNL     1       0.882   2.588  19.242  0.00  0.00    +0.000 A 
ATOM     13  C   UNL     1       1.082   3.158  20.498  0.00  0.00    +0.000 A 
ATOM     14  C   UNL     1       1.801   4.348  20.619  0.00  0.00    +0.000 A 
ENDBRANCH   8   9
ENDBRANCH   5   8
ENDBRANCH   1   2
BRANCH   1  15
ATOM     15  C   UNL     1       0.600  12.238  18.642  0.00  0.00    +0.000 C 
ATOM     16  C   UNL     1       2.127  12.229  18.444  0.00  0.00    +0.000 C 
ATOM     17  C   UNL     1       2.118  13.714  18.761  0.00  0.00    +0.000 C 
ATOM     18  N   UNL     1       0.715  13.627  19.224  0.00  0.00    +0.000 NA
BRANCH  18  19
ATOM     19  C   UNL     1       0.637  13.819  20.702  0.00  0.00    +0.000 C 
BRANCH  19  20
ATOM     20  C   UNL     1       1.110  15.245  21.097  0.00  0.00    +0.000 A 
ATOM     21  C   UNL     1       1.923  15.479  22.223  0.00  0.00    +0.000 A 
ATOM     22  C   UNL     1       2.259  16.769  22.626  0.00  0.00    +0.000 A 
ATOM     23  C   UNL     1       1.774  17.869  21.914  0.00  0.00    +0.000 A 
ATOM     24  C   UNL     1       0.975  17.665  20.800  0.00  0.00    +0.000 A 
ATOM     25  C   UNL     1       0.647  16.367  20.381  0.00  0.00    +0.000 A 
ENDBRANCH  19  20
BRANCH  19  26
ATOM     26  C   UNL     1      -0.765  13.539  21.265  0.00  0.00    +0.000 A 
ATOM     27  C   UNL     1      -0.920  12.735  22.411  0.00  0.00    +0.000 A 
ATOM     28  C   UNL     1      -2.184  12.264  22.787  0.00  0.00    +0.000 A 
ATOM     29  C   UNL     1      -3.314  12.627  22.054  0.00  0.00    +0.000 A 
ATOM     30  C   UNL     1      -3.190  13.491  20.969  0.00  0.00    +0.000 A 
ATOM     31  C   UNL     1      -1.927  13.946  20.581  0.00  0.00    +0.000 A 
ENDBRANCH  19  26
ENDBRANCH  18  19
ENDBRANCH   1  15
BRANCH   1  32
ATOM     32  N   UNL     1      -1.370  10.784  18.791  0.00  0.00    +0.000 NA
ATOM     33  H   UNL     1      -2.133  10.905  19.447  0.00  0.00    +0.000 HD
ATOM     34  H   UNL     1      -1.401   9.855  18.387  0.00  0.00    +0.000 HD
ENDBRANCH   1  32
TORSDOF 8
ENDMDL
MODEL 7
REMARK VINA RESULT:      -7.5      2.320      4.166
REMARK  Name = 
REMARK  8 active torsions:
REMARK  status: ('A' for Active; 'I' for Inactive)
REMARK    1  A    between atoms: N_1  and  C_2
REMARK    2  A    between atoms: C_2  and  C_3
REMARK    3  A    between atoms: C_2  and  C_16
REMARK    4  A    between atoms: C_6  and  O_7
REMARK    5  A    between atoms: O_7  and  C_8
REMARK    6  A    between atoms: N_19  and  C_20
REMARK    7  A    between atoms: C_20  and  C_21
REMARK    8  A    between atoms: C_20  and  C_27
REMARK                            x       y       z     vdW  Elec       q    Type
REMARK                         _______ _______ _______ _____ _____    ______ ____
ROOT
ATOM      1  C   UNL     1      -1.414  11.386  19.810  0.00  0.00    +0.000 C 
ENDROOT
BRANCH   1   2
ATOM      2  C   UNL     1      -0.312  10.308  19.787  0.00  0.00    +0.000 A 
ATOM      3  C   UNL     1       0.067   9.595  20.947  0.00  0.00    +0.000 A 
ATOM      4  C   UNL     1       1.034   8.588  20.909  0.00  0.00    +0.000 A 
ATOM      5  C   UNL     1       1.654   8.265  19.710  0.00  0.00    +0.000 A 
ATOM      6  C   UNL     1       1.391   9.034  18.580  0.00  0.00    +0.000 A 
ATOM      7  C   UNL     1       0.420  10.041  18.621  0.00  0.00    +0.000 A 
BRANCH   5   8
ATOM      8  O   UNL     1       2.557   7.233  19.759  0.00  0.00    +0.000 OA
BRANCH   8   9
ATOM      9  C   UNL     1       2.141   5.940  19.543  0.00  0.00    +0.000 A 
ATOM     10  C   UNL     1       2.286   5.483  18.232  0.00  0.00    +0.000 A 
ATOM     11  C   UNL     1       1.888   4.191  17.890  0.00  0.00    +0.000 A 
ATOM     12  C   UNL     1       1.346   3.351  18.862  0.00  0.00    +0.000 A 
ATOM     13  C   UNL     1       1.234   3.790  20.180  0.00  0.00    +0.000 A 
ATOM     14  C   UNL     1       1.657   5.074  20.528  0.00  0.00    +0.000 A 
ENDBRANCH   8   9
ENDBRANCH   5   8
ENDBRANCH   1   2
BRANCH   1  15
ATOM     15  C   UNL     1      -0.835  12.837  19.801  0.00  0.00    +0.000 C 
ATOM     16  C   UNL     1       0.550  13.101  20.421  0.00  0.00    +0.000 C 
ATOM     17  C   UNL     1      -0.028  14.368  21.026  0.00  0.00    +0.000 C 
ATOM     18  N   UNL     1      -1.398  13.940  20.666  0.00  0.00    +0.000 NA
BRANCH  18  19
ATOM     19  C   UNL     1      -2.179  13.595  21.891  0.00  0.00    +0.000 C 
BRANCH  19  20
ATOM     20  C   UNL     1      -2.021  14.698  22.972  0.00  0.00    +0.000 A 
ATOM     21  C   UNL     1      -1.386  14.452  24.205  0.00  0.00    +0.000 A 
ATOM     22  C   UNL     1      -1.338  15.418  25.208  0.00  0.00    +0.000 A 
ATOM     23  C   UNL     1      -1.941  16.662  25.005  0.00  0.00    +0.000 A 
ATOM     24  C   UNL     1      -2.568  16.930  23.799  0.00  0.00    +0.000 A 
ATOM     25  C   UNL     1      -2.605  15.966  22.780  0.00  0.00    +0.000 A 
ENDBRANCH  19  20
BRANCH  19  26
ATOM     26  C   UNL     1      -3.664  13.336  21.595  0.00  0.00    +0.000 A 
ATOM     27  C   UNL     1      -4.215  13.710  20.354  0.00  0.00    +0.000 A 
ATOM     28  C   UNL     1      -5.602  13.715  20.160  0.00  0.00    +0.000 A 
ATOM     29  C   UNL     1      -6.454  13.301  21.184  0.00  0.00    +0.000 A 
ATOM     30  C   UNL     1      -5.923  12.846  22.388  0.00  0.00    +0.000 A 
ATOM     31  C   UNL     1      -4.540  12.860  22.590  0.00  0.00    +0.000 A 
ENDBRANCH  19  26
ENDBRANCH  18  19
ENDBRANCH   1  15
BRANCH   1  32
ATOM     32  N   UNL     1      -2.283  11.225  18.650  0.00  0.00    +0.000 NA
ATOM     33  H   UNL     1      -1.927  11.727  17.845  0.00  0.00    +0.000 HD
ATOM     34  H   UNL     1      -3.234  11.515  18.851  0.00  0.00    +0.000 HD
ENDBRANCH   1  32
TORSDOF 8
ENDMDL
MODEL 8
REMARK VINA RESULT:      -7.5      1.577      2.378
REMARK  Name = 
REMARK  8 active torsions:
REMARK  status: ('A' for Active; 'I' for Inactive)
REMARK    1  A    between atoms: N_1  and  C_2
REMARK    2  A    between atoms: C_2  and  C_3
REMARK    3  A    between atoms: C_2  and  C_16
REMARK    4  A    between atoms: C_6  and  O_7
REMARK    5  A    between atoms: O_7  and  C_8
REMARK    6  A    between atoms: N_19  and  C_20
REMARK    7  A    between atoms: C_20  and  C_21
REMARK    8  A    between atoms: C_20  and  C_27
REMARK                            x       y       z     vdW  Elec       q    Type
REMARK                         _______ _______ _______ _____ _____    ______ ____
ROOT
ATOM      1  C   UNL     1       0.706  10.524  19.840  0.00  0.00    +0.000 C 
ENDROOT
BRANCH   1   2
ATOM      2  C   UNL     1       1.421   9.253  19.340  0.00  0.00    +0.000 A 
ATOM      3  C   UNL     1       1.719   8.171  20.198  0.00  0.00    +0.000 A 
ATOM      4  C   UNL     1       2.324   7.003  19.728  0.00  0.00    +0.000 A 
ATOM      5  C   UNL     1       2.654   6.884  18.386  0.00  0.00    +0.000 A 
ATOM      6  C   UNL     1       2.486   7.980  17.544  0.00  0.00    +0.000 A 
ATOM      7  C   UNL     1       1.876   9.147  18.018  0.00  0.00    +0.000 A 
BRANCH   5   8
ATOM      8  O   UNL     1       3.204   5.685  18.006  0.00  0.00    +0.000 OA
BRANCH   8   9
ATOM      9  C   UNL     1       2.758   4.512  18.567  0.00  0.00    +0.000 A 
ATOM     10  C   UNL     1       1.550   4.033  18.055  0.00  0.00    +0.000 A 
ATOM     11  C   UNL     1       0.993   2.856  18.554  0.00  0.00    +0.000 A 
ATOM     12  C   UNL     1       1.645   2.153  19.566  0.00  0.00    +0.000 A 
ATOM     13  C   UNL     1       2.869   2.607  20.054  0.00  0.00    +0.000 A 
ATOM     14  C   UNL     1       3.440   3.771  19.536  0.00  0.00    +0.000 A 
ENDBRANCH   8   9
ENDBRANCH   5   8
ENDBRANCH   1   2
BRANCH   1  15
ATOM     15  C   UNL     1       0.576  10.567  21.396  0.00  0.00    +0.000 C 
ATOM     16  C   UNL     1      -0.421   9.624  22.096  0.00  0.00    +0.000 C 
ATOM     17  C   UNL     1      -0.799  10.787  22.996  0.00  0.00    +0.000 C 
ATOM     18  N   UNL     1      -0.059  11.728  22.125  0.00  0.00    +0.000 NA
BRANCH  18  19
ATOM     19  C   UNL     1      -1.004  12.629  21.402  0.00  0.00    +0.000 C 
BRANCH  19  20
ATOM     20  C   UNL     1      -2.175  13.055  22.328  0.00  0.00    +0.000 A 
ATOM     21  C   UNL     1      -1.962  13.774  23.521  0.00  0.00    +0.000 A 
ATOM     22  C   UNL     1      -3.007  14.064  24.395  0.00  0.00    +0.000 A 
ATOM     23  C   UNL     1      -4.301  13.626  24.103  0.00  0.00    +0.000 A 
ATOM     24  C   UNL     1      -4.537  12.919  22.935  0.00  0.00    +0.000 A 
ATOM     25  C   UNL     1      -3.490  12.639  22.043  0.00  0.00    +0.000 A 
ENDBRANCH  19  20
BRANCH  19  26
ATOM     26  C   UNL     1      -0.310  13.863  20.805  0.00  0.00    +0.000 A 
ATOM     27  C   UNL     1       0.808  14.427  21.450  0.00  0.00    +0.000 A 
ATOM     28  C   UNL     1       1.294  15.684  21.066  0.00  0.00    +0.000 A 
ATOM     29  C   UNL     1       0.703  16.370  20.006  0.00  0.00    +0.000 A 
ATOM     30  C   UNL     1      -0.348  15.788  19.302  0.00  0.00    +0.000 A 
ATOM     31  C   UNL     1      -0.847  14.544  19.695  0.00  0.00    +0.000 A 
ENDBRANCH  19  26
ENDBRANCH  18  19
ENDBRANCH   1  15
BRANCH   1  32
ATOM     32  N   UNL     1       1.442  11.705  19.403  0.00  0.00    +0.000 NA
ATOM     33  H   UNL     1       1.886  11.557  18.504  0.00  0.00    +0.000 HD
ATOM     34  H   UNL     1       2.130  11.994  20.090  0.00  0.00    +0.000 HD
ENDBRANCH   1  32
TORSDOF 8
ENDMDL
MODEL 9
REMARK VINA RESULT:      -7.5      0.914      1.528
REMARK  Name = 
REMARK  8 active torsions:
REMARK  status: ('A' for Active; 'I' for Inactive)
REMARK    1  A    between atoms: N_1  and  C_2
REMARK    2  A    between atoms: C_2  and  C_3
REMARK    3  A    between atoms: C_2  and  C_16
REMARK    4  A    between atoms: C_6  and  O_7
REMARK    5  A    between atoms: O_7  and  C_8
REMARK    6  A    between atoms: N_19  and  C_20
REMARK    7  A    between atoms: C_20  and  C_21
REMARK    8  A    between atoms: C_20  and  C_27
REMARK                            x       y       z     vdW  Elec       q    Type
REMARK                         _______ _______ _______ _____ _____    ______ ____
ROOT
ATOM      1  C   UNL     1       0.649  10.550  19.944  0.00  0.00    +0.000 C 
ENDROOT
BRANCH   1   2
ATOM      2  C   UNL     1       1.373   9.305  19.396  0.00  0.00    +0.000 A 
ATOM      3  C   UNL     1       1.775   9.202  18.046  0.00  0.00    +0.000 A 
ATOM      4  C   UNL     1       2.472   8.090  17.567  0.00  0.00    +0.000 A 
ATOM      5  C   UNL     1       2.787   7.046  18.425  0.00  0.00    +0.000 A 
ATOM      6  C   UNL     1       2.295   7.064  19.728  0.00  0.00    +0.000 A 
ATOM      7  C   UNL     1       1.599   8.181  20.204  0.00  0.00    +0.000 A 
BRANCH   5   8
ATOM      8  O   UNL     1       3.511   6.016  17.879  0.00  0.00    +0.000 OA
BRANCH   8   9
ATOM      9  C   UNL     1       4.869   5.941  18.089  0.00  0.00    +0.000 A 
ATOM     10  C   UNL     1       5.655   6.537  17.102  0.00  0.00    +0.000 A 
ATOM     11  C   UNL     1       7.045   6.515  17.201  0.00  0.00    +0.000 A 
ATOM     12  C   UNL     1       7.653   5.897  18.292  0.00  0.00    +0.000 A 
ATOM     13  C   UNL     1       6.872   5.332  19.300  0.00  0.00    +0.000 A 
ATOM     14  C   UNL     1       5.480   5.378  19.213  0.00  0.00    +0.000 A 
ENDBRANCH   8   9
ENDBRANCH   5   8
ENDBRANCH   1   2
BRANCH   1  15
ATOM     15  C   UNL     1       0.496  10.521  21.498  0.00  0.00    +0.000 C 
ATOM     16  C   UNL     1      -0.488   9.525  22.141  0.00  0.00    +0.000 C 
ATOM     17  C   UNL     1      -0.906  10.638  23.085  0.00  0.00    +0.000 C 
ATOM     18  N   UNL     1      -0.177  11.634  22.268  0.00  0.00    +0.000 NA
BRANCH  18  19
ATOM     19  C   UNL     1      -1.134  12.543  21.571  0.00  0.00    +0.000 C 
BRANCH  19  20
ATOM     20  C   UNL     1      -2.325  12.902  22.499  0.00  0.00    +0.000 A 
ATOM     21  C   UNL     1      -3.653  12.556  22.180  0.00  0.00    +0.000 A 
ATOM     22  C   UNL     1      -4.725  12.970  22.968  0.00  0.00    +0.000 A 
ATOM     23  C   UNL     1      -4.495  13.760  24.098  0.00  0.00    +0.000 A 
ATOM     24  C   UNL     1      -3.197  14.111  24.434  0.00  0.00    +0.000 A 
ATOM     25  C   UNL     1      -2.113  13.682  23.652  0.00  0.00    +0.000 A 
ENDBRANCH  19  20
BRANCH  19  26
ATOM     26  C   UNL     1      -0.461  13.816  21.035  0.00  0.00    +0.000 A 
ATOM     27  C   UNL     1       0.612  14.399  21.738  0.00  0.00    +0.000 A 
ATOM     28  C   UNL     1       1.068  15.681  21.409  0.00  0.00    +0.000 A 
ATOM     29  C   UNL     1       0.493  16.378  20.346  0.00  0.00    +0.000 A 
ATOM     30  C   UNL     1      -0.510  15.783  19.587  0.00  0.00    +0.000 A 
ATOM     31  C   UNL     1      -0.980  14.511  19.926  0.00  0.00    +0.000 A 
ENDBRANCH  19  26
ENDBRANCH  18  19
ENDBRANCH   1  15
BRANCH   1  32
ATOM     32  N   UNL     1       1.387  11.752  19.572  0.00  0.00    +0.000 NA
ATOM     33  H   UNL     1       2.331  11.533  19.275  0.00  0.00    +0.000 HD
ATOM     34  H   UNL     1       1.407  12.428  20.327  0.00  0.00    +0.000 HD
ENDBRANCH   1  32
TORSDOF 8
ENDMDL
