MODEL 1
REMARK VINA RESULT:      -6.7      0.000      0.000
REMARK  Name = 
REMARK  11 active torsions:
REMARK  status: ('A' for Active; 'I' for Inactive)
REMARK    1  A    between atoms: C_1  and  C_2
REMARK    2  A    between atoms: C_2  and  C_3
REMARK    3  A    between atoms: C_2  and  C_4
REMARK    4  A    between atoms: C_4  and  C_5
REMARK    5  A    between atoms: C_5  and  C_6
REMARK    6  A    between atoms: C_6  and  O_7
REMARK    7  A    between atoms: C_11  and  O_12
REMARK    8  A    between atoms: C_21  and  C_22
REMARK    9  A    between atoms: C_23  and  O_24
REMARK   10  A    between atoms: C_23  and  C_25
REMARK   11  A    between atoms: C_25  and  O_27
REMARK                            x       y       z     vdW  Elec       q    Type
REMARK                         _______ _______ _______ _____ _____    ______ ____
ROOT
ATOM      1  C   UNL     1      -0.930  11.286  19.292  0.00  0.00    +0.000 C 
ATOM      2  C   UNL     1      -1.710  11.964  20.410  0.00  0.00    +0.000 A 
ATOM      3  C   UNL     1      -2.735  12.888  20.112  0.00  0.00    +0.000 A 
ATOM      4  C   UNL     1      -3.576  13.446  21.102  0.00  0.00    +0.000 A 
ATOM      5  C   UNL     1      -4.705  14.261  20.836  0.00  0.00    +0.000 A 
ATOM      6  C   UNL     1      -5.479  14.790  21.865  0.00  0.00    +0.000 A 
ATOM      7  C   UNL     1      -5.142  14.530  23.187  0.00  0.00    +0.000 A 
ATOM      8  C   UNL     1      -4.051  13.713  23.476  0.00  0.00    +0.000 A 
ATOM      9  C   UNL     1      -3.277  13.148  22.451  0.00  0.00    +0.000 A 
ATOM     10  C   UNL     1      -2.229  12.269  22.760  0.00  0.00    +0.000 A 
ATOM     11  C   UNL     1      -1.480  11.645  21.754  0.00  0.00    +0.000 A 
ATOM     12  C   UNL     1      -0.464  10.625  22.153  0.00  0.00    +0.000 C 
ATOM     13  O   UNL     1      -0.306  10.355  23.344  0.00  0.00    +0.000 OA
ATOM     14  C   UNL     1       0.262   9.864  21.050  0.00  0.00    +0.000 C 
ATOM     15  C   UNL     1       1.542   9.192  21.564  0.00  0.00    +0.000 C 
ATOM     16  C   UNL     1       0.462  10.773  19.826  0.00  0.00    +0.000 C 
ENDROOT
BRANCH   1  17
ATOM     17  O   UNL     1      -0.629  12.236  18.252  0.00  0.00    +0.000 OA
ATOM     18  H   UNL     1       0.088  12.822  18.538  0.00  0.00    +0.000 HD
ENDBRANCH   1  17
BRANCH   5  19
ATOM     19  O   UNL     1      -5.149  14.569  19.576  0.00  0.00    +0.000 OA
ATOM     20  H   UNL     1      -5.565  13.798  19.169  0.00  0.00    +0.000 HD
ENDBRANCH   5  19
BRANCH  16  21
ATOM     21  O   UNL     1       1.112  10.044  18.749  0.00  0.00    +0.000 OA
ATOM     22  H   UNL     1       0.878   9.101  18.825  0.00  0.00    +0.000 HD
ENDBRANCH  16  21
BRANCH  16  23
ATOM     23  C   UNL     1       1.386  11.973  20.168  0.00  0.00    +0.000 C 
ATOM     24  O   UNL     1       1.589  12.426  21.283  0.00  0.00    +0.000 OA
BRANCH  23  25
ATOM     25  O   UNL     1       2.019  12.466  19.071  0.00  0.00    +0.000 OA
ATOM     26  H   UNL     1       2.457  13.311  19.321  0.00  0.00    +0.000 HD
ENDBRANCH  23  25
ENDBRANCH  16  23
BRANCH   1  27
ATOM     27  C   UNL     1      -1.771  10.106  18.665  0.00  0.00    +0.000 C 
BRANCH  27  28
ATOM     28  C   UNL     1      -1.749  10.010  17.126  0.00  0.00    +0.000 C 
BRANCH  28  30
ATOM     29  C   UNL     1      -3.924  11.217  17.011  0.00  0.00    +0.000 C 
ATOM     30  C   UNL     1      -3.120  10.045  16.429  0.00  0.00    +0.000 C 
ATOM     31  C   UNL     1      -3.014  10.190  14.914  0.00  0.00    +0.000 C 
ENDBRANCH  28  30
ENDBRANCH  27  28
ENDBRANCH   1  27
TORSDOF 8
ENDMDL
MODEL 2
REMARK VINA RESULT:      -6.7      0.798      1.061
REMARK  Name = 
REMARK  11 active torsions:
REMARK  status: ('A' for Active; 'I' for Inactive)
REMARK    1  A    between atoms: C_1  and  C_2
REMARK    2  A    between atoms: C_2  and  C_3
REMARK    3  A    between atoms: C_2  and  C_4
REMARK    4  A    between atoms: C_4  and  C_5
REMARK    5  A    between atoms: C_5  and  C_6
REMARK    6  A    between atoms: C_6  and  O_7
REMARK    7  A    between atoms: C_11  and  O_12
REMARK    8  A    between atoms: C_21  and  C_22
REMARK    9  A    between atoms: C_23  and  O_24
REMARK   10  A    between atoms: C_23  and  C_25
REMARK   11  A    between atoms: C_25  and  O_27
REMARK                            x       y       z     vdW  Elec       q    Type
REMARK                         _______ _______ _______ _____ _____    ______ ____
ROOT
ATOM      1  C   UNL     1      -1.115  11.221  18.708  0.00  0.00    +0.000 C 
ATOM      2  C   UNL     1      -1.633  11.844  19.996  0.00  0.00    +0.000 A 
ATOM      3  C   UNL     1      -2.604  12.868  19.960  0.00  0.00    +0.000 A 
ATOM      4  C   UNL     1      -3.213  13.389  21.124  0.00  0.00    +0.000 A 
ATOM      5  C   UNL     1      -4.290  14.310  21.129  0.00  0.00    +0.000 A 
ATOM      6  C   UNL     1      -4.830  14.793  22.318  0.00  0.00    +0.000 A 
ATOM      7  C   UNL     1      -4.302  14.380  23.534  0.00  0.00    +0.000 A 
ATOM      8  C   UNL     1      -3.258  13.458  23.559  0.00  0.00    +0.000 A 
ATOM      9  C   UNL     1      -2.722  12.938  22.372  0.00  0.00    +0.000 A 
ATOM     10  C   UNL     1      -1.721  11.956  22.419  0.00  0.00    +0.000 A 
ATOM     11  C   UNL     1      -1.211  11.379  21.249  0.00  0.00    +0.000 A 
ATOM     12  C   UNL     1      -0.241  10.250  21.378  0.00  0.00    +0.000 C 
ATOM     13  O   UNL     1       0.088   9.854  22.496  0.00  0.00    +0.000 OA
ATOM     14  C   UNL     1       0.218   9.547  20.106  0.00  0.00    +0.000 C 
ATOM     15  C   UNL     1       1.498   8.733  20.331  0.00  0.00    +0.000 C 
ATOM     16  C   UNL     1       0.293  10.553  18.945  0.00  0.00    +0.000 C 
ENDROOT
BRANCH   1  17
ATOM     17  O   UNL     1      -0.906  12.242  17.714  0.00  0.00    +0.000 OA
ATOM     18  H   UNL     1      -1.699  12.335  17.165  0.00  0.00    +0.000 HD
ENDBRANCH   1  17
BRANCH   5  19
ATOM     19  O   UNL     1      -4.908  14.772  19.996  0.00  0.00    +0.000 OA
ATOM     20  H   UNL     1      -5.814  14.439  19.948  0.00  0.00    +0.000 HD
ENDBRANCH   5  19
BRANCH  16  21
ATOM     21  O   UNL     1       0.684   9.886  17.715  0.00  0.00    +0.000 OA
ATOM     22  H   UNL     1       0.810  10.559  17.021  0.00  0.00    +0.000 HD
ENDBRANCH  16  21
BRANCH  16  23
ATOM     23  C   UNL     1       1.368  11.641  19.219  0.00  0.00    +0.000 C 
ATOM     24  O   UNL     1       1.641  12.119  20.309  0.00  0.00    +0.000 OA
BRANCH  23  25
ATOM     25  O   UNL     1       2.044  11.993  18.095  0.00  0.00    +0.000 OA
ATOM     26  H   UNL     1       1.444  12.532  17.530  0.00  0.00    +0.000 HD
ENDBRANCH  23  25
ENDBRANCH  16  23
BRANCH   1  27
ATOM     27  C   UNL     1      -2.154  10.175  18.140  0.00  0.00    +0.000 C 
BRANCH  27  28
ATOM     28  C   UNL     1      -2.175  10.014  16.607  0.00  0.00    +0.000 C 
BRANCH  28  30
ATOM     29  C   UNL     1      -3.585  10.168  14.561  0.00  0.00    +0.000 C 
ATOM     30  C   UNL     1      -3.183  10.897  15.851  0.00  0.00    +0.000 C 
ATOM     31  C   UNL     1      -4.425  11.220  16.675  0.00  0.00    +0.000 C 
ENDBRANCH  28  30
ENDBRANCH  27  28
ENDBRANCH   1  27
TORSDOF 8
ENDMDL
MODEL 3
REMARK VINA RESULT:      -6.6      2.100      6.411
REMARK  Name = 
REMARK  11 active torsions:
REMARK  status: ('A' for Active; 'I' for Inactive)
REMARK    1  A    between atoms: C_1  and  C_2
REMARK    2  A    between atoms: C_2  and  C_3
REMARK    3  A    between atoms: C_2  and  C_4
REMARK    4  A    between atoms: C_4  and  C_5
REMARK    5  A    between atoms: C_5  and  C_6
REMARK    6  A    between atoms: C_6  and  O_7
REMARK    7  A    between atoms: C_11  and  O_12
REMARK    8  A    between atoms: C_21  and  C_22
REMARK    9  A    between atoms: C_23  and  O_24
REMARK   10  A    between atoms: C_23  and  C_25
REMARK   11  A    between atoms: C_25  and  O_27
REMARK                            x       y       z     vdW  Elec       q    Type
REMARK                         _______ _______ _______ _____ _____    ______ ____
ROOT
ATOM      1  C   UNL     1      -3.446  13.255  22.397  0.00  0.00    +0.000 C 
ATOM      2  C   UNL     1      -3.859  12.770  21.015  0.00  0.00    +0.000 A 
ATOM      3  C   UNL     1      -2.893  12.560  20.008  0.00  0.00    +0.000 A 
ATOM      4  C   UNL     1      -3.203  11.989  18.753  0.00  0.00    +0.000 A 
ATOM      5  C   UNL     1      -2.247  11.628  17.771  0.00  0.00    +0.000 A 
ATOM      6  C   UNL     1      -2.629  11.083  16.548  0.00  0.00    +0.000 A 
ATOM      7  C   UNL     1      -3.976  10.894  16.267  0.00  0.00    +0.000 A 
ATOM      8  C   UNL     1      -4.936  11.219  17.223  0.00  0.00    +0.000 A 
ATOM      9  C   UNL     1      -4.567  11.741  18.472  0.00  0.00    +0.000 A 
ATOM     10  C   UNL     1      -5.542  11.993  19.449  0.00  0.00    +0.000 A 
ATOM     11  C   UNL     1      -5.194  12.458  20.723  0.00  0.00    +0.000 A 
ATOM     12  C   UNL     1      -6.270  12.582  21.753  0.00  0.00    +0.000 C 
ATOM     13  O   UNL     1      -7.426  12.277  21.465  0.00  0.00    +0.000 OA
ATOM     14  C   UNL     1      -5.866  12.973  23.169  0.00  0.00    +0.000 C 
ATOM     15  C   UNL     1      -7.062  13.477  23.987  0.00  0.00    +0.000 C 
ATOM     16  C   UNL     1      -4.665  13.933  23.130  0.00  0.00    +0.000 C 
ENDROOT
BRANCH   1  17
ATOM     17  O   UNL     1      -2.436  14.275  22.282  0.00  0.00    +0.000 OA
ATOM     18  H   UNL     1      -1.566  13.866  22.160  0.00  0.00    +0.000 HD
ENDBRANCH   1  17
BRANCH   5  19
ATOM     19  O   UNL     1      -0.892  11.746  17.941  0.00  0.00    +0.000 OA
ATOM     20  H   UNL     1      -0.452  10.914  17.718  0.00  0.00    +0.000 HD
ENDBRANCH   5  19
BRANCH  16  21
ATOM     21  O   UNL     1      -4.241  14.277  24.478  0.00  0.00    +0.000 OA
ATOM     22  H   UNL     1      -4.088  13.454  24.976  0.00  0.00    +0.000 HD
ENDBRANCH  16  21
BRANCH  16  23
ATOM     23  C   UNL     1      -5.042  15.268  22.431  0.00  0.00    +0.000 C 
ATOM     24  O   UNL     1      -6.004  15.448  21.702  0.00  0.00    +0.000 OA
BRANCH  23  25
ATOM     25  O   UNL     1      -4.196  16.279  22.760  0.00  0.00    +0.000 OA
ATOM     26  H   UNL     1      -3.688  16.009  23.559  0.00  0.00    +0.000 HD
ENDBRANCH  23  25
ENDBRANCH  16  23
BRANCH   1  27
ATOM     27  C   UNL     1      -2.858  12.063  23.251  0.00  0.00    +0.000 C 
BRANCH  27  28
ATOM     28  C   UNL     1      -1.328  11.884  23.190  0.00  0.00    +0.000 C 
BRANCH  28  30
ATOM     29  C   UNL     1       0.191  11.142  21.362  0.00  0.00    +0.000 C 
ATOM     30  C   UNL     1      -0.824  10.659  22.407  0.00  0.00    +0.000 C 
ATOM     31  C   UNL     1      -0.185   9.602  23.303  0.00  0.00    +0.000 C 
ENDBRANCH  28  30
ENDBRANCH  27  28
ENDBRANCH   1  27
TORSDOF 8
ENDMDL
MODEL 4
REMARK VINA RESULT:      -6.6      7.004     10.391
REMARK  Name = 
REMARK  11 active torsions:
REMARK  status: ('A' for Active; 'I' for Inactive)
REMARK    1  A    between atoms: C_1  and  C_2
REMARK    2  A    between atoms: C_2  and  C_3
REMARK    3  A    between atoms: C_2  and  C_4
REMARK    4  A    between atoms: C_4  and  C_5
REMARK    5  A    between atoms: C_5  and  C_6
REMARK    6  A    between atoms: C_6  and  O_7
REMARK    7  A    between atoms: C_11  and  O_12
REMARK    8  A    between atoms: C_21  and  C_22
REMARK    9  A    between atoms: C_23  and  O_24
REMARK   10  A    between atoms: C_23  and  C_25
REMARK   11  A    between atoms: C_25  and  O_27
REMARK                            x       y       z     vdW  Elec       q    Type
REMARK                         _______ _______ _______ _____ _____    ______ ____
ROOT
ATOM      1  C   UNL     1       5.758   6.164  17.950  0.00  0.00    +0.000 C 
ATOM      2  C   UNL     1       4.710   5.069  18.092  0.00  0.00    +0.000 A 
ATOM      3  C   UNL     1       3.999   4.908  19.301  0.00  0.00    +0.000 A 
ATOM      4  C   UNL     1       2.929   3.996  19.446  0.00  0.00    +0.000 A 
ATOM      5  C   UNL     1       2.096   3.904  20.589  0.00  0.00    +0.000 A 
ATOM      6  C   UNL     1       1.068   2.968  20.667  0.00  0.00    +0.000 A 
ATOM      7  C   UNL     1       0.849   2.093  19.611  0.00  0.00    +0.000 A 
ATOM      8  C   UNL     1       1.638   2.178  18.466  0.00  0.00    +0.000 A 
ATOM      9  C   UNL     1       2.659   3.134  18.358  0.00  0.00    +0.000 A 
ATOM     10  C   UNL     1       3.394   3.253  17.169  0.00  0.00    +0.000 A 
ATOM     11  C   UNL     1       4.378   4.237  17.015  0.00  0.00    +0.000 A 
ATOM     12  C   UNL     1       5.030   4.388  15.680  0.00  0.00    +0.000 C 
ATOM     13  O   UNL     1       4.695   3.653  14.752  0.00  0.00    +0.000 OA
ATOM     14  C   UNL     1       6.011   5.537  15.485  0.00  0.00    +0.000 C 
ATOM     15  C   UNL     1       6.908   5.324  14.259  0.00  0.00    +0.000 C 
ATOM     16  C   UNL     1       6.771   5.811  16.795  0.00  0.00    +0.000 C 
ENDROOT
BRANCH   1  17
ATOM     17  O   UNL     1       6.546   6.254  19.153  0.00  0.00    +0.000 OA
ATOM     18  H   UNL     1       5.994   6.056  19.924  0.00  0.00    +0.000 HD
ENDBRANCH   1  17
BRANCH   5  19
ATOM     19  O   UNL     1       2.200   4.725  21.682  0.00  0.00    +0.000 OA
ATOM     20  H   UNL     1       1.569   5.454  21.614  0.00  0.00    +0.000 HD
ENDBRANCH   5  19
BRANCH  16  21
ATOM     21  O   UNL     1       7.677   6.936  16.635  0.00  0.00    +0.000 OA
ATOM     22  H   UNL     1       7.712   7.429  17.475  0.00  0.00    +0.000 HD
ENDBRANCH  16  21
BRANCH  16  23
ATOM     23  C   UNL     1       7.646   4.592  17.196  0.00  0.00    +0.000 C 
ATOM     24  O   UNL     1       8.187   4.425  18.277  0.00  0.00    +0.000 OA
BRANCH  23  25
ATOM     25  O   UNL     1       7.716   3.660  16.209  0.00  0.00    +0.000 OA
ATOM     26  H   UNL     1       7.056   3.893  15.518  0.00  0.00    +0.000 HD
ENDBRANCH  23  25
ENDBRANCH  16  23
BRANCH   1  27
ATOM     27  C   UNL     1       5.069   7.562  17.697  0.00  0.00    +0.000 C 
BRANCH  27  28
ATOM     28  C   UNL     1       3.550   7.525  17.437  0.00  0.00    +0.000 C 
BRANCH  28  30
ATOM     29  C   UNL     1       1.526   8.970  17.553  0.00  0.00    +0.000 C 
ATOM     30  C   UNL     1       2.685   8.386  18.373  0.00  0.00    +0.000 C 
ATOM     31  C   UNL     1       2.137   7.604  19.563  0.00  0.00    +0.000 C 
ENDBRANCH  28  30
ENDBRANCH  27  28
ENDBRANCH   1  27
TORSDOF 8
ENDMDL
MODEL 5
REMARK VINA RESULT:      -6.4      2.669      6.539
REMARK  Name = 
REMARK  11 active torsions:
REMARK  status: ('A' for Active; 'I' for Inactive)
REMARK    1  A    between atoms: C_1  and  C_2
REMARK    2  A    between atoms: C_2  and  C_3
REMARK    3  A    between atoms: C_2  and  C_4
REMARK    4  A    between atoms: C_4  and  C_5
REMARK    5  A    between atoms: C_5  and  C_6
REMARK    6  A    between atoms: C_6  and  O_7
REMARK    7  A    between atoms: C_11  and  O_12
REMARK    8  A    between atoms: C_21  and  C_22
REMARK    9  A    between atoms: C_23  and  O_24
REMARK   10  A    between atoms: C_23  and  C_25
REMARK   11  A    between atoms: C_25  and  O_27
REMARK                            x       y       z     vdW  Elec       q    Type
REMARK                         _______ _______ _______ _____ _____    ______ ____
ROOT
ATOM      1  C   UNL     1       0.535  12.342  19.401  0.00  0.00    +0.000 C 
ATOM      2  C   UNL     1       0.767  10.876  19.742  0.00  0.00    +0.000 A 
ATOM      3  C   UNL     1       1.371  10.007  18.808  0.00  0.00    +0.000 A 
ATOM      4  C   UNL     1       1.727   8.675  19.118  0.00  0.00    +0.000 A 
ATOM      5  C   UNL     1       2.462   7.816  18.263  0.00  0.00    +0.000 A 
ATOM      6  C   UNL     1       2.765   6.508  18.630  0.00  0.00    +0.000 A 
ATOM      7  C   UNL     1       2.332   6.017  19.856  0.00  0.00    +0.000 A 
ATOM      8  C   UNL     1       1.628   6.847  20.725  0.00  0.00    +0.000 A 
ATOM      9  C   UNL     1       1.340   8.177  20.384  0.00  0.00    +0.000 A 
ATOM     10  C   UNL     1       0.696   9.019  21.302  0.00  0.00    +0.000 A 
ATOM     11  C   UNL     1       0.450  10.366  21.008  0.00  0.00    +0.000 A 
ATOM     12  C   UNL     1      -0.125  11.235  22.080  0.00  0.00    +0.000 C 
ATOM     13  O   UNL     1      -0.368  10.755  23.187  0.00  0.00    +0.000 OA
ATOM     14  C   UNL     1      -0.277  12.723  21.794  0.00  0.00    +0.000 C 
ATOM     15  C   UNL     1      -1.248  13.399  22.770  0.00  0.00    +0.000 C 
ATOM     16  C   UNL     1      -0.604  12.945  20.308  0.00  0.00    +0.000 C 
ENDROOT
BRANCH   1  17
ATOM     17  O   UNL     1       0.067  12.464  18.044  0.00  0.00    +0.000 OA
ATOM     18  H   UNL     1       0.103  13.392  17.765  0.00  0.00    +0.000 HD
ENDBRANCH   1  17
BRANCH   5  19
ATOM     19  O   UNL     1       2.960   8.192  17.042  0.00  0.00    +0.000 OA
ATOM     20  H   UNL     1       2.369   8.830  16.621  0.00  0.00    +0.000 HD
ENDBRANCH   5  19
BRANCH  16  21
ATOM     21  O   UNL     1      -0.706  14.364  20.012  0.00  0.00    +0.000 OA
ATOM     22  H   UNL     1      -0.019  14.837  20.515  0.00  0.00    +0.000 HD
ENDBRANCH  16  21
BRANCH  16  23
ATOM     23  C   UNL     1      -1.977  12.317  19.941  0.00  0.00    +0.000 C 
ATOM     24  O   UNL     1      -2.150  11.327  19.247  0.00  0.00    +0.000 OA
BRANCH  23  25
ATOM     25  O   UNL     1      -3.015  12.967  20.529  0.00  0.00    +0.000 OA
ATOM     26  H   UNL     1      -3.771  12.342  20.598  0.00  0.00    +0.000 HD
ENDBRANCH  23  25
ENDBRANCH  16  23
BRANCH   1  27
ATOM     27  C   UNL     1       1.875  13.164  19.545  0.00  0.00    +0.000 C 
BRANCH  27  28
ATOM     28  C   UNL     1       2.678  13.373  18.245  0.00  0.00    +0.000 C 
BRANCH  28  30
ATOM     29  C   UNL     1       2.387  15.744  18.946  0.00  0.00    +0.000 C 
ATOM     30  C   UNL     1       3.057  14.827  17.914  0.00  0.00    +0.000 C 
ATOM     31  C   UNL     1       4.564  15.062  17.910  0.00  0.00    +0.000 C 
ENDBRANCH  28  30
ENDBRANCH  27  28
ENDBRANCH   1  27
TORSDOF 8
ENDMDL
MODEL 6
REMARK VINA RESULT:      -6.3      2.341      6.098
REMARK  Name = 
REMARK  11 active torsions:
REMARK  status: ('A' for Active; 'I' for Inactive)
REMARK    1  A    between atoms: C_1  and  C_2
REMARK    2  A    between atoms: C_2  and  C_3
REMARK    3  A    between atoms: C_2  and  C_4
REMARK    4  A    between atoms: C_4  and  C_5
REMARK    5  A    between atoms: C_5  and  C_6
REMARK    6  A    between atoms: C_6  and  O_7
REMARK    7  A    between atoms: C_11  and  O_12
REMARK    8  A    between atoms: C_21  and  C_22
REMARK    9  A    between atoms: C_23  and  O_24
REMARK   10  A    between atoms: C_23  and  C_25
REMARK   11  A    between atoms: C_25  and  O_27
REMARK                            x       y       z     vdW  Elec       q    Type
REMARK                         _______ _______ _______ _____ _____    ______ ____
ROOT
ATOM      1  C   UNL     1      -1.053  13.163  19.714  0.00  0.00    +0.000 C 
ATOM      2  C   UNL     1      -0.538  11.761  20.005  0.00  0.00    +0.000 A 
ATOM      3  C   UNL     1       0.254  11.076  19.058  0.00  0.00    +0.000 A 
ATOM      4  C   UNL     1       0.865   9.830  19.327  0.00  0.00    +0.000 A 
ATOM      5  C   UNL     1       1.782   9.178  18.465  0.00  0.00    +0.000 A 
ATOM      6  C   UNL     1       2.334   7.941  18.790  0.00  0.00    +0.000 A 
ATOM      7  C   UNL     1       1.977   7.317  19.978  0.00  0.00    +0.000 A 
ATOM      8  C   UNL     1       1.095   7.946  20.854  0.00  0.00    +0.000 A 
ATOM      9  C   UNL     1       0.553   9.206  20.556  0.00  0.00    +0.000 A 
ATOM     10  C   UNL     1      -0.274   9.856  21.484  0.00  0.00    +0.000 A 
ATOM     11  C   UNL     1      -0.779  11.138  21.236  0.00  0.00    +0.000 A 
ATOM     12  C   UNL     1      -1.547  11.822  22.321  0.00  0.00    +0.000 C 
ATOM     13  O   UNL     1      -1.718  11.252  23.398  0.00  0.00    +0.000 OA
ATOM     14  C   UNL     1      -1.990  13.261  22.090  0.00  0.00    +0.000 C 
ATOM     15  C   UNL     1      -3.104  13.681  23.057  0.00  0.00    +0.000 C 
ATOM     16  C   UNL     1      -2.315  13.481  20.603  0.00  0.00    +0.000 C 
ENDROOT
BRANCH   1  17
ATOM     17  O   UNL     1      -1.499  13.253  18.347  0.00  0.00    +0.000 OA
ATOM     18  H   UNL     1      -2.249  12.656  18.205  0.00  0.00    +0.000 HD
ENDBRANCH   1  17
BRANCH   5  19
ATOM     19  O   UNL     1       2.227   9.703  17.279  0.00  0.00    +0.000 OA
ATOM     20  H   UNL     1       1.649   9.430  16.554  0.00  0.00    +0.000 HD
ENDBRANCH   5  19
BRANCH  16  21
ATOM     21  O   UNL     1      -2.695  14.864  20.361  0.00  0.00    +0.000 OA
ATOM     22  H   UNL     1      -1.898  15.368  20.116  0.00  0.00    +0.000 HD
ENDBRANCH  16  21
BRANCH  16  23
ATOM     23  C   UNL     1      -3.522  12.608  20.162  0.00  0.00    +0.000 C 
ATOM     24  O   UNL     1      -3.509  11.762  19.282  0.00  0.00    +0.000 OA
BRANCH  23  25
ATOM     25  O   UNL     1      -4.631  12.844  20.911  0.00  0.00    +0.000 OA
ATOM     26  H   UNL     1      -4.768  13.818  20.959  0.00  0.00    +0.000 HD
ENDBRANCH  23  25
ENDBRANCH  16  23
BRANCH   1  27
ATOM     27  C   UNL     1       0.087  14.232  19.940  0.00  0.00    +0.000 C 
BRANCH  27  28
ATOM     28  C   UNL     1       1.014  14.490  18.735  0.00  0.00    +0.000 C 
BRANCH  28  30
ATOM     29  C   UNL     1       2.683  13.662  20.386  0.00  0.00    +0.000 C 
ATOM     30  C   UNL     1       2.498  14.138  18.938  0.00  0.00    +0.000 C 
ATOM     31  C   UNL     1       2.993  13.067  17.972  0.00  0.00    +0.000 C 
ENDBRANCH  28  30
ENDBRANCH  27  28
ENDBRANCH   1  27
TORSDOF 8
ENDMDL
MODEL 7
REMARK VINA RESULT:      -6.2      6.668     10.527
REMARK  Name = 
REMARK  11 active torsions:
REMARK  status: ('A' for Active; 'I' for Inactive)
REMARK    1  A    between atoms: C_1  and  C_2
REMARK    2  A    between atoms: C_2  and  C_3
REMARK    3  A    between atoms: C_2  and  C_4
REMARK    4  A    between atoms: C_4  and  C_5
REMARK    5  A    between atoms: C_5  and  C_6
REMARK    6  A    between atoms: C_6  and  O_7
REMARK    7  A    between atoms: C_11  and  O_12
REMARK    8  A    between atoms: C_21  and  C_22
REMARK    9  A    between atoms: C_23  and  O_24
REMARK   10  A    between atoms: C_23  and  C_25
REMARK   11  A    between atoms: C_25  and  O_27
REMARK                            x       y       z     vdW  Elec       q    Type
REMARK                         _______ _______ _______ _____ _____    ______ ____
ROOT
ATOM      1  C   UNL     1       1.942   4.754  18.952  0.00  0.00    +0.000 C 
ATOM      2  C   UNL     1       3.354   4.592  18.405  0.00  0.00    +0.000 A 
ATOM      3  C   UNL     1       3.772   5.316  17.268  0.00  0.00    +0.000 A 
ATOM      4  C   UNL     1       5.105   5.302  16.797  0.00  0.00    +0.000 A 
ATOM      5  C   UNL     1       5.600   6.122  15.753  0.00  0.00    +0.000 A 
ATOM      6  C   UNL     1       6.925   6.042  15.331  0.00  0.00    +0.000 A 
ATOM      7  C   UNL     1       7.788   5.135  15.932  0.00  0.00    +0.000 A 
ATOM      8  C   UNL     1       7.333   4.333  16.976  0.00  0.00    +0.000 A 
ATOM      9  C   UNL     1       6.010   4.421  17.434  0.00  0.00    +0.000 A 
ATOM     10  C   UNL     1       5.590   3.660  18.535  0.00  0.00    +0.000 A 
ATOM     11  C   UNL     1       4.292   3.773  19.048  0.00  0.00    +0.000 A 
ATOM     12  C   UNL     1       3.954   3.028  20.298  0.00  0.00    +0.000 C 
ATOM     13  O   UNL     1       4.812   2.337  20.847  0.00  0.00    +0.000 OA
ATOM     14  C   UNL     1       2.580   3.250  20.917  0.00  0.00    +0.000 C 
ATOM     15  C   UNL     1       2.210   2.138  21.907  0.00  0.00    +0.000 C 
ATOM     16  C   UNL     1       1.537   3.498  19.814  0.00  0.00    +0.000 C 
ENDROOT
BRANCH   1  17
ATOM     17  O   UNL     1       0.996   4.812  17.867  0.00  0.00    +0.000 OA
ATOM     18  H   UNL     1       0.256   4.211  18.043  0.00  0.00    +0.000 HD
ENDBRANCH   1  17
BRANCH   5  19
ATOM     19  O   UNL     1       4.853   7.068  15.100  0.00  0.00    +0.000 OA
ATOM     20  H   UNL     1       5.319   7.914  15.089  0.00  0.00    +0.000 HD
ENDBRANCH   5  19
BRANCH  16  21
ATOM     21  O   UNL     1       0.230   3.758  20.394  0.00  0.00    +0.000 OA
ATOM     22  H   UNL     1       0.134   4.718  20.529  0.00  0.00    +0.000 HD
ENDBRANCH  16  21
BRANCH  16  23
ATOM     23  C   UNL     1       1.378   2.248  18.906  0.00  0.00    +0.000 C 
ATOM     24  O   UNL     1       2.248   1.428  18.658  0.00  0.00    +0.000 OA
BRANCH  23  25
ATOM     25  O   UNL     1       0.112   2.112  18.433  0.00  0.00    +0.000 OA
ATOM     26  H   UNL     1      -0.429   2.857  18.781  0.00  0.00    +0.000 HD
ENDBRANCH  23  25
ENDBRANCH  16  23
BRANCH   1  27
ATOM     27  C   UNL     1       1.823   6.086  19.792  0.00  0.00    +0.000 C 
BRANCH  27  28
ATOM     28  C   UNL     1       2.465   7.338  19.162  0.00  0.00    +0.000 C 
BRANCH  28  30
ATOM     29  C   UNL     1       1.132   9.218  20.104  0.00  0.00    +0.000 C 
ATOM     30  C   UNL     1       1.501   8.483  18.807  0.00  0.00    +0.000 C 
ATOM     31  C   UNL     1       2.090   9.467  17.802  0.00  0.00    +0.000 C 
ENDBRANCH  28  30
ENDBRANCH  27  28
ENDBRANCH   1  27
TORSDOF 8
ENDMDL
MODEL 8
REMARK VINA RESULT:      -6.2      1.203      1.596
REMARK  Name = 
REMARK  11 active torsions:
REMARK  status: ('A' for Active; 'I' for Inactive)
REMARK    1  A    between atoms: C_1  and  C_2
REMARK    2  A    between atoms: C_2  and  C_3
REMARK    3  A    between atoms: C_2  and  C_4
REMARK    4  A    between atoms: C_4  and  C_5
REMARK    5  A    between atoms: C_5  and  C_6
REMARK    6  A    between atoms: C_6  and  O_7
REMARK    7  A    between atoms: C_11  and  O_12
REMARK    8  A    between atoms: C_21  and  C_22
REMARK    9  A    between atoms: C_23  and  O_24
REMARK   10  A    between atoms: C_23  and  C_25
REMARK   11  A    between atoms: C_25  and  O_27
REMARK                            x       y       z     vdW  Elec       q    Type
REMARK                         _______ _______ _______ _____ _____    ______ ____
ROOT
ATOM      1  C   UNL     1      -1.623  11.598  18.940  0.00  0.00    +0.000 C 
ATOM      2  C   UNL     1      -1.949  12.207  20.297  0.00  0.00    +0.000 A 
ATOM      3  C   UNL     1      -2.914  13.231  20.412  0.00  0.00    +0.000 A 
ATOM      4  C   UNL     1      -3.348  13.740  21.657  0.00  0.00    +0.000 A 
ATOM      5  C   UNL     1      -4.413  14.660  21.826  0.00  0.00    +0.000 A 
ATOM      6  C   UNL     1      -4.776  15.130  23.086  0.00  0.00    +0.000 A 
ATOM      7  C   UNL     1      -4.079  14.704  24.209  0.00  0.00    +0.000 A 
ATOM      8  C   UNL     1      -3.043  13.782  24.073  0.00  0.00    +0.000 A 
ATOM      9  C   UNL     1      -2.684  13.275  22.816  0.00  0.00    +0.000 A 
ATOM     10  C   UNL     1      -1.688  12.292  22.708  0.00  0.00    +0.000 A 
ATOM     11  C   UNL     1      -1.352  11.728  21.470  0.00  0.00    +0.000 A 
ATOM     12  C   UNL     1      -0.375  10.598  21.447  0.00  0.00    +0.000 C 
ATOM     13  O   UNL     1       0.110  10.190  22.501  0.00  0.00    +0.000 OA
ATOM     14  C   UNL     1      -0.106   9.910  20.114  0.00  0.00    +0.000 C 
ATOM     15  C   UNL     1       1.193   9.093  20.143  0.00  0.00    +0.000 C 
ATOM     16  C   UNL     1      -0.196  10.929  18.966  0.00  0.00    +0.000 C 
ENDROOT
BRANCH   1  17
ATOM     17  O   UNL     1      -1.558  12.631  17.938  0.00  0.00    +0.000 OA
ATOM     18  H   UNL     1      -1.360  13.483  18.355  0.00  0.00    +0.000 HD
ENDBRANCH   1  17
BRANCH   5  19
ATOM     19  O   UNL     1      -5.186  15.135  20.799  0.00  0.00    +0.000 OA
ATOM     20  H   UNL     1      -4.683  15.761  20.261  0.00  0.00    +0.000 HD
ENDBRANCH   5  19
BRANCH  16  21
ATOM     21  O   UNL     1       0.013  10.275  17.684  0.00  0.00    +0.000 OA
ATOM     22  H   UNL     1       0.498  10.885  17.099  0.00  0.00    +0.000 HD
ENDBRANCH  16  21
BRANCH  16  23
ATOM     23  C   UNL     1       0.908  12.013  19.094  0.00  0.00    +0.000 C 
ATOM     24  O   UNL     1       1.473  12.341  20.126  0.00  0.00    +0.000 OA
BRANCH  23  25
ATOM     25  O   UNL     1       1.243  12.554  17.893  0.00  0.00    +0.000 OA
ATOM     26  H   UNL     1       2.222  12.519  17.802  0.00  0.00    +0.000 HD
ENDBRANCH  23  25
ENDBRANCH  16  23
BRANCH   1  27
ATOM     27  C   UNL     1      -2.734  10.559  18.517  0.00  0.00    +0.000 C 
BRANCH  27  28
ATOM     28  C   UNL     1      -3.786  11.072  17.513  0.00  0.00    +0.000 C 
BRANCH  28  30
ATOM     29  C   UNL     1      -5.767  12.515  17.074  0.00  0.00    +0.000 C 
ATOM     30  C   UNL     1      -5.085  11.625  18.123  0.00  0.00    +0.000 C 
ATOM     31  C   UNL     1      -6.044  10.527  18.576  0.00  0.00    +0.000 C 
ENDBRANCH  28  30
ENDBRANCH  27  28
ENDBRANCH   1  27
TORSDOF 8
ENDMDL
MODEL 9
REMARK VINA RESULT:      -6.1      7.790     10.731
REMARK  Name = 
REMARK  11 active torsions:
REMARK  status: ('A' for Active; 'I' for Inactive)
REMARK    1  A    between atoms: C_1  and  C_2
REMARK    2  A    between atoms: C_2  and  C_3
REMARK    3  A    between atoms: C_2  and  C_4
REMARK    4  A    between atoms: C_4  and  C_5
REMARK    5  A    between atoms: C_5  and  C_6
REMARK    6  A    between atoms: C_6  and  O_7
REMARK    7  A    between atoms: C_11  and  O_12
REMARK    8  A    between atoms: C_21  and  C_22
REMARK    9  A    between atoms: C_23  and  O_24
REMARK   10  A    between atoms: C_23  and  C_25
REMARK   11  A    between atoms: C_25  and  O_27
REMARK                            x       y       z     vdW  Elec       q    Type
REMARK                         _______ _______ _______ _____ _____    ______ ____
ROOT
ATOM      1  C   UNL     1       8.424  14.793  18.983  0.00  0.00    +0.000 C 
ATOM      2  C   UNL     1       8.396  13.937  20.241  0.00  0.00    +0.000 A 
ATOM      3  C   UNL     1       7.501  14.233  21.292  0.00  0.00    +0.000 A 
ATOM      4  C   UNL     1       7.342  13.398  22.422  0.00  0.00    +0.000 A 
ATOM      5  C   UNL     1       6.358  13.578  23.426  0.00  0.00    +0.000 A 
ATOM      6  C   UNL     1       6.271  12.723  24.522  0.00  0.00    +0.000 A 
ATOM      7  C   UNL     1       7.170  11.671  24.650  0.00  0.00    +0.000 A 
ATOM      8  C   UNL     1       8.132  11.458  23.666  0.00  0.00    +0.000 A 
ATOM      9  C   UNL     1       8.215  12.292  22.541  0.00  0.00    +0.000 A 
ATOM     10  C   UNL     1       9.142  12.017  21.524  0.00  0.00    +0.000 A 
ATOM     11  C   UNL     1       9.205  12.800  20.364  0.00  0.00    +0.000 A 
ATOM     12  C   UNL     1      10.128  12.374  19.268  0.00  0.00    +0.000 C 
ATOM     13  O   UNL     1      10.806  11.356  19.405  0.00  0.00    +0.000 OA
ATOM     14  C   UNL     1      10.103  13.159  17.963  0.00  0.00    +0.000 C 
ATOM     15  C   UNL     1      11.358  12.906  17.118  0.00  0.00    +0.000 C 
ATOM     16  C   UNL     1       9.808  14.642  18.244  0.00  0.00    +0.000 C 
ENDROOT
BRANCH   1  17
ATOM     17  O   UNL     1       8.311  16.187  19.331  0.00  0.00    +0.000 OA
ATOM     18  H   UNL     1       7.831  16.663  18.636  0.00  0.00    +0.000 HD
ENDBRANCH   1  17
BRANCH   5  19
ATOM     19  O   UNL     1       5.405  14.563  23.399  0.00  0.00    +0.000 OA
ATOM     20  H   UNL     1       5.481  15.125  24.181  0.00  0.00    +0.000 HD
ENDBRANCH   5  19
BRANCH  16  21
ATOM     21  O   UNL     1       9.736  15.394  17.002  0.00  0.00    +0.000 OA
ATOM     22  H   UNL     1      10.551  15.233  16.493  0.00  0.00    +0.000 HD
ENDBRANCH  16  21
BRANCH  16  23
ATOM     23  C   UNL     1      10.943  15.286  19.086  0.00  0.00    +0.000 C 
ATOM     24  O   UNL     1      11.772  14.684  19.749  0.00  0.00    +0.000 OA
BRANCH  23  25
ATOM     25  O   UNL     1      10.965  16.640  18.971  0.00  0.00    +0.000 OA
ATOM     26  H   UNL     1      10.536  16.885  18.120  0.00  0.00    +0.000 HD
ENDBRANCH  23  25
ENDBRANCH  16  23
BRANCH   1  27
ATOM     27  C   UNL     1       7.223  14.417  18.028  0.00  0.00    +0.000 C 
BRANCH  27  28
ATOM     28  C   UNL     1       6.043  15.409  18.010  0.00  0.00    +0.000 C 
BRANCH  28  30
ATOM     29  C   UNL     1       4.303  14.843  19.699  0.00  0.00    +0.000 C 
ATOM     30  C   UNL     1       4.645  14.797  18.203  0.00  0.00    +0.000 C 
ATOM     31  C   UNL     1       3.565  15.515  17.400  0.00  0.00    +0.000 C 
ENDBRANCH  28  30
ENDBRANCH  27  28
ENDBRANCH   1  27
TORSDOF 8
ENDMDL
