MODEL 1
REMARK VINA RESULT:      -6.3      0.000      0.000
REMARK  Name = 
REMARK  8 active torsions:
REMARK  status: ('A' for Active; 'I' for Inactive)
REMARK    1  A    between atoms: C_1  and  C_2
REMARK    2  A    between atoms: C_3  and  C_4
REMARK    3  A    between atoms: C_3  and  N_10
REMARK    4  A    between atoms: N_10  and  C_11
REMARK    5  A    between atoms: C_11  and  C_12
REMARK    6  A    between atoms: C_12  and  O_13
REMARK    7  A    between atoms: O_13  and  C_14
REMARK    8  A    between atoms: C_15  and  C_17
REMARK                            x       y       z     vdW  Elec       q    Type
REMARK                         _______ _______ _______ _____ _____    ______ ____
ROOT
ATOM      1  C   UNL     1       5.828   3.780  15.387  0.00  0.00    +0.000 C 
ATOM      2  C   UNL     1       4.728   3.914  16.397  0.00  0.00    +0.000 C 
ATOM      3  C   UNL     1       4.746   4.709  17.486  0.00  0.00    +0.000 C 
ENDROOT
BRANCH   3   4
ATOM      4  C   UNL     1       5.935   5.564  17.738  0.00  0.00    +0.000 A 
ATOM      5  C   UNL     1       6.887   5.232  18.712  0.00  0.00    +0.000 A 
ATOM      6  C   UNL     1       7.946   6.097  19.006  0.00  0.00    +0.000 A 
ATOM      7  C   UNL     1       8.048   7.320  18.351  0.00  0.00    +0.000 A 
ATOM      8  C   UNL     1       7.101   7.673  17.392  0.00  0.00    +0.000 A 
ATOM      9  C   UNL     1       6.052   6.799  17.084  0.00  0.00    +0.000 A 
ENDBRANCH   3   4
BRANCH   3  10
ATOM     10  N   UNL     1       3.651   4.780  18.353  0.00  0.00    +0.000 N 
ATOM     11  C   UNL     1       3.551   3.851  19.428  0.00  0.00    +0.000 C 
ATOM     12  O   UNL     1       4.441   3.045  19.705  0.00  0.00    +0.000 OA
BRANCH  11  13
ATOM     13  C   UNL     1       2.296   3.971  20.295  0.00  0.00    +0.000 C 
ATOM     14 CL   UNL     1       0.968   2.946  19.707  0.00  0.00    +0.000 Cl
ENDBRANCH  11  13
BRANCH  10  15
ATOM     15  C   UNL     1       2.576   5.774  18.148  0.00  0.00    +0.000 C 
BRANCH  15  16
ATOM     16  C   UNL     1       2.695   7.222  18.638  0.00  0.00    +0.000 C 
BRANCH  16  17
ATOM     17  O   UNL     1       2.751   8.149  17.558  0.00  0.00    +0.000 OA
ATOM     18  C   UNL     1       1.954   9.296  17.836  0.00  0.00    +0.000 C 
ENDBRANCH  16  17
ENDBRANCH  15  16
ENDBRANCH  10  15
ENDBRANCH   3  10
TORSDOF 6
ENDMDL
MODEL 2
REMARK VINA RESULT:      -6.2      0.278      1.169
REMARK  Name = 
REMARK  8 active torsions:
REMARK  status: ('A' for Active; 'I' for Inactive)
REMARK    1  A    between atoms: C_1  and  C_2
REMARK    2  A    between atoms: C_3  and  C_4
REMARK    3  A    between atoms: C_3  and  N_10
REMARK    4  A    between atoms: N_10  and  C_11
REMARK    5  A    between atoms: C_11  and  C_12
REMARK    6  A    between atoms: C_12  and  O_13
REMARK    7  A    between atoms: O_13  and  C_14
REMARK    8  A    between atoms: C_15  and  C_17
REMARK                            x       y       z     vdW  Elec       q    Type
REMARK                         _______ _______ _______ _____ _____    ______ ____
ROOT
ATOM      1  C   UNL     1       5.983   4.070  15.406  0.00  0.00    +0.000 C 
ATOM      2  C   UNL     1       4.888   4.021  16.429  0.00  0.00    +0.000 C 
ATOM      3  C   UNL     1       4.830   4.750  17.562  0.00  0.00    +0.000 C 
ENDROOT
BRANCH   3   4
ATOM      4  C   UNL     1       5.916   5.720  17.855  0.00  0.00    +0.000 A 
ATOM      5  C   UNL     1       6.041   6.922  17.145  0.00  0.00    +0.000 A 
ATOM      6  C   UNL     1       7.126   7.777  17.365  0.00  0.00    +0.000 A 
ATOM      7  C   UNL     1       8.117   7.424  18.276  0.00  0.00    +0.000 A 
ATOM      8  C   UNL     1       8.017   6.225  18.977  0.00  0.00    +0.000 A 
ATOM      9  C   UNL     1       6.921   5.379  18.772  0.00  0.00    +0.000 A 
ENDBRANCH   3   4
BRANCH   3  10
ATOM     10  N   UNL     1       3.745   4.645  18.439  0.00  0.00    +0.000 N 
ATOM     11  C   UNL     1       3.764   3.649  19.456  0.00  0.00    +0.000 C 
ATOM     12  O   UNL     1       4.743   2.934  19.679  0.00  0.00    +0.000 OA
BRANCH  11  13
ATOM     13  C   UNL     1       2.516   3.576  20.337  0.00  0.00    +0.000 C 
ATOM     14 CL   UNL     1       1.299   2.451  19.693  0.00  0.00    +0.000 Cl
ENDBRANCH  11  13
BRANCH  10  15
ATOM     15  C   UNL     1       2.563   5.522  18.301  0.00  0.00    +0.000 C 
BRANCH  15  16
ATOM     16  C   UNL     1       2.577   6.992  18.738  0.00  0.00    +0.000 C 
BRANCH  16  17
ATOM     17  O   UNL     1       2.653   7.880  17.627  0.00  0.00    +0.000 OA
ATOM     18  C   UNL     1       2.100   9.150  17.958  0.00  0.00    +0.000 C 
ENDBRANCH  16  17
ENDBRANCH  15  16
ENDBRANCH  10  15
ENDBRANCH   3  10
TORSDOF 6
ENDMDL
MODEL 3
REMARK VINA RESULT:      -6.0      1.035      1.069
REMARK  Name = 
REMARK  8 active torsions:
REMARK  status: ('A' for Active; 'I' for Inactive)
REMARK    1  A    between atoms: C_1  and  C_2
REMARK    2  A    between atoms: C_3  and  C_4
REMARK    3  A    between atoms: C_3  and  N_10
REMARK    4  A    between atoms: N_10  and  C_11
REMARK    5  A    between atoms: C_11  and  C_12
REMARK    6  A    between atoms: C_12  and  O_13
REMARK    7  A    between atoms: O_13  and  C_14
REMARK    8  A    between atoms: C_15  and  C_17
REMARK                            x       y       z     vdW  Elec       q    Type
REMARK                         _______ _______ _______ _____ _____    ______ ____
ROOT
ATOM      1  C   UNL     1       5.935   3.942  15.117  0.00  0.00    +0.000 C 
ATOM      2  C   UNL     1       4.801   3.986  16.097  0.00  0.00    +0.000 C 
ATOM      3  C   UNL     1       4.782   4.675  17.256  0.00  0.00    +0.000 C 
ENDROOT
BRANCH   3   4
ATOM      4  C   UNL     1       5.963   5.497  17.628  0.00  0.00    +0.000 A 
ATOM      5  C   UNL     1       6.855   5.091  18.630  0.00  0.00    +0.000 A 
ATOM      6  C   UNL     1       7.904   5.921  19.037  0.00  0.00    +0.000 A 
ATOM      7  C   UNL     1       8.054   7.182  18.469  0.00  0.00    +0.000 A 
ATOM      8  C   UNL     1       7.166   7.608  17.484  0.00  0.00    +0.000 A 
ATOM      9  C   UNL     1       6.128   6.769  17.062  0.00  0.00    +0.000 A 
ENDBRANCH   3   4
BRANCH   3  10
ATOM     10  N   UNL     1       3.657   4.669  18.088  0.00  0.00    +0.000 N 
ATOM     11  C   UNL     1       3.515   3.639  19.060  0.00  0.00    +0.000 C 
ATOM     12  O   UNL     1       4.390   2.801  19.286  0.00  0.00    +0.000 OA
BRANCH  11  13
ATOM     13  C   UNL     1       2.231   3.683  19.891  0.00  0.00    +0.000 C 
ATOM     14 CL   UNL     1       2.482   3.101  21.552  0.00  0.00    +0.000 Cl
ENDBRANCH  11  13
BRANCH  10  15
ATOM     15  C   UNL     1       2.596   5.689  17.946  0.00  0.00    +0.000 C 
BRANCH  15  16
ATOM     16  C   UNL     1       2.750   7.113  18.493  0.00  0.00    +0.000 C 
BRANCH  16  17
ATOM     17  O   UNL     1       2.534   7.172  19.900  0.00  0.00    +0.000 OA
ATOM     18  C   UNL     1       1.568   8.168  20.221  0.00  0.00    +0.000 C 
ENDBRANCH  16  17
ENDBRANCH  15  16
ENDBRANCH  10  15
ENDBRANCH   3  10
TORSDOF 6
ENDMDL
MODEL 4
REMARK VINA RESULT:      -6.0      1.880      3.764
REMARK  Name = 
REMARK  8 active torsions:
REMARK  status: ('A' for Active; 'I' for Inactive)
REMARK    1  A    between atoms: C_1  and  C_2
REMARK    2  A    between atoms: C_3  and  C_4
REMARK    3  A    between atoms: C_3  and  N_10
REMARK    4  A    between atoms: N_10  and  C_11
REMARK    5  A    between atoms: C_11  and  C_12
REMARK    6  A    between atoms: C_12  and  O_13
REMARK    7  A    between atoms: O_13  and  C_14
REMARK    8  A    between atoms: C_15  and  C_17
REMARK                            x       y       z     vdW  Elec       q    Type
REMARK                         _______ _______ _______ _____ _____    ______ ____
ROOT
ATOM      1  C   UNL     1       2.851   8.415  17.779  0.00  0.00    +0.000 C 
ATOM      2  C   UNL     1       2.173   7.133  18.158  0.00  0.00    +0.000 C 
ATOM      3  C   UNL     1       2.768   5.929  18.281  0.00  0.00    +0.000 C 
ENDROOT
BRANCH   3   4
ATOM      4  C   UNL     1       4.232   5.819  18.051  0.00  0.00    +0.000 A 
ATOM      5  C   UNL     1       4.773   5.779  16.758  0.00  0.00    +0.000 A 
ATOM      6  C   UNL     1       6.142   5.575  16.558  0.00  0.00    +0.000 A 
ATOM      7  C   UNL     1       6.982   5.376  17.648  0.00  0.00    +0.000 A 
ATOM      8  C   UNL     1       6.458   5.395  18.939  0.00  0.00    +0.000 A 
ATOM      9  C   UNL     1       5.092   5.620  19.140  0.00  0.00    +0.000 A 
ENDBRANCH   3   4
BRANCH   3  10
ATOM     10  N   UNL     1       2.044   4.796  18.668  0.00  0.00    +0.000 N 
ATOM     11  C   UNL     1       1.650   4.651  20.028  0.00  0.00    +0.000 C 
ATOM     12  O   UNL     1       1.820   5.530  20.875  0.00  0.00    +0.000 OA
BRANCH  11  13
ATOM     13  C   UNL     1       0.904   3.359  20.369  0.00  0.00    +0.000 C 
ATOM     14 CL   UNL     1       1.559   2.564  21.818  0.00  0.00    +0.000 Cl
ENDBRANCH  11  13
BRANCH  10  15
ATOM     15  C   UNL     1       1.718   3.730  17.697  0.00  0.00    +0.000 C 
BRANCH  15  16
ATOM     16  C   UNL     1       2.461   2.389  17.672  0.00  0.00    +0.000 C 
BRANCH  16  17
ATOM     17  O   UNL     1       3.844   2.539  17.980  0.00  0.00    +0.000 OA
ATOM     18  C   UNL     1       4.143   1.965  19.249  0.00  0.00    +0.000 C 
ENDBRANCH  16  17
ENDBRANCH  15  16
ENDBRANCH  10  15
ENDBRANCH   3  10
TORSDOF 6
ENDMDL
MODEL 5
REMARK VINA RESULT:      -6.0      3.149      5.381
REMARK  Name = 
REMARK  8 active torsions:
REMARK  status: ('A' for Active; 'I' for Inactive)
REMARK    1  A    between atoms: C_1  and  C_2
REMARK    2  A    between atoms: C_3  and  C_4
REMARK    3  A    between atoms: C_3  and  N_10
REMARK    4  A    between atoms: N_10  and  C_11
REMARK    5  A    between atoms: C_11  and  C_12
REMARK    6  A    between atoms: C_12  and  O_13
REMARK    7  A    between atoms: O_13  and  C_14
REMARK    8  A    between atoms: C_15  and  C_17
REMARK                            x       y       z     vdW  Elec       q    Type
REMARK                         _______ _______ _______ _____ _____    ______ ____
ROOT
ATOM      1  C   UNL     1       2.816   7.051  18.079  0.00  0.00    +0.000 C 
ATOM      2  C   UNL     1       4.140   6.722  17.457  0.00  0.00    +0.000 C 
ATOM      3  C   UNL     1       4.713   5.502  17.414  0.00  0.00    +0.000 C 
ENDROOT
BRANCH   3   4
ATOM      4  C   UNL     1       3.993   4.343  18.004  0.00  0.00    +0.000 A 
ATOM      5  C   UNL     1       4.300   3.860  19.283  0.00  0.00    +0.000 A 
ATOM      6  C   UNL     1       3.684   2.708  19.783  0.00  0.00    +0.000 A 
ATOM      7  C   UNL     1       2.776   2.008  18.996  0.00  0.00    +0.000 A 
ATOM      8  C   UNL     1       2.472   2.465  17.716  0.00  0.00    +0.000 A 
ATOM      9  C   UNL     1       3.073   3.629  17.223  0.00  0.00    +0.000 A 
ENDBRANCH   3   4
BRANCH   3  10
ATOM     10  N   UNL     1       5.945   5.299  16.783  0.00  0.00    +0.000 N 
ATOM     11  C   UNL     1       5.973   4.950  15.403  0.00  0.00    +0.000 C 
ATOM     12  O   UNL     1       4.964   4.920  14.696  0.00  0.00    +0.000 OA
BRANCH  11  13
ATOM     13  C   UNL     1       7.361   4.701  14.809  0.00  0.00    +0.000 C 
ATOM     14 CL   UNL     1       7.434   5.090  13.076  0.00  0.00    +0.000 Cl
ENDBRANCH  11  13
BRANCH  10  15
ATOM     15  C   UNL     1       7.215   5.401  17.534  0.00  0.00    +0.000 C 
BRANCH  15  16
ATOM     16  C   UNL     1       7.700   6.719  18.147  0.00  0.00    +0.000 C 
BRANCH  16  17
ATOM     17  O   UNL     1       7.699   7.783  17.199  0.00  0.00    +0.000 OA
ATOM     18  C   UNL     1       7.995   9.023  17.832  0.00  0.00    +0.000 C 
ENDBRANCH  16  17
ENDBRANCH  15  16
ENDBRANCH  10  15
ENDBRANCH   3  10
TORSDOF 6
ENDMDL
MODEL 6
REMARK VINA RESULT:      -6.0      2.713      4.982
REMARK  Name = 
REMARK  8 active torsions:
REMARK  status: ('A' for Active; 'I' for Inactive)
REMARK    1  A    between atoms: C_1  and  C_2
REMARK    2  A    between atoms: C_3  and  C_4
REMARK    3  A    between atoms: C_3  and  N_10
REMARK    4  A    between atoms: N_10  and  C_11
REMARK    5  A    between atoms: C_11  and  C_12
REMARK    6  A    between atoms: C_12  and  O_13
REMARK    7  A    between atoms: O_13  and  C_14
REMARK    8  A    between atoms: C_15  and  C_17
REMARK                            x       y       z     vdW  Elec       q    Type
REMARK                         _______ _______ _______ _____ _____    ______ ____
ROOT
ATOM      1  C   UNL     1       1.417   3.902  17.859  0.00  0.00    +0.000 C 
ATOM      2  C   UNL     1       2.868   4.168  17.590  0.00  0.00    +0.000 C 
ATOM      3  C   UNL     1       3.518   5.324  17.832  0.00  0.00    +0.000 C 
ENDROOT
BRANCH   3   4
ATOM      4  C   UNL     1       2.776   6.459  18.438  0.00  0.00    +0.000 A 
ATOM      5  C   UNL     1       2.483   7.621  17.710  0.00  0.00    +0.000 A 
ATOM      6  C   UNL     1       1.872   8.719  18.324  0.00  0.00    +0.000 A 
ATOM      7  C   UNL     1       1.576   8.680  19.682  0.00  0.00    +0.000 A 
ATOM      8  C   UNL     1       1.875   7.540  20.425  0.00  0.00    +0.000 A 
ATOM      9  C   UNL     1       2.468   6.434  19.806  0.00  0.00    +0.000 A 
ENDBRANCH   3   4
BRANCH   3  10
ATOM     10  N   UNL     1       4.886   5.458  17.567  0.00  0.00    +0.000 N 
ATOM     11  C   UNL     1       5.826   4.794  18.404  0.00  0.00    +0.000 C 
ATOM     12  O   UNL     1       5.497   4.010  19.297  0.00  0.00    +0.000 OA
BRANCH  11  13
ATOM     13  C   UNL     1       7.299   5.035  18.069  0.00  0.00    +0.000 C 
ATOM     14 CL   UNL     1       7.958   6.459  18.907  0.00  0.00    +0.000 Cl
ENDBRANCH  11  13
BRANCH  10  15
ATOM     15  C   UNL     1       5.370   6.309  16.459  0.00  0.00    +0.000 C 
BRANCH  15  16
ATOM     16  C   UNL     1       5.520   5.783  15.027  0.00  0.00    +0.000 C 
BRANCH  16  17
ATOM     17  O   UNL     1       5.396   4.365  14.962  0.00  0.00    +0.000 OA
ATOM     18  C   UNL     1       6.205   3.836  13.917  0.00  0.00    +0.000 C 
ENDBRANCH  16  17
ENDBRANCH  15  16
ENDBRANCH  10  15
ENDBRANCH   3  10
TORSDOF 6
ENDMDL
MODEL 7
REMARK VINA RESULT:      -5.9      2.061      3.684
REMARK  Name = 
REMARK  8 active torsions:
REMARK  status: ('A' for Active; 'I' for Inactive)
REMARK    1  A    between atoms: C_1  and  C_2
REMARK    2  A    between atoms: C_3  and  C_4
REMARK    3  A    between atoms: C_3  and  N_10
REMARK    4  A    between atoms: N_10  and  C_11
REMARK    5  A    between atoms: C_11  and  C_12
REMARK    6  A    between atoms: C_12  and  O_13
REMARK    7  A    between atoms: O_13  and  C_14
REMARK    8  A    between atoms: C_15  and  C_17
REMARK                            x       y       z     vdW  Elec       q    Type
REMARK                         _______ _______ _______ _____ _____    ______ ____
ROOT
ATOM      1  C   UNL     1       2.781   8.221  17.974  0.00  0.00    +0.000 C 
ATOM      2  C   UNL     1       2.417   6.779  18.158  0.00  0.00    +0.000 C 
ATOM      3  C   UNL     1       3.283   5.753  18.278  0.00  0.00    +0.000 C 
ENDROOT
BRANCH   3   4
ATOM      4  C   UNL     1       4.743   6.031  18.253  0.00  0.00    +0.000 A 
ATOM      5  C   UNL     1       5.343   6.718  17.189  0.00  0.00    +0.000 A 
ATOM      6  C   UNL     1       6.730   6.884  17.132  0.00  0.00    +0.000 A 
ATOM      7  C   UNL     1       7.538   6.338  18.125  0.00  0.00    +0.000 A 
ATOM      8  C   UNL     1       6.958   5.639  19.181  0.00  0.00    +0.000 A 
ATOM      9  C   UNL     1       5.569   5.489  19.249  0.00  0.00    +0.000 A 
ENDBRANCH   3   4
BRANCH   3  10
ATOM     10  N   UNL     1       2.836   4.442  18.474  0.00  0.00    +0.000 N 
ATOM     11  C   UNL     1       3.108   3.457  17.482  0.00  0.00    +0.000 C 
ATOM     12  O   UNL     1       3.818   3.671  16.498  0.00  0.00    +0.000 OA
BRANCH  11  13
ATOM     13  C   UNL     1       2.539   2.064  17.757  0.00  0.00    +0.000 C 
ATOM     14 CL   UNL     1       3.710   1.005  18.576  0.00  0.00    +0.000 Cl
ENDBRANCH  11  13
BRANCH  10  15
ATOM     15  C   UNL     1       2.050   4.072  19.670  0.00  0.00    +0.000 C 
BRANCH  15  16
ATOM     16  C   UNL     1       2.363   4.634  21.062  0.00  0.00    +0.000 C 
BRANCH  16  17
ATOM     17  O   UNL     1       2.207   3.653  22.083  0.00  0.00    +0.000 OA
ATOM     18  C   UNL     1       1.623   2.466  21.556  0.00  0.00    +0.000 C 
ENDBRANCH  16  17
ENDBRANCH  15  16
ENDBRANCH  10  15
ENDBRANCH   3  10
TORSDOF 6
ENDMDL
MODEL 8
REMARK VINA RESULT:      -5.9      3.131      5.482
REMARK  Name = 
REMARK  8 active torsions:
REMARK  status: ('A' for Active; 'I' for Inactive)
REMARK    1  A    between atoms: C_1  and  C_2
REMARK    2  A    between atoms: C_3  and  C_4
REMARK    3  A    between atoms: C_3  and  N_10
REMARK    4  A    between atoms: N_10  and  C_11
REMARK    5  A    between atoms: C_11  and  C_12
REMARK    6  A    between atoms: C_12  and  O_13
REMARK    7  A    between atoms: O_13  and  C_14
REMARK    8  A    between atoms: C_15  and  C_17
REMARK                            x       y       z     vdW  Elec       q    Type
REMARK                         _______ _______ _______ _____ _____    ______ ____
ROOT
ATOM      1  C   UNL     1       2.848   7.085  18.106  0.00  0.00    +0.000 C 
ATOM      2  C   UNL     1       4.171   6.733  17.494  0.00  0.00    +0.000 C 
ATOM      3  C   UNL     1       4.713   5.499  17.437  0.00  0.00    +0.000 C 
ENDROOT
BRANCH   3   4
ATOM      4  C   UNL     1       3.957   4.350  17.998  0.00  0.00    +0.000 A 
ATOM      5  C   UNL     1       2.993   3.664  17.246  0.00  0.00    +0.000 A 
ATOM      6  C   UNL     1       2.221   2.650  17.821  0.00  0.00    +0.000 A 
ATOM      7  C   UNL     1       2.382   2.330  19.165  0.00  0.00    +0.000 A 
ATOM      8  C   UNL     1       3.325   3.012  19.931  0.00  0.00    +0.000 A 
ATOM      9  C   UNL     1       4.111   4.014  19.351  0.00  0.00    +0.000 A 
ENDBRANCH   3   4
BRANCH   3  10
ATOM     10  N   UNL     1       5.947   5.276  16.818  0.00  0.00    +0.000 N 
ATOM     11  C   UNL     1       5.983   4.937  15.435  0.00  0.00    +0.000 C 
ATOM     12  O   UNL     1       4.981   4.933  14.717  0.00  0.00    +0.000 OA
BRANCH  11  13
ATOM     13  C   UNL     1       7.371   4.663  14.854  0.00  0.00    +0.000 C 
ATOM     14 CL   UNL     1       7.497   5.149  13.148  0.00  0.00    +0.000 Cl
ENDBRANCH  11  13
BRANCH  10  15
ATOM     15  C   UNL     1       7.211   5.346  17.583  0.00  0.00    +0.000 C 
BRANCH  15  16
ATOM     16  C   UNL     1       7.754   6.663  18.148  0.00  0.00    +0.000 C 
BRANCH  16  17
ATOM     17  O   UNL     1       7.697   7.719  17.194  0.00  0.00    +0.000 OA
ATOM     18  C   UNL     1       8.010   8.967  17.803  0.00  0.00    +0.000 C 
ENDBRANCH  16  17
ENDBRANCH  15  16
ENDBRANCH  10  15
ENDBRANCH   3  10
TORSDOF 6
ENDMDL
MODEL 9
REMARK VINA RESULT:      -5.9      1.251      2.533
REMARK  Name = 
REMARK  8 active torsions:
REMARK  status: ('A' for Active; 'I' for Inactive)
REMARK    1  A    between atoms: C_1  and  C_2
REMARK    2  A    between atoms: C_3  and  C_4
REMARK    3  A    between atoms: C_3  and  N_10
REMARK    4  A    between atoms: N_10  and  C_11
REMARK    5  A    between atoms: C_11  and  C_12
REMARK    6  A    between atoms: C_12  and  O_13
REMARK    7  A    between atoms: O_13  and  C_14
REMARK    8  A    between atoms: C_15  and  C_17
REMARK                            x       y       z     vdW  Elec       q    Type
REMARK                         _______ _______ _______ _____ _____    ______ ____
ROOT
ATOM      1  C   UNL     1       7.023   5.515  19.129  0.00  0.00    +0.000 C 
ATOM      2  C   UNL     1       5.593   5.169  19.420  0.00  0.00    +0.000 C 
ATOM      3  C   UNL     1       4.652   4.860  18.504  0.00  0.00    +0.000 C 
ENDROOT
BRANCH   3   4
ATOM      4  C   UNL     1       5.025   4.825  17.067  0.00  0.00    +0.000 A 
ATOM      5  C   UNL     1       5.513   3.659  16.461  0.00  0.00    +0.000 A 
ATOM      6  C   UNL     1       5.952   3.669  15.133  0.00  0.00    +0.000 A 
ATOM      7  C   UNL     1       5.938   4.854  14.405  0.00  0.00    +0.000 A 
ATOM      8  C   UNL     1       5.472   6.025  14.997  0.00  0.00    +0.000 A 
ATOM      9  C   UNL     1       5.013   6.011  16.319  0.00  0.00    +0.000 A 
ENDBRANCH   3   4
BRANCH   3  10
ATOM     10  N   UNL     1       3.349   4.525  18.887  0.00  0.00    +0.000 N 
ATOM     11  C   UNL     1       3.047   3.177  19.230  0.00  0.00    +0.000 C 
ATOM     12  O   UNL     1       3.904   2.296  19.314  0.00  0.00    +0.000 OA
BRANCH  11  13
ATOM     13  C   UNL     1       1.587   2.894  19.588  0.00  0.00    +0.000 C 
ATOM     14 CL   UNL     1       1.317   2.861  21.345  0.00  0.00    +0.000 Cl
ENDBRANCH  11  13
BRANCH  10  15
ATOM     15  C   UNL     1       2.272   5.539  18.900  0.00  0.00    +0.000 C 
BRANCH  15  16
ATOM     16  C   UNL     1       2.540   7.015  19.216  0.00  0.00    +0.000 C 
BRANCH  16  17
ATOM     17  O   UNL     1       2.608   7.810  18.036  0.00  0.00    +0.000 OA
ATOM     18  C   UNL     1       1.716   8.917  18.121  0.00  0.00    +0.000 C 
ENDBRANCH  16  17
ENDBRANCH  15  16
ENDBRANCH  10  15
ENDBRANCH   3  10
TORSDOF 6
ENDMDL
