MODEL 1
REMARK VINA RESULT:      -8.7      0.000      0.000
REMARK  Name = 
REMARK  10 active torsions:
REMARK  status: ('A' for Active; 'I' for Inactive)
REMARK    1  A    between atoms: C_1  and  N_2
REMARK    2  A    between atoms: N_2  and  C_3
REMARK    3  A    between atoms: C_3  and  C_4
REMARK    4  A    between atoms: C_4  and  C_5
REMARK    5  A    between atoms: C_10  and  O_11
REMARK    6  A    between atoms: O_11  and  C_12
REMARK    7  A    between atoms: C_20  and  C_21
REMARK    8  A    between atoms: N_23  and  C_24
REMARK    9  A    between atoms: C_24  and  C_25
REMARK   10  A    between atoms: C_29  and  N_30
REMARK                            x       y       z     vdW  Elec       q    Type
REMARK                         _______ _______ _______ _____ _____    ______ ____
ROOT
ATOM      1  C   UNL     1       3.373   8.821  17.714  0.00  0.00    +0.000 C 
ATOM      2  N   UNL     1       2.713   7.683  18.335  0.00  0.00    +0.000 N 
ATOM      3  C   UNL     1       3.242   6.441  18.027  0.00  0.00    +0.000 A 
ATOM      4  N   UNL     1       4.150   6.382  17.056  0.00  0.00    +0.000 NA
ATOM      5  C   UNL     1       4.659   5.173  16.776  0.00  0.00    +0.000 A 
ATOM      6  C   UNL     1       4.285   4.012  17.407  0.00  0.00    +0.000 A 
ATOM      7  C   UNL     1       3.326   4.134  18.386  0.00  0.00    +0.000 A 
ATOM      8  N   UNL     1       2.830   5.350  18.691  0.00  0.00    +0.000 NA
ENDROOT
BRANCH   7   9
ATOM      9  N   UNL     1       2.901   3.041  19.121  0.00  0.00    +0.000 N 
ATOM     10  C   UNL     1       1.550   2.475  18.993  0.00  0.00    +0.000 C 
ATOM     11  C   UNL     1       0.728   2.731  20.267  0.00  0.00    +0.000 C 
ATOM     12  O   UNL     1       1.405   2.256  21.441  0.00  0.00    +0.000 OA
ATOM     13  C   UNL     1       2.664   2.938  21.591  0.00  0.00    +0.000 C 
ATOM     14  C   UNL     1       3.581   2.696  20.385  0.00  0.00    +0.000 C 
ENDBRANCH   7   9
BRANCH   5  15
ATOM     15  C   UNL     1       5.720   5.167  15.718  0.00  0.00    +0.000 C 
ATOM     16  O   UNL     1       6.728   5.856  15.815  0.00  0.00    +0.000 OA
ATOM     17  N   UNL     1       5.446   4.342  14.647  0.00  0.00    +0.000 N 
ATOM     18  H   UNL     1       4.543   3.878  14.661  0.00  0.00    +0.000 HD
BRANCH  17  19
ATOM     19  C   UNL     1       6.284   4.279  13.481  0.00  0.00    +0.000 C 
BRANCH  19  20
ATOM     20  C   UNL     1       6.099   2.957  12.797  0.00  0.00    +0.000 C 
ATOM     21  C   UNL     1       5.281   2.845  11.534  0.00  0.00    +0.000 C 
ATOM     22  C   UNL     1       6.773   2.680  11.476  0.00  0.00    +0.000 C 
ENDBRANCH  19  20
ENDBRANCH  17  19
ENDBRANCH   5  15
BRANCH   2  23
ATOM     23  C   UNL     1       1.855   7.812  19.522  0.00  0.00    +0.000 C 
BRANCH  23  24
ATOM     24  C   UNL     1       1.077   9.130  19.484  0.00  0.00    +0.000 C 
BRANCH  24  25
ATOM     25  C   UNL     1       0.398   9.716  20.701  0.00  0.00    +0.000 A 
ATOM     26  C   UNL     1       0.683   9.018  21.899  0.00  0.00    +0.000 A 
ATOM     27  C   UNL     1       0.080   9.354  23.107  0.00  0.00    +0.000 A 
ATOM     28  C   UNL     1      -0.795  10.428  23.152  0.00  0.00    +0.000 A 
ATOM     29  C   UNL     1      -1.053  11.162  21.995  0.00  0.00    +0.000 A 
ATOM     30  C   UNL     1      -0.498  10.794  20.755  0.00  0.00    +0.000 A 
BRANCH  30  31
ATOM     31  O   UNL     1      -0.778  11.508  19.608  0.00  0.00    +0.000 OA
BRANCH  31  32
ATOM     32  C   UNL     1      -1.972  11.284  18.948  0.00  0.00    +0.000 A 
ATOM     33  C   UNL     1      -2.017  10.208  18.054  0.00  0.00    +0.000 A 
ATOM     34  C   UNL     1      -3.207   9.904  17.382  0.00  0.00    +0.000 A 
ATOM     35  C   UNL     1      -4.350  10.671  17.604  0.00  0.00    +0.000 A 
ATOM     36  C   UNL     1      -4.310  11.737  18.499  0.00  0.00    +0.000 A 
ATOM     37  C   UNL     1      -3.128  12.032  19.185  0.00  0.00    +0.000 A 
ENDBRANCH  31  32
ENDBRANCH  30  31
ENDBRANCH  24  25
ENDBRANCH  23  24
ENDBRANCH   2  23
TORSDOF 9
ENDMDL
MODEL 2
REMARK VINA RESULT:      -8.6      0.950      1.182
REMARK  Name = 
REMARK  10 active torsions:
REMARK  status: ('A' for Active; 'I' for Inactive)
REMARK    1  A    between atoms: C_1  and  N_2
REMARK    2  A    between atoms: N_2  and  C_3
REMARK    3  A    between atoms: C_3  and  C_4
REMARK    4  A    between atoms: C_4  and  C_5
REMARK    5  A    between atoms: C_10  and  O_11
REMARK    6  A    between atoms: O_11  and  C_12
REMARK    7  A    between atoms: C_20  and  C_21
REMARK    8  A    between atoms: N_23  and  C_24
REMARK    9  A    between atoms: C_24  and  C_25
REMARK   10  A    between atoms: C_29  and  N_30
REMARK                            x       y       z     vdW  Elec       q    Type
REMARK                         _______ _______ _______ _____ _____    ______ ____
ROOT
ATOM      1  C   UNL     1       2.552   9.288  17.868  0.00  0.00    +0.000 C 
ATOM      2  N   UNL     1       1.975   8.106  18.488  0.00  0.00    +0.000 N 
ATOM      3  C   UNL     1       2.621   6.911  18.220  0.00  0.00    +0.000 A 
ATOM      4  N   UNL     1       3.562   6.918  17.278  0.00  0.00    +0.000 NA
ATOM      5  C   UNL     1       4.185   5.755  17.037  0.00  0.00    +0.000 A 
ATOM      6  C   UNL     1       3.893   4.574  17.677  0.00  0.00    +0.000 A 
ATOM      7  C   UNL     1       2.896   4.626  18.623  0.00  0.00    +0.000 A 
ATOM      8  N   UNL     1       2.285   5.798  18.889  0.00  0.00    +0.000 NA
ENDROOT
BRANCH   7   9
ATOM      9  N   UNL     1       2.544   3.512  19.363  0.00  0.00    +0.000 N 
ATOM     10  C   UNL     1       1.499   3.542  20.397  0.00  0.00    +0.000 C 
ATOM     11  C   UNL     1       2.112   3.376  21.797  0.00  0.00    +0.000 C 
ATOM     12  O   UNL     1       2.926   2.197  21.885  0.00  0.00    +0.000 OA
ATOM     13  C   UNL     1       4.011   2.279  20.943  0.00  0.00    +0.000 C 
ATOM     14  C   UNL     1       3.496   2.392  19.502  0.00  0.00    +0.000 C 
ENDBRANCH   7   9
BRANCH   5  15
ATOM     15  C   UNL     1       5.276   5.827  16.013  0.00  0.00    +0.000 C 
ATOM     16  O   UNL     1       5.572   6.880  15.463  0.00  0.00    +0.000 OA
ATOM     17  N   UNL     1       5.886   4.618  15.750  0.00  0.00    +0.000 N 
ATOM     18  H   UNL     1       5.498   3.810  16.227  0.00  0.00    +0.000 HD
BRANCH  17  19
ATOM     19  C   UNL     1       6.878   4.456  14.723  0.00  0.00    +0.000 C 
BRANCH  19  20
ATOM     20  C   UNL     1       6.215   4.437  13.378  0.00  0.00    +0.000 C 
ATOM     21  C   UNL     1       7.018   4.212  12.120  0.00  0.00    +0.000 C 
ATOM     22  C   UNL     1       6.083   3.144  12.611  0.00  0.00    +0.000 C 
ENDBRANCH  19  20
ENDBRANCH  17  19
ENDBRANCH   5  15
BRANCH   2  23
ATOM     23  C   UNL     1       1.070   8.176  19.645  0.00  0.00    +0.000 C 
BRANCH  23  24
ATOM     24  C   UNL     1       1.394   9.398  20.509  0.00  0.00    +0.000 C 
BRANCH  24  25
ATOM     25  C   UNL     1       0.335  10.179  21.252  0.00  0.00    +0.000 A 
ATOM     26  C   UNL     1       0.211   9.813  22.613  0.00  0.00    +0.000 A 
ATOM     27  C   UNL     1      -0.770  10.358  23.435  0.00  0.00    +0.000 A 
ATOM     28  C   UNL     1      -1.627  11.318  22.922  0.00  0.00    +0.000 A 
ATOM     29  C   UNL     1      -1.493  11.733  21.597  0.00  0.00    +0.000 A 
ATOM     30  C   UNL     1      -0.546  11.144  20.739  0.00  0.00    +0.000 A 
BRANCH  30  31
ATOM     31  O   UNL     1      -0.435  11.539  19.421  0.00  0.00    +0.000 OA
BRANCH  31  32
ATOM     32  C   UNL     1      -1.444  11.218  18.533  0.00  0.00    +0.000 A 
ATOM     33  C   UNL     1      -1.201  10.168  17.640  0.00  0.00    +0.000 A 
ATOM     34  C   UNL     1      -2.195   9.767  16.741  0.00  0.00    +0.000 A 
ATOM     35  C   UNL     1      -3.432  10.412  16.733  0.00  0.00    +0.000 A 
ATOM     36  C   UNL     1      -3.679  11.452  17.626  0.00  0.00    +0.000 A 
ATOM     37  C   UNL     1      -2.694  11.842  18.538  0.00  0.00    +0.000 A 
ENDBRANCH  31  32
ENDBRANCH  30  31
ENDBRANCH  24  25
ENDBRANCH  23  24
ENDBRANCH   2  23
TORSDOF 9
ENDMDL
MODEL 3
REMARK VINA RESULT:      -8.6      3.305     10.667
REMARK  Name = 
REMARK  10 active torsions:
REMARK  status: ('A' for Active; 'I' for Inactive)
REMARK    1  A    between atoms: C_1  and  N_2
REMARK    2  A    between atoms: N_2  and  C_3
REMARK    3  A    between atoms: C_3  and  C_4
REMARK    4  A    between atoms: C_4  and  C_5
REMARK    5  A    between atoms: C_10  and  O_11
REMARK    6  A    between atoms: O_11  and  C_12
REMARK    7  A    between atoms: C_20  and  C_21
REMARK    8  A    between atoms: N_23  and  C_24
REMARK    9  A    between atoms: C_24  and  C_25
REMARK   10  A    between atoms: C_29  and  N_30
REMARK                            x       y       z     vdW  Elec       q    Type
REMARK                         _______ _______ _______ _____ _____    ______ ____
ROOT
ATOM      1  C   UNL     1       1.484   7.300  20.680  0.00  0.00    +0.000 C 
ATOM      2  N   UNL     1       1.586   8.294  19.623  0.00  0.00    +0.000 N 
ATOM      3  C   UNL     1       1.054   9.538  19.916  0.00  0.00    +0.000 A 
ATOM      4  N   UNL     1       0.330   9.652  21.028  0.00  0.00    +0.000 NA
ATOM      5  C   UNL     1      -0.171  10.866  21.302  0.00  0.00    +0.000 A 
ATOM      6  C   UNL     1      -0.003  11.970  20.501  0.00  0.00    +0.000 A 
ATOM      7  C   UNL     1       0.734  11.784  19.355  0.00  0.00    +0.000 A 
ATOM      8  N   UNL     1       1.263  10.573  19.088  0.00  0.00    +0.000 NA
ENDROOT
BRANCH   7   9
ATOM      9  N   UNL     1       1.007  12.831  18.494  0.00  0.00    +0.000 N 
ATOM     10  C   UNL     1       2.366  13.144  18.027  0.00  0.00    +0.000 C 
ATOM     11  C   UNL     1       2.857  14.471  18.629  0.00  0.00    +0.000 C 
ATOM     12  O   UNL     1       1.937  15.543  18.372  0.00  0.00    +0.000 OA
ATOM     13  C   UNL     1       0.660  15.245  18.964  0.00  0.00    +0.000 C 
ATOM     14  C   UNL     1       0.059  13.958  18.384  0.00  0.00    +0.000 C 
ENDBRANCH   7   9
BRANCH   5  15
ATOM     15  C   UNL     1      -0.926  10.957  22.593  0.00  0.00    +0.000 C 
ATOM     16  O   UNL     1      -0.661  10.233  23.544  0.00  0.00    +0.000 OA
ATOM     17  N   UNL     1      -1.930  11.903  22.595  0.00  0.00    +0.000 N 
ATOM     18  H   UNL     1      -2.087  12.389  21.717  0.00  0.00    +0.000 HD
BRANCH  17  19
ATOM     19  C   UNL     1      -2.837  12.070  23.697  0.00  0.00    +0.000 C 
BRANCH  19  20
ATOM     20  C   UNL     1      -4.098  12.725  23.217  0.00  0.00    +0.000 C 
ATOM     21  C   UNL     1      -5.302  12.845  24.120  0.00  0.00    +0.000 C 
ATOM     22  C   UNL     1      -4.513  14.071  23.759  0.00  0.00    +0.000 C 
ENDBRANCH  19  20
ENDBRANCH  17  19
ENDBRANCH   5  15
BRANCH   2  23
ATOM     23  C   UNL     1       2.541   8.178  18.511  0.00  0.00    +0.000 C 
BRANCH  23  24
ATOM     24  C   UNL     1       2.537   6.755  17.944  0.00  0.00    +0.000 C 
BRANCH  24  25
ATOM     25  C   UNL     1       3.800   6.036  17.529  0.00  0.00    +0.000 A 
ATOM     26  C   UNL     1       4.902   6.899  17.319  0.00  0.00    +0.000 A 
ATOM     27  C   UNL     1       6.124   6.431  16.848  0.00  0.00    +0.000 A 
ATOM     28  C   UNL     1       6.285   5.075  16.613  0.00  0.00    +0.000 A 
ATOM     29  C   UNL     1       5.229   4.197  16.860  0.00  0.00    +0.000 A 
ATOM     30  C   UNL     1       3.970   4.666  17.277  0.00  0.00    +0.000 A 
BRANCH  30  31
ATOM     31  O   UNL     1       2.921   3.795  17.494  0.00  0.00    +0.000 OA
BRANCH  31  32
ATOM     32  C   UNL     1       2.541   3.508  18.791  0.00  0.00    +0.000 A 
ATOM     33  C   UNL     1       1.189   3.676  19.115  0.00  0.00    +0.000 A 
ATOM     34  C   UNL     1       0.732   3.367  20.401  0.00  0.00    +0.000 A 
ATOM     35  C   UNL     1       1.622   2.889  21.363  0.00  0.00    +0.000 A 
ATOM     36  C   UNL     1       2.966   2.713  21.041  0.00  0.00    +0.000 A 
ATOM     37  C   UNL     1       3.421   3.004  19.752  0.00  0.00    +0.000 A 
ENDBRANCH  31  32
ENDBRANCH  30  31
ENDBRANCH  24  25
ENDBRANCH  23  24
ENDBRANCH   2  23
TORSDOF 9
ENDMDL
MODEL 4
REMARK VINA RESULT:      -8.5      1.220      1.594
REMARK  Name = 
REMARK  10 active torsions:
REMARK  status: ('A' for Active; 'I' for Inactive)
REMARK    1  A    between atoms: C_1  and  N_2
REMARK    2  A    between atoms: N_2  and  C_3
REMARK    3  A    between atoms: C_3  and  C_4
REMARK    4  A    between atoms: C_4  and  C_5
REMARK    5  A    between atoms: C_10  and  O_11
REMARK    6  A    between atoms: O_11  and  C_12
REMARK    7  A    between atoms: C_20  and  C_21
REMARK    8  A    between atoms: N_23  and  C_24
REMARK    9  A    between atoms: C_24  and  C_25
REMARK   10  A    between atoms: C_29  and  N_30
REMARK                            x       y       z     vdW  Elec       q    Type
REMARK                         _______ _______ _______ _____ _____    ______ ____
ROOT
ATOM      1  C   UNL     1       2.656   9.935  18.037  0.00  0.00    +0.000 C 
ATOM      2  N   UNL     1       2.018   8.793  18.673  0.00  0.00    +0.000 N 
ATOM      3  C   UNL     1       2.627   7.569  18.458  0.00  0.00    +0.000 A 
ATOM      4  N   UNL     1       3.594   7.514  17.544  0.00  0.00    +0.000 NA
ATOM      5  C   UNL     1       4.179   6.322  17.355  0.00  0.00    +0.000 A 
ATOM      6  C   UNL     1       3.827   5.173  18.019  0.00  0.00    +0.000 A 
ATOM      7  C   UNL     1       2.806   5.288  18.934  0.00  0.00    +0.000 A 
ATOM      8  N   UNL     1       2.232   6.488  19.149  0.00  0.00    +0.000 NA
ENDROOT
BRANCH   7   9
ATOM      9  N   UNL     1       2.394   4.209  19.695  0.00  0.00    +0.000 N 
ATOM     10  C   UNL     1       3.312   3.149  20.136  0.00  0.00    +0.000 C 
ATOM     11  C   UNL     1       3.003   1.826  19.415  0.00  0.00    +0.000 C 
ATOM     12  O   UNL     1       1.626   1.447  19.568  0.00  0.00    +0.000 OA
ATOM     13  C   UNL     1       0.774   2.459  19.002  0.00  0.00    +0.000 C 
ATOM     14  C   UNL     1       0.971   3.813  19.697  0.00  0.00    +0.000 C 
ENDBRANCH   7   9
BRANCH   5  15
ATOM     15  C   UNL     1       5.301   6.325  16.361  0.00  0.00    +0.000 C 
ATOM     16  O   UNL     1       6.061   7.278  16.253  0.00  0.00    +0.000 OA
ATOM     17  N   UNL     1       5.378   5.183  15.592  0.00  0.00    +0.000 N 
ATOM     18  H   UNL     1       4.643   4.497  15.737  0.00  0.00    +0.000 HD
BRANCH  17  19
ATOM     19  C   UNL     1       6.313   5.036  14.511  0.00  0.00    +0.000 C 
BRANCH  19  20
ATOM     20  C   UNL     1       6.026   3.766  13.764  0.00  0.00    +0.000 C 
ATOM     21  C   UNL     1       5.119   3.763  12.558  0.00  0.00    +0.000 C 
ATOM     22  C   UNL     1       6.595   3.548  12.383  0.00  0.00    +0.000 C 
ENDBRANCH  19  20
ENDBRANCH  17  19
ENDBRANCH   5  15
BRANCH   2  23
ATOM     23  C   UNL     1       1.084   8.930  19.801  0.00  0.00    +0.000 C 
BRANCH  23  24
ATOM     24  C   UNL     1       0.274  10.224  19.676  0.00  0.00    +0.000 C 
BRANCH  24  25
ATOM     25  C   UNL     1      -0.508  10.814  20.827  0.00  0.00    +0.000 A 
ATOM     26  C   UNL     1      -0.296  10.148  22.057  0.00  0.00    +0.000 A 
ATOM     27  C   UNL     1      -0.996  10.491  23.209  0.00  0.00    +0.000 A 
ATOM     28  C   UNL     1      -1.899  11.542  23.166  0.00  0.00    +0.000 A 
ATOM     29  C   UNL     1      -2.089  12.246  21.977  0.00  0.00    +0.000 A 
ATOM     30  C   UNL     1      -1.434  11.868  20.790  0.00  0.00    +0.000 A 
BRANCH  30  31
ATOM     31  O   UNL     1      -1.645  12.552  19.611  0.00  0.00    +0.000 OA
BRANCH  31  32
ATOM     32  C   UNL     1      -2.522  12.032  18.678  0.00  0.00    +0.000 A 
ATOM     33  C   UNL     1      -1.980  11.598  17.462  0.00  0.00    +0.000 A 
ATOM     34  C   UNL     1      -2.807  11.026  16.489  0.00  0.00    +0.000 A 
ATOM     35  C   UNL     1      -4.174  10.885  16.729  0.00  0.00    +0.000 A 
ATOM     36  C   UNL     1      -4.714  11.309  17.941  0.00  0.00    +0.000 A 
ATOM     37  C   UNL     1      -3.887  11.864  18.921  0.00  0.00    +0.000 A 
ENDBRANCH  31  32
ENDBRANCH  30  31
ENDBRANCH  24  25
ENDBRANCH  23  24
ENDBRANCH   2  23
TORSDOF 9
ENDMDL
MODEL 5
REMARK VINA RESULT:      -8.5      3.560     10.569
REMARK  Name = 
REMARK  10 active torsions:
REMARK  status: ('A' for Active; 'I' for Inactive)
REMARK    1  A    between atoms: C_1  and  N_2
REMARK    2  A    between atoms: N_2  and  C_3
REMARK    3  A    between atoms: C_3  and  C_4
REMARK    4  A    between atoms: C_4  and  C_5
REMARK    5  A    between atoms: C_10  and  O_11
REMARK    6  A    between atoms: O_11  and  C_12
REMARK    7  A    between atoms: C_20  and  C_21
REMARK    8  A    between atoms: N_23  and  C_24
REMARK    9  A    between atoms: C_24  and  C_25
REMARK   10  A    between atoms: C_29  and  N_30
REMARK                            x       y       z     vdW  Elec       q    Type
REMARK                         _______ _______ _______ _____ _____    ______ ____
ROOT
ATOM      1  C   UNL     1       1.484   7.488  20.417  0.00  0.00    +0.000 C 
ATOM      2  N   UNL     1       1.562   8.528  19.402  0.00  0.00    +0.000 N 
ATOM      3  C   UNL     1       1.030   9.755  19.759  0.00  0.00    +0.000 A 
ATOM      4  N   UNL     1       0.327   9.817  20.888  0.00  0.00    +0.000 NA
ATOM      5  C   UNL     1      -0.174  11.015  21.224  0.00  0.00    +0.000 A 
ATOM      6  C   UNL     1      -0.026  12.154  20.469  0.00  0.00    +0.000 A 
ATOM      7  C   UNL     1       0.690  12.021  19.302  0.00  0.00    +0.000 A 
ATOM      8  N   UNL     1       1.219  10.826  18.973  0.00  0.00    +0.000 NA
ENDROOT
BRANCH   7   9
ATOM      9  N   UNL     1       0.942  13.106  18.482  0.00  0.00    +0.000 N 
ATOM     10  C   UNL     1       2.297  13.474  18.044  0.00  0.00    +0.000 C 
ATOM     11  C   UNL     1       2.742  14.792  18.698  0.00  0.00    +0.000 C 
ATOM     12  O   UNL     1       1.795  15.846  18.469  0.00  0.00    +0.000 OA
ATOM     13  C   UNL     1       0.520  15.491  19.034  0.00  0.00    +0.000 C 
ATOM     14  C   UNL     1      -0.037  14.208  18.401  0.00  0.00    +0.000 C 
ENDBRANCH   7   9
BRANCH   5  15
ATOM     15  C   UNL     1      -0.904  11.047  22.532  0.00  0.00    +0.000 C 
ATOM     16  O   UNL     1      -0.586  10.318  23.462  0.00  0.00    +0.000 OA
ATOM     17  N   UNL     1      -1.950  11.944  22.573  0.00  0.00    +0.000 N 
ATOM     18  H   UNL     1      -2.149  12.438  21.709  0.00  0.00    +0.000 HD
BRANCH  17  19
ATOM     19  C   UNL     1      -2.841  12.047  23.697  0.00  0.00    +0.000 C 
BRANCH  19  20
ATOM     20  C   UNL     1      -4.093  12.763  23.285  0.00  0.00    +0.000 C 
ATOM     21  C   UNL     1      -4.348  14.188  23.711  0.00  0.00    +0.000 C 
ATOM     22  C   UNL     1      -4.035  13.882  22.274  0.00  0.00    +0.000 C 
ENDBRANCH  19  20
ENDBRANCH  17  19
ENDBRANCH   5  15
BRANCH   2  23
ATOM     23  C   UNL     1       2.496   8.464  18.269  0.00  0.00    +0.000 C 
BRANCH  23  24
ATOM     24  C   UNL     1       2.869   7.012  17.958  0.00  0.00    +0.000 C 
BRANCH  24  25
ATOM     25  C   UNL     1       4.277   6.480  18.101  0.00  0.00    +0.000 A 
ATOM     26  C   UNL     1       5.185   7.019  17.160  0.00  0.00    +0.000 A 
ATOM     27  C   UNL     1       6.504   6.585  17.078  0.00  0.00    +0.000 A 
ATOM     28  C   UNL     1       6.958   5.625  17.969  0.00  0.00    +0.000 A 
ATOM     29  C   UNL     1       6.095   5.114  18.938  0.00  0.00    +0.000 A 
ATOM     30  C   UNL     1       4.743   5.499  18.991  0.00  0.00    +0.000 A 
BRANCH  30  31
ATOM     31  O   UNL     1       3.887   4.971  19.936  0.00  0.00    +0.000 OA
BRANCH  31  32
ATOM     32  C   UNL     1       2.952   4.030  19.548  0.00  0.00    +0.000 A 
ATOM     33  C   UNL     1       1.776   3.947  20.303  0.00  0.00    +0.000 A 
ATOM     34  C   UNL     1       0.772   3.041  19.941  0.00  0.00    +0.000 A 
ATOM     35  C   UNL     1       0.942   2.221  18.826  0.00  0.00    +0.000 A 
ATOM     36  C   UNL     1       2.108   2.307  18.069  0.00  0.00    +0.000 A 
ATOM     37  C   UNL     1       3.103   3.223  18.418  0.00  0.00    +0.000 A 
ENDBRANCH  31  32
ENDBRANCH  30  31
ENDBRANCH  24  25
ENDBRANCH  23  24
ENDBRANCH   2  23
TORSDOF 9
ENDMDL
MODEL 6
REMARK VINA RESULT:      -8.3      1.534      3.383
REMARK  Name = 
REMARK  10 active torsions:
REMARK  status: ('A' for Active; 'I' for Inactive)
REMARK    1  A    between atoms: C_1  and  N_2
REMARK    2  A    between atoms: N_2  and  C_3
REMARK    3  A    between atoms: C_3  and  C_4
REMARK    4  A    between atoms: C_4  and  C_5
REMARK    5  A    between atoms: C_10  and  O_11
REMARK    6  A    between atoms: O_11  and  C_12
REMARK    7  A    between atoms: C_20  and  C_21
REMARK    8  A    between atoms: N_23  and  C_24
REMARK    9  A    between atoms: C_24  and  C_25
REMARK   10  A    between atoms: C_29  and  N_30
REMARK                            x       y       z     vdW  Elec       q    Type
REMARK                         _______ _______ _______ _____ _____    ______ ____
ROOT
ATOM      1  C   UNL     1       2.674  10.187  17.794  0.00  0.00    +0.000 C 
ATOM      2  N   UNL     1       1.855   9.147  18.397  0.00  0.00    +0.000 N 
ATOM      3  C   UNL     1       2.405   7.877  18.402  0.00  0.00    +0.000 A 
ATOM      4  N   UNL     1       3.513   7.682  17.689  0.00  0.00    +0.000 NA
ATOM      5  C   UNL     1       4.037   6.448  17.712  0.00  0.00    +0.000 A 
ATOM      6  C   UNL     1       3.492   5.389  18.396  0.00  0.00    +0.000 A 
ATOM      7  C   UNL     1       2.336   5.646  19.094  0.00  0.00    +0.000 A 
ATOM      8  N   UNL     1       1.818   6.891  19.098  0.00  0.00    +0.000 NA
ENDROOT
BRANCH   7   9
ATOM      9  N   UNL     1       1.719   4.670  19.856  0.00  0.00    +0.000 N 
ATOM     10  C   UNL     1       2.133   4.355  21.232  0.00  0.00    +0.000 C 
ATOM     11  C   UNL     1       2.787   2.966  21.300  0.00  0.00    +0.000 C 
ATOM     12  O   UNL     1       1.937   1.950  20.746  0.00  0.00    +0.000 OA
ATOM     13  C   UNL     1       1.671   2.237  19.361  0.00  0.00    +0.000 C 
ATOM     14  C   UNL     1       0.964   3.589  19.192  0.00  0.00    +0.000 C 
ENDBRANCH   7   9
BRANCH   5  15
ATOM     15  C   UNL     1       5.315   6.295  16.944  0.00  0.00    +0.000 C 
ATOM     16  O   UNL     1       5.937   7.266  16.532  0.00  0.00    +0.000 OA
ATOM     17  N   UNL     1       5.700   4.986  16.743  0.00  0.00    +0.000 N 
ATOM     18  H   UNL     1       5.058   4.275  17.080  0.00  0.00    +0.000 HD
BRANCH  17  19
ATOM     19  C   UNL     1       6.835   4.625  15.939  0.00  0.00    +0.000 C 
BRANCH  19  20
ATOM     20  C   UNL     1       6.531   4.885  14.492  0.00  0.00    +0.000 C 
ATOM     21  C   UNL     1       6.732   3.809  13.453  0.00  0.00    +0.000 C 
ATOM     22  C   UNL     1       5.341   4.231  13.834  0.00  0.00    +0.000 C 
ENDBRANCH  19  20
ENDBRANCH  17  19
ENDBRANCH   5  15
BRANCH   2  23
ATOM     23  C   UNL     1       0.748   9.443  19.319  0.00  0.00    +0.000 C 
BRANCH  23  24
ATOM     24  C   UNL     1       0.063  10.757  18.935  0.00  0.00    +0.000 C 
BRANCH  24  25
ATOM     25  C   UNL     1      -1.361  10.822  18.430  0.00  0.00    +0.000 A 
ATOM     26  C   UNL     1      -1.683   9.796  17.509  0.00  0.00    +0.000 A 
ATOM     27  C   UNL     1      -2.916   9.744  16.869  0.00  0.00    +0.000 A 
ATOM     28  C   UNL     1      -3.876  10.697  17.169  0.00  0.00    +0.000 A 
ATOM     29  C   UNL     1      -3.601  11.688  18.110  0.00  0.00    +0.000 A 
ATOM     30  C   UNL     1      -2.335  11.790  18.717  0.00  0.00    +0.000 A 
BRANCH  30  31
ATOM     31  O   UNL     1      -2.059  12.789  19.629  0.00  0.00    +0.000 OA
BRANCH  31  32
ATOM     32  C   UNL     1      -2.404  12.605  20.954  0.00  0.00    +0.000 A 
ATOM     33  C   UNL     1      -3.679  13.029  21.349  0.00  0.00    +0.000 A 
ATOM     34  C   UNL     1      -4.105  12.837  22.669  0.00  0.00    +0.000 A 
ATOM     35  C   UNL     1      -3.260  12.223  23.593  0.00  0.00    +0.000 A 
ATOM     36  C   UNL     1      -1.994  11.795  23.201  0.00  0.00    +0.000 A 
ATOM     37  C   UNL     1      -1.574  11.968  21.880  0.00  0.00    +0.000 A 
ENDBRANCH  31  32
ENDBRANCH  30  31
ENDBRANCH  24  25
ENDBRANCH  23  24
ENDBRANCH   2  23
TORSDOF 9
ENDMDL
MODEL 7
REMARK VINA RESULT:      -8.3      1.583      2.313
REMARK  Name = 
REMARK  10 active torsions:
REMARK  status: ('A' for Active; 'I' for Inactive)
REMARK    1  A    between atoms: C_1  and  N_2
REMARK    2  A    between atoms: N_2  and  C_3
REMARK    3  A    between atoms: C_3  and  C_4
REMARK    4  A    between atoms: C_4  and  C_5
REMARK    5  A    between atoms: C_10  and  O_11
REMARK    6  A    between atoms: O_11  and  C_12
REMARK    7  A    between atoms: C_20  and  C_21
REMARK    8  A    between atoms: N_23  and  C_24
REMARK    9  A    between atoms: C_24  and  C_25
REMARK   10  A    between atoms: C_29  and  N_30
REMARK                            x       y       z     vdW  Elec       q    Type
REMARK                         _______ _______ _______ _____ _____    ______ ____
ROOT
ATOM      1  C   UNL     1       2.634   9.876  17.800  0.00  0.00    +0.000 C 
ATOM      2  N   UNL     1       1.932   8.744  18.383  0.00  0.00    +0.000 N 
ATOM      3  C   UNL     1       2.536   7.510  18.210  0.00  0.00    +0.000 A 
ATOM      4  N   UNL     1       3.568   7.441  17.372  0.00  0.00    +0.000 NA
ATOM      5  C   UNL     1       4.147   6.240  17.223  0.00  0.00    +0.000 A 
ATOM      6  C   UNL     1       3.727   5.096  17.855  0.00  0.00    +0.000 A 
ATOM      7  C   UNL     1       2.642   5.226  18.691  0.00  0.00    +0.000 A 
ATOM      8  N   UNL     1       2.072   6.435  18.866  0.00  0.00    +0.000 NA
ENDROOT
BRANCH   7   9
ATOM      9  N   UNL     1       2.155   4.152  19.416  0.00  0.00    +0.000 N 
ATOM     10  C   UNL     1       1.389   4.316  20.660  0.00  0.00    +0.000 C 
ATOM     11  C   UNL     1       2.203   3.826  21.869  0.00  0.00    +0.000 C 
ATOM     12  O   UNL     1       2.663   2.478  21.690  0.00  0.00    +0.000 OA
ATOM     13  C   UNL     1       3.515   2.401  20.533  0.00  0.00    +0.000 C 
ATOM     14  C   UNL     1       2.771   2.820  19.258  0.00  0.00    +0.000 C 
ENDBRANCH   7   9
BRANCH   5  15
ATOM     15  C   UNL     1       5.340   6.227  16.317  0.00  0.00    +0.000 C 
ATOM     16  O   UNL     1       6.173   7.124  16.339  0.00  0.00    +0.000 OA
ATOM     17  N   UNL     1       5.395   5.140  15.470  0.00  0.00    +0.000 N 
ATOM     18  H   UNL     1       4.604   4.504  15.508  0.00  0.00    +0.000 HD
BRANCH  17  19
ATOM     19  C   UNL     1       6.399   4.998  14.452  0.00  0.00    +0.000 C 
BRANCH  19  20
ATOM     20  C   UNL     1       6.163   3.731  13.683  0.00  0.00    +0.000 C 
ATOM     21  C   UNL     1       5.185   3.691  12.534  0.00  0.00    +0.000 C 
ATOM     22  C   UNL     1       6.660   3.596  12.264  0.00  0.00    +0.000 C 
ENDBRANCH  19  20
ENDBRANCH  17  19
ENDBRANCH   5  15
BRANCH   2  23
ATOM     23  C   UNL     1       0.918   8.894  19.437  0.00  0.00    +0.000 C 
BRANCH  23  24
ATOM     24  C   UNL     1       1.138  10.195  20.214  0.00  0.00    +0.000 C 
BRANCH  24  25
ATOM     25  C   UNL     1       0.645  11.536  19.721  0.00  0.00    +0.000 A 
ATOM     26  C   UNL     1       1.632  12.551  19.758  0.00  0.00    +0.000 A 
ATOM     27  C   UNL     1       1.342  13.870  19.427  0.00  0.00    +0.000 A 
ATOM     28  C   UNL     1       0.062  14.199  19.010  0.00  0.00    +0.000 A 
ATOM     29  C   UNL     1      -0.915  13.208  18.918  0.00  0.00    +0.000 A 
ATOM     30  C   UNL     1      -0.651  11.882  19.309  0.00  0.00    +0.000 A 
BRANCH  30  31
ATOM     31  O   UNL     1      -1.629  10.910  19.241  0.00  0.00    +0.000 OA
BRANCH  31  32
ATOM     32  C   UNL     1      -2.347  10.759  18.070  0.00  0.00    +0.000 A 
ATOM     33  C   UNL     1      -3.569  11.436  17.976  0.00  0.00    +0.000 A 
ATOM     34  C   UNL     1      -4.328  11.356  16.803  0.00  0.00    +0.000 A 
ATOM     35  C   UNL     1      -3.868  10.601  15.724  0.00  0.00    +0.000 A 
ATOM     36  C   UNL     1      -2.649   9.932  15.812  0.00  0.00    +0.000 A 
ATOM     37  C   UNL     1      -1.881  10.026  16.976  0.00  0.00    +0.000 A 
ENDBRANCH  31  32
ENDBRANCH  30  31
ENDBRANCH  24  25
ENDBRANCH  23  24
ENDBRANCH   2  23
TORSDOF 9
ENDMDL
MODEL 8
REMARK VINA RESULT:      -8.3      2.103      2.665
REMARK  Name = 
REMARK  10 active torsions:
REMARK  status: ('A' for Active; 'I' for Inactive)
REMARK    1  A    between atoms: C_1  and  N_2
REMARK    2  A    between atoms: N_2  and  C_3
REMARK    3  A    between atoms: C_3  and  C_4
REMARK    4  A    between atoms: C_4  and  C_5
REMARK    5  A    between atoms: C_10  and  O_11
REMARK    6  A    between atoms: O_11  and  C_12
REMARK    7  A    between atoms: C_20  and  C_21
REMARK    8  A    between atoms: N_23  and  C_24
REMARK    9  A    between atoms: C_24  and  C_25
REMARK   10  A    between atoms: C_29  and  N_30
REMARK                            x       y       z     vdW  Elec       q    Type
REMARK                         _______ _______ _______ _____ _____    ______ ____
ROOT
ATOM      1  C   UNL     1       2.555   9.650  17.676  0.00  0.00    +0.000 C 
ATOM      2  N   UNL     1       2.126   8.537  18.509  0.00  0.00    +0.000 N 
ATOM      3  C   UNL     1       2.885   7.384  18.405  0.00  0.00    +0.000 A 
ATOM      4  N   UNL     1       3.787   7.325  17.428  0.00  0.00    +0.000 NA
ATOM      5  C   UNL     1       4.519   6.204  17.348  0.00  0.00    +0.000 A 
ATOM      6  C   UNL     1       4.376   5.125  18.185  0.00  0.00    +0.000 A 
ATOM      7  C   UNL     1       3.412   5.236  19.160  0.00  0.00    +0.000 A 
ATOM      8  N   UNL     1       2.691   6.370  19.264  0.00  0.00    +0.000 NA
ENDROOT
BRANCH   7   9
ATOM      9  N   UNL     1       3.206   4.232  20.089  0.00  0.00    +0.000 N 
ATOM     10  C   UNL     1       3.495   2.817  19.809  0.00  0.00    +0.000 C 
ATOM     11  C   UNL     1       2.195   2.002  19.721  0.00  0.00    +0.000 C 
ATOM     12  O   UNL     1       1.384   2.166  20.895  0.00  0.00    +0.000 OA
ATOM     13  C   UNL     1       1.019   3.550  21.049  0.00  0.00    +0.000 C 
ATOM     14  C   UNL     1       2.257   4.444  21.200  0.00  0.00    +0.000 C 
ENDBRANCH   7   9
BRANCH   5  15
ATOM     15  C   UNL     1       5.561   6.211  16.271  0.00  0.00    +0.000 C 
ATOM     16  O   UNL     1       6.451   7.052  16.243  0.00  0.00    +0.000 OA
ATOM     17  N   UNL     1       5.411   5.211  15.333  0.00  0.00    +0.000 N 
ATOM     18  H   UNL     1       4.591   4.621  15.436  0.00  0.00    +0.000 HD
BRANCH  17  19
ATOM     19  C   UNL     1       6.241   5.113  14.163  0.00  0.00    +0.000 C 
BRANCH  19  20
ATOM     20  C   UNL     1       6.082   3.755  13.545  0.00  0.00    +0.000 C 
ATOM     21  C   UNL     1       5.149   3.539  12.379  0.00  0.00    +0.000 C 
ATOM     22  C   UNL     1       6.635   3.474  12.169  0.00  0.00    +0.000 C 
ENDBRANCH  19  20
ENDBRANCH  17  19
ENDBRANCH   5  15
BRANCH   2  23
ATOM     23  C   UNL     1       1.260   8.711  19.684  0.00  0.00    +0.000 C 
BRANCH  23  24
ATOM     24  C   UNL     1       0.339   9.921  19.501  0.00  0.00    +0.000 C 
BRANCH  24  25
ATOM     25  C   UNL     1      -0.275  10.666  20.664  0.00  0.00    +0.000 A 
ATOM     26  C   UNL     1      -0.206   9.960  21.889  0.00  0.00    +0.000 A 
ATOM     27  C   UNL     1      -0.797  10.446  23.051  0.00  0.00    +0.000 A 
ATOM     28  C   UNL     1      -1.436  11.675  23.024  0.00  0.00    +0.000 A 
ATOM     29  C   UNL     1      -1.473  12.412  21.841  0.00  0.00    +0.000 A 
ATOM     30  C   UNL     1      -0.935  11.904  20.644  0.00  0.00    +0.000 A 
BRANCH  30  31
ATOM     31  O   UNL     1      -0.997  12.627  19.470  0.00  0.00    +0.000 OA
BRANCH  31  32
ATOM     32  C   UNL     1      -0.174  13.725  19.310  0.00  0.00    +0.000 A 
ATOM     33  C   UNL     1       1.194  13.480  19.135  0.00  0.00    +0.000 A 
ATOM     34  C   UNL     1       2.077  14.546  18.929  0.00  0.00    +0.000 A 
ATOM     35  C   UNL     1       1.597  15.855  18.897  0.00  0.00    +0.000 A 
ATOM     36  C   UNL     1       0.236  16.101  19.063  0.00  0.00    +0.000 A 
ATOM     37  C   UNL     1      -0.650  15.037  19.250  0.00  0.00    +0.000 A 
ENDBRANCH  31  32
ENDBRANCH  30  31
ENDBRANCH  24  25
ENDBRANCH  23  24
ENDBRANCH   2  23
TORSDOF 9
ENDMDL
MODEL 9
REMARK VINA RESULT:      -8.2      1.725      2.415
REMARK  Name = 
REMARK  10 active torsions:
REMARK  status: ('A' for Active; 'I' for Inactive)
REMARK    1  A    between atoms: C_1  and  N_2
REMARK    2  A    between atoms: N_2  and  C_3
REMARK    3  A    between atoms: C_3  and  C_4
REMARK    4  A    between atoms: C_4  and  C_5
REMARK    5  A    between atoms: C_10  and  O_11
REMARK    6  A    between atoms: O_11  and  C_12
REMARK    7  A    between atoms: C_20  and  C_21
REMARK    8  A    between atoms: N_23  and  C_24
REMARK    9  A    between atoms: C_24  and  C_25
REMARK   10  A    between atoms: C_29  and  N_30
REMARK                            x       y       z     vdW  Elec       q    Type
REMARK                         _______ _______ _______ _____ _____    ______ ____
ROOT
ATOM      1  C   UNL     1       3.642   8.774  17.459  0.00  0.00    +0.000 C 
ATOM      2  N   UNL     1       2.954   7.613  18.001  0.00  0.00    +0.000 N 
ATOM      3  C   UNL     1       3.549   6.390  17.745  0.00  0.00    +0.000 A 
ATOM      4  N   UNL     1       4.557   6.364  16.875  0.00  0.00    +0.000 NA
ATOM      5  C   UNL     1       5.128   5.172  16.646  0.00  0.00    +0.000 A 
ATOM      6  C   UNL     1       4.723   3.996  17.229  0.00  0.00    +0.000 A 
ATOM      7  C   UNL     1       3.663   4.083  18.101  0.00  0.00    +0.000 A 
ATOM      8  N   UNL     1       3.101   5.281  18.356  0.00  0.00    +0.000 NA
ENDROOT
BRANCH   7   9
ATOM      9  N   UNL     1       3.194   2.973  18.781  0.00  0.00    +0.000 N 
ATOM     10  C   UNL     1       1.856   2.408  18.554  0.00  0.00    +0.000 C 
ATOM     11  C   UNL     1       0.954   2.633  19.778  0.00  0.00    +0.000 C 
ATOM     12  O   UNL     1       1.556   2.131  20.981  0.00  0.00    +0.000 OA
ATOM     13  C   UNL     1       2.800   2.812  21.227  0.00  0.00    +0.000 C 
ATOM     14  C   UNL     1       3.794   2.599  20.077  0.00  0.00    +0.000 C 
ENDBRANCH   7   9
BRANCH   5  15
ATOM     15  C   UNL     1       6.295   5.205  15.707  0.00  0.00    +0.000 C 
ATOM     16  O   UNL     1       7.292   5.875  15.945  0.00  0.00    +0.000 OA
ATOM     17  N   UNL     1       6.129   4.439  14.572  0.00  0.00    +0.000 N 
ATOM     18  H   UNL     1       5.226   3.987  14.467  0.00  0.00    +0.000 HD
BRANCH  17  19
ATOM     19  C   UNL     1       7.085   4.423  13.499  0.00  0.00    +0.000 C 
BRANCH  19  20
ATOM     20  C   UNL     1       6.404   4.029  12.222  0.00  0.00    +0.000 C 
ATOM     21  C   UNL     1       6.808   2.777  11.482  0.00  0.00    +0.000 C 
ATOM     22  C   UNL     1       5.482   2.835  12.186  0.00  0.00    +0.000 C 
ENDBRANCH  19  20
ENDBRANCH  17  19
ENDBRANCH   5  15
BRANCH   2  23
ATOM     23  C   UNL     1       1.971   7.708  19.090  0.00  0.00    +0.000 C 
BRANCH  23  24
ATOM     24  C   UNL     1       1.287   9.078  19.081  0.00  0.00    +0.000 C 
BRANCH  24  25
ATOM     25  C   UNL     1       0.618   9.667  20.302  0.00  0.00    +0.000 A 
ATOM     26  C   UNL     1       0.848   8.927  21.487  0.00  0.00    +0.000 A 
ATOM     27  C   UNL     1       0.242   9.263  22.693  0.00  0.00    +0.000 A 
ATOM     28  C   UNL     1      -0.579  10.378  22.751  0.00  0.00    +0.000 A 
ATOM     29  C   UNL     1      -0.780  11.153  21.609  0.00  0.00    +0.000 A 
ATOM     30  C   UNL     1      -0.224  10.787  20.369  0.00  0.00    +0.000 A 
BRANCH  30  31
ATOM     31  O   UNL     1      -0.448  11.543  19.236  0.00  0.00    +0.000 OA
BRANCH  31  32
ATOM     32  C   UNL     1       0.299  12.688  19.031  0.00  0.00    +0.000 A 
ATOM     33  C   UNL     1      -0.369  13.914  19.129  0.00  0.00    +0.000 A 
ATOM     34  C   UNL     1       0.337  15.112  18.970  0.00  0.00    +0.000 A 
ATOM     35  C   UNL     1       1.708  15.086  18.714  0.00  0.00    +0.000 A 
ATOM     36  C   UNL     1       2.376  13.867  18.624  0.00  0.00    +0.000 A 
ATOM     37  C   UNL     1       1.677  12.671  18.801  0.00  0.00    +0.000 A 
ENDBRANCH  31  32
ENDBRANCH  30  31
ENDBRANCH  24  25
ENDBRANCH  23  24
ENDBRANCH   2  23
TORSDOF 9
ENDMDL
