MODEL 1
REMARK VINA RESULT:      -8.7      0.000      0.000
REMARK  Name = 
REMARK  9 active torsions:
REMARK  status: ('A' for Active; 'I' for Inactive)
REMARK    1  A    between atoms: C_1  and  C_2
REMARK    2  A    between atoms: C_12  and  C_13
REMARK    3  A    between atoms: C_19  and  C_20
REMARK    4  A    between atoms: N_22  and  C_23
REMARK    5  A    between atoms: C_23  and  C_24
REMARK    6  A    between atoms: C_24  and  C_25
REMARK    7  A    between atoms: C_25  and  N_26
REMARK    8  A    between atoms: N_26  and  C_27
REMARK    9  A    between atoms: N_26  and  C_28
REMARK                            x       y       z     vdW  Elec       q    Type
REMARK                         _______ _______ _______ _____ _____    ______ ____
ROOT
ATOM      1  C   UNL     1       2.128   9.131  18.214  0.00  0.00    +0.000 C 
ATOM      2  O   UNL     1       2.489  10.119  17.587  0.00  0.00    +0.000 OA
ATOM      3  N   UNL     1       1.257   9.101  19.277  0.00  0.00    +0.000 N 
ATOM      4  C   UNL     1       0.669  10.235  19.766  0.00  0.00    +0.000 A 
ATOM      5  N   UNL     1       0.617  11.439  19.258  0.00  0.00    +0.000 NA
ATOM      6  C   UNL     1      -0.037  12.278  20.147  0.00  0.00    +0.000 A 
ATOM      7  C   UNL     1      -0.453  11.694  21.329  0.00  0.00    +0.000 A 
ATOM      8  S   UNL     1      -0.085  10.010  21.274  0.00  0.00    +0.000 S 
ATOM      9  H   UNL     1       1.150   8.268  19.835  0.00  0.00    +0.000 HD
ENDROOT
BRANCH   1  21
ATOM     10  C   UNL     1       0.818   4.080  20.413  0.00  0.00    +0.000 C 
ATOM     11  C   UNL     1       0.913   3.573  18.974  0.00  0.00    +0.000 C 
ATOM     12  C   UNL     1       0.875   2.021  18.928  0.00  0.00    +0.000 C 
ATOM     13  N   UNL     1       2.177   1.360  18.978  0.00  0.00    +0.000 N 
ATOM     14  C   UNL     1       3.258   1.825  18.258  0.00  0.00    +0.000 C 
ATOM     15  O   UNL     1       4.199   1.098  17.965  0.00  0.00    +0.000 OA
ATOM     16  C   UNL     1       3.187   3.227  17.950  0.00  0.00    +0.000 A 
ATOM     17  N   UNL     1       4.164   3.974  17.346  0.00  0.00    +0.000 N 
ATOM     18  C   UNL     1       3.834   5.313  17.405  0.00  0.00    +0.000 A 
ATOM     19  C   UNL     1       4.574   6.445  17.038  0.00  0.00    +0.000 A 
ATOM     20  C   UNL     1       4.008   7.704  17.291  0.00  0.00    +0.000 A 
ATOM     21  C   UNL     1       2.733   7.816  17.860  0.00  0.00    +0.000 A 
ATOM     22  C   UNL     1       1.996   6.668  18.182  0.00  0.00    +0.000 A 
ATOM     23  C   UNL     1       2.561   5.398  17.973  0.00  0.00    +0.000 A 
ATOM     24  C   UNL     1       2.149   4.073  18.287  0.00  0.00    +0.000 A 
ATOM     25  H   UNL     1       2.216   0.367  19.164  0.00  0.00    +0.000 HD
ATOM     26  H   UNL     1       5.040   3.596  17.011  0.00  0.00    +0.000 HD
ENDBRANCH   1  21
BRANCH   7  27
ATOM     27  C   UNL     1      -1.092  12.237  22.510  0.00  0.00    +0.000 C 
ATOM     28  O   UNL     1      -0.517  12.981  23.303  0.00  0.00    +0.000 OA
ATOM     29  N   UNL     1      -2.416  11.893  22.702  0.00  0.00    +0.000 N 
ATOM     30  H   UNL     1      -2.915  11.337  22.021  0.00  0.00    +0.000 HD
BRANCH  29  31
ATOM     31  C   UNL     1      -3.189  12.448  23.794  0.00  0.00    +0.000 C 
BRANCH  31  32
ATOM     32  C   UNL     1      -3.948  13.711  23.388  0.00  0.00    +0.000 C 
BRANCH  32  33
ATOM     33  C   UNL     1      -4.702  13.574  22.057  0.00  0.00    +0.000 C 
BRANCH  33  34
ATOM     34  N   UNL     1      -5.604  12.412  21.988  0.00  0.00    +0.000 NA
ATOM     35  C   UNL     1      -6.859  12.648  22.709  0.00  0.00    +0.000 C 
ATOM     36  C   UNL     1      -5.898  12.086  20.589  0.00  0.00    +0.000 C 
ENDBRANCH  33  34
ENDBRANCH  32  33
ENDBRANCH  31  32
ENDBRANCH  29  31
ENDBRANCH   7  27
TORSDOF 6
ENDMDL
MODEL 2
REMARK VINA RESULT:      -8.4      1.044      1.410
REMARK  Name = 
REMARK  9 active torsions:
REMARK  status: ('A' for Active; 'I' for Inactive)
REMARK    1  A    between atoms: C_1  and  C_2
REMARK    2  A    between atoms: C_12  and  C_13
REMARK    3  A    between atoms: C_19  and  C_20
REMARK    4  A    between atoms: N_22  and  C_23
REMARK    5  A    between atoms: C_23  and  C_24
REMARK    6  A    between atoms: C_24  and  C_25
REMARK    7  A    between atoms: C_25  and  N_26
REMARK    8  A    between atoms: N_26  and  C_27
REMARK    9  A    between atoms: N_26  and  C_28
REMARK                            x       y       z     vdW  Elec       q    Type
REMARK                         _______ _______ _______ _____ _____    ______ ____
ROOT
ATOM      1  C   UNL     1       2.199   9.073  18.108  0.00  0.00    +0.000 C 
ATOM      2  O   UNL     1       2.495  10.027  17.401  0.00  0.00    +0.000 OA
ATOM      3  N   UNL     1       1.412   9.092  19.235  0.00  0.00    +0.000 N 
ATOM      4  C   UNL     1       0.846  10.246  19.704  0.00  0.00    +0.000 A 
ATOM      5  N   UNL     1       0.737  11.418  19.136  0.00  0.00    +0.000 NA
ATOM      6  C   UNL     1       0.140  12.299  20.025  0.00  0.00    +0.000 A 
ATOM      7  C   UNL     1      -0.175  11.778  21.266  0.00  0.00    +0.000 A 
ATOM      8  S   UNL     1       0.214  10.098  21.276  0.00  0.00    +0.000 S 
ATOM      9  H   UNL     1       1.360   8.291  19.845  0.00  0.00    +0.000 HD
ENDROOT
BRANCH   1  21
ATOM     10  C   UNL     1       0.847   4.075  20.403  0.00  0.00    +0.000 C 
ATOM     11  C   UNL     1       0.941   3.540  18.974  0.00  0.00    +0.000 C 
ATOM     12  C   UNL     1       0.891   1.987  18.959  0.00  0.00    +0.000 C 
ATOM     13  N   UNL     1       2.188   1.318  19.025  0.00  0.00    +0.000 N 
ATOM     14  C   UNL     1       3.274   1.760  18.299  0.00  0.00    +0.000 C 
ATOM     15  O   UNL     1       4.210   1.020  18.023  0.00  0.00    +0.000 OA
ATOM     16  C   UNL     1       3.215   3.157  17.963  0.00  0.00    +0.000 A 
ATOM     17  N   UNL     1       4.198   3.884  17.347  0.00  0.00    +0.000 N 
ATOM     18  C   UNL     1       3.879   5.226  17.378  0.00  0.00    +0.000 A 
ATOM     19  C   UNL     1       4.627   6.346  16.992  0.00  0.00    +0.000 A 
ATOM     20  C   UNL     1       4.071   7.613  17.218  0.00  0.00    +0.000 A 
ATOM     21  C   UNL     1       2.795   7.746  17.781  0.00  0.00    +0.000 A 
ATOM     22  C   UNL     1       2.049   6.610  18.124  0.00  0.00    +0.000 A 
ATOM     23  C   UNL     1       2.605   5.331  17.941  0.00  0.00    +0.000 A 
ATOM     24  C   UNL     1       2.182   4.017  18.280  0.00  0.00    +0.000 A 
ATOM     25  H   UNL     1       2.219   0.328  19.231  0.00  0.00    +0.000 HD
ATOM     26  H   UNL     1       5.073   3.493  17.022  0.00  0.00    +0.000 HD
ENDBRANCH   1  21
BRANCH   7  27
ATOM     27  C   UNL     1      -0.730  12.379  22.461  0.00  0.00    +0.000 C 
ATOM     28  O   UNL     1      -1.207  11.722  23.385  0.00  0.00    +0.000 OA
ATOM     29  N   UNL     1      -0.678  13.758  22.533  0.00  0.00    +0.000 N 
ATOM     30  H   UNL     1      -0.228  14.301  21.811  0.00  0.00    +0.000 HD
BRANCH  29  31
ATOM     31  C   UNL     1      -1.115  14.469  23.718  0.00  0.00    +0.000 C 
BRANCH  31  32
ATOM     32  C   UNL     1      -2.500  15.093  23.545  0.00  0.00    +0.000 C 
BRANCH  32  33
ATOM     33  C   UNL     1      -3.520  14.624  24.593  0.00  0.00    +0.000 C 
BRANCH  33  34
ATOM     34  N   UNL     1      -4.546  13.704  24.071  0.00  0.00    +0.000 NA
ATOM     35  C   UNL     1      -4.457  13.552  22.616  0.00  0.00    +0.000 C 
ATOM     36  C   UNL     1      -4.415  12.391  24.709  0.00  0.00    +0.000 C 
ENDBRANCH  33  34
ENDBRANCH  32  33
ENDBRANCH  31  32
ENDBRANCH  29  31
ENDBRANCH   7  27
TORSDOF 6
ENDMDL
MODEL 3
REMARK VINA RESULT:      -8.1      1.093      1.426
REMARK  Name = 
REMARK  9 active torsions:
REMARK  status: ('A' for Active; 'I' for Inactive)
REMARK    1  A    between atoms: C_1  and  C_2
REMARK    2  A    between atoms: C_12  and  C_13
REMARK    3  A    between atoms: C_19  and  C_20
REMARK    4  A    between atoms: N_22  and  C_23
REMARK    5  A    between atoms: C_23  and  C_24
REMARK    6  A    between atoms: C_24  and  C_25
REMARK    7  A    between atoms: C_25  and  N_26
REMARK    8  A    between atoms: N_26  and  C_27
REMARK    9  A    between atoms: N_26  and  C_28
REMARK                            x       y       z     vdW  Elec       q    Type
REMARK                         _______ _______ _______ _____ _____    ______ ____
ROOT
ATOM      1  C   UNL     1       2.148   9.145  18.210  0.00  0.00    +0.000 C 
ATOM      2  O   UNL     1       2.515  10.132  17.584  0.00  0.00    +0.000 OA
ATOM      3  N   UNL     1       1.271   9.117  19.267  0.00  0.00    +0.000 N 
ATOM      4  C   UNL     1       0.683  10.254  19.753  0.00  0.00    +0.000 A 
ATOM      5  N   UNL     1       0.638  11.457  19.244  0.00  0.00    +0.000 NA
ATOM      6  C   UNL     1      -0.019  12.298  20.130  0.00  0.00    +0.000 A 
ATOM      7  C   UNL     1      -0.443  11.716  21.309  0.00  0.00    +0.000 A 
ATOM      8  S   UNL     1      -0.079  10.031  21.256  0.00  0.00    +0.000 S 
ATOM      9  H   UNL     1       1.158   8.285  19.825  0.00  0.00    +0.000 HD
ENDROOT
BRANCH   1  21
ATOM     10  C   UNL     1       0.822   4.100  20.412  0.00  0.00    +0.000 C 
ATOM     11  C   UNL     1       0.919   3.591  18.974  0.00  0.00    +0.000 C 
ATOM     12  C   UNL     1       0.878   2.038  18.930  0.00  0.00    +0.000 C 
ATOM     13  N   UNL     1       2.178   1.375  18.985  0.00  0.00    +0.000 N 
ATOM     14  C   UNL     1       3.262   1.836  18.268  0.00  0.00    +0.000 C 
ATOM     15  O   UNL     1       4.202   1.107  17.978  0.00  0.00    +0.000 OA
ATOM     16  C   UNL     1       3.195   3.238  17.957  0.00  0.00    +0.000 A 
ATOM     17  N   UNL     1       4.175   3.982  17.355  0.00  0.00    +0.000 N 
ATOM     18  C   UNL     1       3.848   5.322  17.410  0.00  0.00    +0.000 A 
ATOM     19  C   UNL     1       4.591   6.452  17.045  0.00  0.00    +0.000 A 
ATOM     20  C   UNL     1       4.028   7.712  17.294  0.00  0.00    +0.000 A 
ATOM     21  C   UNL     1       2.752   7.828  17.859  0.00  0.00    +0.000 A 
ATOM     22  C   UNL     1       2.011   6.682  18.180  0.00  0.00    +0.000 A 
ATOM     23  C   UNL     1       2.574   5.410  17.975  0.00  0.00    +0.000 A 
ATOM     24  C   UNL     1       2.158   4.087  18.290  0.00  0.00    +0.000 A 
ATOM     25  H   UNL     1       2.214   0.382  19.173  0.00  0.00    +0.000 HD
ATOM     26  H   UNL     1       5.052   3.602  17.023  0.00  0.00    +0.000 HD
ENDBRANCH   1  21
BRANCH   7  27
ATOM     27  C   UNL     1      -1.086  12.261  22.486  0.00  0.00    +0.000 C 
ATOM     28  O   UNL     1      -0.499  12.960  23.310  0.00  0.00    +0.000 OA
ATOM     29  N   UNL     1      -2.429  11.973  22.638  0.00  0.00    +0.000 N 
ATOM     30  H   UNL     1      -2.934  11.456  21.933  0.00  0.00    +0.000 HD
BRANCH  29  31
ATOM     31  C   UNL     1      -3.204  12.538  23.724  0.00  0.00    +0.000 C 
BRANCH  31  32
ATOM     32  C   UNL     1      -4.106  13.683  23.262  0.00  0.00    +0.000 C 
BRANCH  32  33
ATOM     33  C   UNL     1      -3.976  14.951  24.119  0.00  0.00    +0.000 C 
BRANCH  33  34
ATOM     34  N   UNL     1      -5.222  15.728  24.244  0.00  0.00    +0.000 NA
ATOM     35  C   UNL     1      -5.038  17.128  23.851  0.00  0.00    +0.000 C 
ATOM     36  C   UNL     1      -6.275  15.123  23.423  0.00  0.00    +0.000 C 
ENDBRANCH  33  34
ENDBRANCH  32  33
ENDBRANCH  31  32
ENDBRANCH  29  31
ENDBRANCH   7  27
TORSDOF 6
ENDMDL
MODEL 4
REMARK VINA RESULT:      -8.0      1.706      1.961
REMARK  Name = 
REMARK  9 active torsions:
REMARK  status: ('A' for Active; 'I' for Inactive)
REMARK    1  A    between atoms: C_1  and  C_2
REMARK    2  A    between atoms: C_12  and  C_13
REMARK    3  A    between atoms: C_19  and  C_20
REMARK    4  A    between atoms: N_22  and  C_23
REMARK    5  A    between atoms: C_23  and  C_24
REMARK    6  A    between atoms: C_24  and  C_25
REMARK    7  A    between atoms: C_25  and  N_26
REMARK    8  A    between atoms: N_26  and  C_27
REMARK    9  A    between atoms: N_26  and  C_28
REMARK                            x       y       z     vdW  Elec       q    Type
REMARK                         _______ _______ _______ _____ _____    ______ ____
ROOT
ATOM      1  C   UNL     1       2.185   9.066  18.147  0.00  0.00    +0.000 C 
ATOM      2  O   UNL     1       2.499  10.038  17.470  0.00  0.00    +0.000 OA
ATOM      3  N   UNL     1       1.379   9.061  19.259  0.00  0.00    +0.000 N 
ATOM      4  C   UNL     1       0.809  10.205  19.748  0.00  0.00    +0.000 A 
ATOM      5  N   UNL     1       0.716  11.392  19.208  0.00  0.00    +0.000 NA
ATOM      6  C   UNL     1       0.107  12.252  20.109  0.00  0.00    +0.000 A 
ATOM      7  C   UNL     1      -0.233  11.702  21.331  0.00  0.00    +0.000 A 
ATOM      8  S   UNL     1       0.148  10.019  21.304  0.00  0.00    +0.000 S 
ATOM      9  H   UNL     1       1.313   8.244  19.847  0.00  0.00    +0.000 HD
ENDROOT
BRANCH   1  21
ATOM     10  C   UNL     1       0.878   4.038  20.399  0.00  0.00    +0.000 C 
ATOM     11  C   UNL     1       0.956   3.519  18.963  0.00  0.00    +0.000 C 
ATOM     12  C   UNL     1       0.911   1.967  18.929  0.00  0.00    +0.000 C 
ATOM     13  N   UNL     1       2.211   1.301  18.971  0.00  0.00    +0.000 N 
ATOM     14  C   UNL     1       3.287   1.755  18.237  0.00  0.00    +0.000 C 
ATOM     15  O   UNL     1       4.221   1.022  17.940  0.00  0.00    +0.000 OA
ATOM     16  C   UNL     1       3.218   3.156  17.918  0.00  0.00    +0.000 A 
ATOM     17  N   UNL     1       4.192   3.894  17.299  0.00  0.00    +0.000 N 
ATOM     18  C   UNL     1       3.868   5.235  17.350  0.00  0.00    +0.000 A 
ATOM     19  C   UNL     1       4.608   6.361  16.967  0.00  0.00    +0.000 A 
ATOM     20  C   UNL     1       4.050   7.624  17.216  0.00  0.00    +0.000 A 
ATOM     21  C   UNL     1       2.782   7.746  17.797  0.00  0.00    +0.000 A 
ATOM     22  C   UNL     1       2.043   6.603  18.135  0.00  0.00    +0.000 A 
ATOM     23  C   UNL     1       2.601   5.329  17.930  0.00  0.00    +0.000 A 
ATOM     24  C   UNL     1       2.187   4.009  18.259  0.00  0.00    +0.000 A 
ATOM     25  H   UNL     1       2.248   0.310  19.165  0.00  0.00    +0.000 HD
ATOM     26  H   UNL     1       5.063   3.510  16.958  0.00  0.00    +0.000 HD
ENDBRANCH   1  21
BRANCH   7  27
ATOM     27  C   UNL     1      -0.806  12.274  22.530  0.00  0.00    +0.000 C 
ATOM     28  O   UNL     1      -1.229  11.594  23.464  0.00  0.00    +0.000 OA
ATOM     29  N   UNL     1      -0.838  13.655  22.595  0.00  0.00    +0.000 N 
ATOM     30  H   UNL     1      -0.432  14.220  21.863  0.00  0.00    +0.000 HD
BRANCH  29  31
ATOM     31  C   UNL     1      -1.301  14.344  23.782  0.00  0.00    +0.000 C 
BRANCH  31  32
ATOM     32  C   UNL     1      -1.903  15.713  23.464  0.00  0.00    +0.000 C 
BRANCH  32  33
ATOM     33  C   UNL     1      -2.631  16.356  24.653  0.00  0.00    +0.000 C 
BRANCH  33  34
ATOM     34  N   UNL     1      -4.096  16.202  24.622  0.00  0.00    +0.000 NA
ATOM     35  C   UNL     1      -4.782  17.362  25.196  0.00  0.00    +0.000 C 
ATOM     36  C   UNL     1      -4.550  15.997  23.244  0.00  0.00    +0.000 C 
ENDBRANCH  33  34
ENDBRANCH  32  33
ENDBRANCH  31  32
ENDBRANCH  29  31
ENDBRANCH   7  27
TORSDOF 6
ENDMDL
MODEL 5
REMARK VINA RESULT:      -7.9      2.063      3.064
REMARK  Name = 
REMARK  9 active torsions:
REMARK  status: ('A' for Active; 'I' for Inactive)
REMARK    1  A    between atoms: C_1  and  C_2
REMARK    2  A    between atoms: C_12  and  C_13
REMARK    3  A    between atoms: C_19  and  C_20
REMARK    4  A    between atoms: N_22  and  C_23
REMARK    5  A    between atoms: C_23  and  C_24
REMARK    6  A    between atoms: C_24  and  C_25
REMARK    7  A    between atoms: C_25  and  N_26
REMARK    8  A    between atoms: N_26  and  C_27
REMARK    9  A    between atoms: N_26  and  C_28
REMARK                            x       y       z     vdW  Elec       q    Type
REMARK                         _______ _______ _______ _____ _____    ______ ____
ROOT
ATOM      1  C   UNL     1       2.196   9.070  18.134  0.00  0.00    +0.000 C 
ATOM      2  O   UNL     1       2.510  10.038  17.453  0.00  0.00    +0.000 OA
ATOM      3  N   UNL     1       1.392   9.070  19.248  0.00  0.00    +0.000 N 
ATOM      4  C   UNL     1       0.827  10.217  19.734  0.00  0.00    +0.000 A 
ATOM      5  N   UNL     1       0.735  11.402  19.191  0.00  0.00    +0.000 NA
ATOM      6  C   UNL     1       0.130  12.267  20.090  0.00  0.00    +0.000 A 
ATOM      7  C   UNL     1      -0.208  11.722  21.314  0.00  0.00    +0.000 A 
ATOM      8  S   UNL     1       0.170  10.039  21.293  0.00  0.00    +0.000 S 
ATOM      9  H   UNL     1       1.326   8.256  19.840  0.00  0.00    +0.000 HD
ENDROOT
BRANCH   1  21
ATOM     10  C   UNL     1       0.870   4.050  20.394  0.00  0.00    +0.000 C 
ATOM     11  C   UNL     1       0.948   3.528  18.959  0.00  0.00    +0.000 C 
ATOM     12  C   UNL     1       0.898   1.976  18.928  0.00  0.00    +0.000 C 
ATOM     13  N   UNL     1       2.196   1.306  18.973  0.00  0.00    +0.000 N 
ATOM     14  C   UNL     1       3.274   1.755  18.239  0.00  0.00    +0.000 C 
ATOM     15  O   UNL     1       4.206   1.019  17.945  0.00  0.00    +0.000 OA
ATOM     16  C   UNL     1       3.210   3.155  17.918  0.00  0.00    +0.000 A 
ATOM     17  N   UNL     1       4.187   3.889  17.298  0.00  0.00    +0.000 N 
ATOM     18  C   UNL     1       3.868   5.231  17.346  0.00  0.00    +0.000 A 
ATOM     19  C   UNL     1       4.612   6.354  16.962  0.00  0.00    +0.000 A 
ATOM     20  C   UNL     1       4.058   7.619  17.208  0.00  0.00    +0.000 A 
ATOM     21  C   UNL     1       2.789   7.747  17.787  0.00  0.00    +0.000 A 
ATOM     22  C   UNL     1       2.046   6.607  18.126  0.00  0.00    +0.000 A 
ATOM     23  C   UNL     1       2.600   5.330  17.925  0.00  0.00    +0.000 A 
ATOM     24  C   UNL     1       2.181   4.012  18.256  0.00  0.00    +0.000 A 
ATOM     25  H   UNL     1       2.229   0.315  19.169  0.00  0.00    +0.000 HD
ATOM     26  H   UNL     1       5.057   3.502  16.959  0.00  0.00    +0.000 HD
ENDBRANCH   1  21
BRANCH   7  27
ATOM     27  C   UNL     1      -0.776  12.300  22.513  0.00  0.00    +0.000 C 
ATOM     28  O   UNL     1      -1.198  11.625  23.451  0.00  0.00    +0.000 OA
ATOM     29  N   UNL     1      -0.807  13.681  22.572  0.00  0.00    +0.000 N 
ATOM     30  H   UNL     1      -0.403  14.243  21.837  0.00  0.00    +0.000 HD
BRANCH  29  31
ATOM     31  C   UNL     1      -1.265  14.376  23.758  0.00  0.00    +0.000 C 
BRANCH  31  32
ATOM     32  C   UNL     1      -1.261  15.895  23.581  0.00  0.00    +0.000 C 
BRANCH  32  33
ATOM     33  C   UNL     1       0.093  16.547  23.898  0.00  0.00    +0.000 C 
BRANCH  33  34
ATOM     34  N   UNL     1       1.167  16.204  22.950  0.00  0.00    +0.000 NA
ATOM     35  C   UNL     1       0.845  16.621  21.582  0.00  0.00    +0.000 C 
ATOM     36  C   UNL     1       2.425  16.830  23.369  0.00  0.00    +0.000 C 
ENDBRANCH  33  34
ENDBRANCH  32  33
ENDBRANCH  31  32
ENDBRANCH  29  31
ENDBRANCH   7  27
TORSDOF 6
ENDMDL
MODEL 6
REMARK VINA RESULT:      -7.9      0.903      1.145
REMARK  Name = 
REMARK  9 active torsions:
REMARK  status: ('A' for Active; 'I' for Inactive)
REMARK    1  A    between atoms: C_1  and  C_2
REMARK    2  A    between atoms: C_12  and  C_13
REMARK    3  A    between atoms: C_19  and  C_20
REMARK    4  A    between atoms: N_22  and  C_23
REMARK    5  A    between atoms: C_23  and  C_24
REMARK    6  A    between atoms: C_24  and  C_25
REMARK    7  A    between atoms: C_25  and  N_26
REMARK    8  A    between atoms: N_26  and  C_27
REMARK    9  A    between atoms: N_26  and  C_28
REMARK                            x       y       z     vdW  Elec       q    Type
REMARK                         _______ _______ _______ _____ _____    ______ ____
ROOT
ATOM      1  C   UNL     1       2.309   9.147  18.016  0.00  0.00    +0.000 C 
ATOM      2  O   UNL     1       2.844  10.127  17.512  0.00  0.00    +0.000 OA
ATOM      3  N   UNL     1       1.261   9.146  18.906  0.00  0.00    +0.000 N 
ATOM      4  C   UNL     1       0.676  10.304  19.339  0.00  0.00    +0.000 A 
ATOM      5  N   UNL     1       0.801  11.525  18.891  0.00  0.00    +0.000 NA
ATOM      6  C   UNL     1       0.058  12.379  19.692  0.00  0.00    +0.000 A 
ATOM      7  C   UNL     1      -0.603  11.787  20.752  0.00  0.00    +0.000 A 
ATOM      8  S   UNL     1      -0.349  10.082  20.678  0.00  0.00    +0.000 S 
ATOM      9  H   UNL     1       0.998   8.303  19.394  0.00  0.00    +0.000 HD
ENDROOT
BRANCH   1  21
ATOM     10  C   UNL     1       0.882   4.224  20.423  0.00  0.00    +0.000 C 
ATOM     11  C   UNL     1       0.949   3.659  19.005  0.00  0.00    +0.000 C 
ATOM     12  C   UNL     1       0.868   2.108  19.020  0.00  0.00    +0.000 C 
ATOM     13  N   UNL     1       2.152   1.414  19.085  0.00  0.00    +0.000 N 
ATOM     14  C   UNL     1       3.238   1.819  18.339  0.00  0.00    +0.000 C 
ATOM     15  O   UNL     1       4.156   1.055  18.066  0.00  0.00    +0.000 OA
ATOM     16  C   UNL     1       3.203   3.210  17.976  0.00  0.00    +0.000 A 
ATOM     17  N   UNL     1       4.194   3.905  17.335  0.00  0.00    +0.000 N 
ATOM     18  C   UNL     1       3.902   5.254  17.343  0.00  0.00    +0.000 A 
ATOM     19  C   UNL     1       4.669   6.350  16.926  0.00  0.00    +0.000 A 
ATOM     20  C   UNL     1       4.140   7.633  17.134  0.00  0.00    +0.000 A 
ATOM     21  C   UNL     1       2.875   7.803  17.709  0.00  0.00    +0.000 A 
ATOM     22  C   UNL     1       2.109   6.689  18.082  0.00  0.00    +0.000 A 
ATOM     23  C   UNL     1       2.637   5.396  17.918  0.00  0.00    +0.000 A 
ATOM     24  C   UNL     1       2.191   4.097  18.288  0.00  0.00    +0.000 A 
ATOM     25  H   UNL     1       2.165   0.428  19.310  0.00  0.00    +0.000 HD
ATOM     26  H   UNL     1       5.056   3.490  17.008  0.00  0.00    +0.000 HD
ENDBRANCH   1  21
BRANCH   7  27
ATOM     27  C   UNL     1      -1.403  12.334  21.827  0.00  0.00    +0.000 C 
ATOM     28  O   UNL     1      -1.502  11.799  22.931  0.00  0.00    +0.000 OA
ATOM     29  N   UNL     1      -2.052  13.526  21.563  0.00  0.00    +0.000 N 
ATOM     30  H   UNL     1      -1.923  14.005  20.683  0.00  0.00    +0.000 HD
BRANCH  29  31
ATOM     31  C   UNL     1      -2.805  14.218  22.588  0.00  0.00    +0.000 C 
BRANCH  31  32
ATOM     32  C   UNL     1      -4.304  14.248  22.289  0.00  0.00    +0.000 C 
BRANCH  32  33
ATOM     33  C   UNL     1      -4.977  12.871  22.382  0.00  0.00    +0.000 C 
BRANCH  33  34
ATOM     34  N   UNL     1      -5.765  12.662  23.610  0.00  0.00    +0.000 NA
ATOM     35  C   UNL     1      -4.925  12.237  24.734  0.00  0.00    +0.000 C 
ATOM     36  C   UNL     1      -6.473  13.895  23.967  0.00  0.00    +0.000 C 
ENDBRANCH  33  34
ENDBRANCH  32  33
ENDBRANCH  31  32
ENDBRANCH  29  31
ENDBRANCH   7  27
TORSDOF 6
ENDMDL
MODEL 7
REMARK VINA RESULT:      -7.9      3.709     11.410
REMARK  Name = 
REMARK  9 active torsions:
REMARK  status: ('A' for Active; 'I' for Inactive)
REMARK    1  A    between atoms: C_1  and  C_2
REMARK    2  A    between atoms: C_12  and  C_13
REMARK    3  A    between atoms: C_19  and  C_20
REMARK    4  A    between atoms: N_22  and  C_23
REMARK    5  A    between atoms: C_23  and  C_24
REMARK    6  A    between atoms: C_24  and  C_25
REMARK    7  A    between atoms: C_25  and  N_26
REMARK    8  A    between atoms: N_26  and  C_27
REMARK    9  A    between atoms: N_26  and  C_28
REMARK                            x       y       z     vdW  Elec       q    Type
REMARK                         _______ _______ _______ _____ _____    ______ ____
ROOT
ATOM      1  C   UNL     1       1.041   9.009  19.715  0.00  0.00    +0.000 C 
ATOM      2  O   UNL     1       0.847   8.543  20.831  0.00  0.00    +0.000 OA
ATOM      3  N   UNL     1       1.864   8.500  18.740  0.00  0.00    +0.000 N 
ATOM      4  C   UNL     1       2.589   7.355  18.927  0.00  0.00    +0.000 A 
ATOM      5  N   UNL     1       2.504   6.454  19.871  0.00  0.00    +0.000 NA
ATOM      6  C   UNL     1       3.492   5.500  19.675  0.00  0.00    +0.000 A 
ATOM      7  C   UNL     1       4.324   5.709  18.592  0.00  0.00    +0.000 A 
ATOM      8  S   UNL     1       3.782   7.109  17.741  0.00  0.00    +0.000 S 
ATOM      9  H   UNL     1       2.089   9.040  17.919  0.00  0.00    +0.000 HD
ENDROOT
BRANCH   1  21
ATOM     10  C   UNL     1       3.313  14.181  20.095  0.00  0.00    +0.000 C 
ATOM     11  C   UNL     1       2.639  14.436  18.747  0.00  0.00    +0.000 C 
ATOM     12  C   UNL     1       2.704  15.941  18.368  0.00  0.00    +0.000 C 
ATOM     13  N   UNL     1       1.565  16.746  18.803  0.00  0.00    +0.000 N 
ATOM     14  C   UNL     1       0.267  16.291  18.696  0.00  0.00    +0.000 C 
ATOM     15  O   UNL     1      -0.686  17.059  18.665  0.00  0.00    +0.000 OA
ATOM     16  C   UNL     1       0.158  14.857  18.684  0.00  0.00    +0.000 A 
ATOM     17  N   UNL     1      -1.006  14.134  18.697  0.00  0.00    +0.000 N 
ATOM     18  C   UNL     1      -0.725  12.797  18.893  0.00  0.00    +0.000 A 
ATOM     19  C   UNL     1      -1.586  11.712  19.101  0.00  0.00    +0.000 A 
ATOM     20  C   UNL     1      -1.007  10.460  19.359  0.00  0.00    +0.000 A 
ATOM     21  C   UNL     1       0.385  10.302  19.372  0.00  0.00    +0.000 A 
ATOM     22  C   UNL     1       1.225  11.396  19.122  0.00  0.00    +0.000 A 
ATOM     23  C   UNL     1       0.665  12.667  18.901  0.00  0.00    +0.000 A 
ATOM     24  C   UNL     1       1.214  13.969  18.739  0.00  0.00    +0.000 A 
ATOM     25  H   UNL     1       1.640  17.754  18.779  0.00  0.00    +0.000 HD
ATOM     26  H   UNL     1      -1.929  14.546  18.675  0.00  0.00    +0.000 HD
ENDBRANCH   1  21
BRANCH   7  27
ATOM     27  C   UNL     1       5.486   4.996  18.106  0.00  0.00    +0.000 C 
ATOM     28  O   UNL     1       6.144   4.227  18.806  0.00  0.00    +0.000 OA
ATOM     29  N   UNL     1       5.822   5.203  16.782  0.00  0.00    +0.000 N 
ATOM     30  H   UNL     1       5.249   5.780  16.183  0.00  0.00    +0.000 HD
BRANCH  29  31
ATOM     31  C   UNL     1       6.907   4.475  16.155  0.00  0.00    +0.000 C 
BRANCH  31  32
ATOM     32  C   UNL     1       6.905   4.622  14.633  0.00  0.00    +0.000 C 
BRANCH  32  33
ATOM     33  C   UNL     1       5.695   3.963  13.955  0.00  0.00    +0.000 C 
BRANCH  33  34
ATOM     34  N   UNL     1       5.998   3.330  12.659  0.00  0.00    +0.000 NA
ATOM     35  C   UNL     1       4.818   3.265  11.791  0.00  0.00    +0.000 C 
ATOM     36  C   UNL     1       7.066   4.066  11.978  0.00  0.00    +0.000 C 
ENDBRANCH  33  34
ENDBRANCH  32  33
ENDBRANCH  31  32
ENDBRANCH  29  31
ENDBRANCH   7  27
TORSDOF 6
ENDMDL
MODEL 8
REMARK VINA RESULT:      -7.8      2.007      2.503
REMARK  Name = 
REMARK  9 active torsions:
REMARK  status: ('A' for Active; 'I' for Inactive)
REMARK    1  A    between atoms: C_1  and  C_2
REMARK    2  A    between atoms: C_12  and  C_13
REMARK    3  A    between atoms: C_19  and  C_20
REMARK    4  A    between atoms: N_22  and  C_23
REMARK    5  A    between atoms: C_23  and  C_24
REMARK    6  A    between atoms: C_24  and  C_25
REMARK    7  A    between atoms: C_25  and  N_26
REMARK    8  A    between atoms: N_26  and  C_27
REMARK    9  A    between atoms: N_26  and  C_28
REMARK                            x       y       z     vdW  Elec       q    Type
REMARK                         _______ _______ _______ _____ _____    ______ ____
ROOT
ATOM      1  C   UNL     1       2.147   9.090  18.137  0.00  0.00    +0.000 C 
ATOM      2  O   UNL     1       2.444  10.059  17.450  0.00  0.00    +0.000 OA
ATOM      3  N   UNL     1       1.355   9.085  19.260  0.00  0.00    +0.000 N 
ATOM      4  C   UNL     1       0.783  10.227  19.749  0.00  0.00    +0.000 A 
ATOM      5  N   UNL     1       0.673  11.410  19.203  0.00  0.00    +0.000 NA
ATOM      6  C   UNL     1       0.068  12.271  20.106  0.00  0.00    +0.000 A 
ATOM      7  C   UNL     1      -0.251  11.726  21.335  0.00  0.00    +0.000 A 
ATOM      8  S   UNL     1       0.143  10.047  21.314  0.00  0.00    +0.000 S 
ATOM      9  H   UNL     1       1.303   8.271  19.854  0.00  0.00    +0.000 HD
ENDROOT
BRANCH   1  21
ATOM     10  C   UNL     1       0.870   4.058  20.399  0.00  0.00    +0.000 C 
ATOM     11  C   UNL     1       0.948   3.537  18.964  0.00  0.00    +0.000 C 
ATOM     12  C   UNL     1       0.912   1.984  18.932  0.00  0.00    +0.000 C 
ATOM     13  N   UNL     1       2.215   1.326  18.973  0.00  0.00    +0.000 N 
ATOM     14  C   UNL     1       3.287   1.785  18.236  0.00  0.00    +0.000 C 
ATOM     15  O   UNL     1       4.225   1.056  17.938  0.00  0.00    +0.000 OA
ATOM     16  C   UNL     1       3.210   3.184  17.915  0.00  0.00    +0.000 A 
ATOM     17  N   UNL     1       4.179   3.926  17.293  0.00  0.00    +0.000 N 
ATOM     18  C   UNL     1       3.849   5.265  17.343  0.00  0.00    +0.000 A 
ATOM     19  C   UNL     1       4.582   6.395  16.957  0.00  0.00    +0.000 A 
ATOM     20  C   UNL     1       4.018   7.656  17.205  0.00  0.00    +0.000 A 
ATOM     21  C   UNL     1       2.750   7.772  17.788  0.00  0.00    +0.000 A 
ATOM     22  C   UNL     1       2.018   6.626  18.129  0.00  0.00    +0.000 A 
ATOM     23  C   UNL     1       2.582   5.354  17.925  0.00  0.00    +0.000 A 
ATOM     24  C   UNL     1       2.175   4.032  18.257  0.00  0.00    +0.000 A 
ATOM     25  H   UNL     1       2.257   0.335  19.168  0.00  0.00    +0.000 HD
ATOM     26  H   UNL     1       5.052   3.546  16.951  0.00  0.00    +0.000 HD
ENDBRANCH   1  21
BRANCH   7  27
ATOM     27  C   UNL     1      -0.814  12.302  22.538  0.00  0.00    +0.000 C 
ATOM     28  O   UNL     1      -1.250  11.624  23.468  0.00  0.00    +0.000 OA
ATOM     29  N   UNL     1      -0.820  13.682  22.611  0.00  0.00    +0.000 N 
ATOM     30  H   UNL     1      -0.404  14.244  21.883  0.00  0.00    +0.000 HD
BRANCH  29  31
ATOM     31  C   UNL     1      -1.270  14.373  23.803  0.00  0.00    +0.000 C 
BRANCH  31  32
ATOM     32  C   UNL     1      -1.220  15.893  23.649  0.00  0.00    +0.000 C 
BRANCH  32  33
ATOM     33  C   UNL     1      -2.040  16.418  22.461  0.00  0.00    +0.000 C 
BRANCH  33  34
ATOM     34  N   UNL     1      -1.259  17.197  21.484  0.00  0.00    +0.000 NA
ATOM     35  C   UNL     1       0.042  17.606  22.021  0.00  0.00    +0.000 C 
ATOM     36  C   UNL     1      -1.060  16.414  20.261  0.00  0.00    +0.000 C 
ENDBRANCH  33  34
ENDBRANCH  32  33
ENDBRANCH  31  32
ENDBRANCH  29  31
ENDBRANCH   7  27
TORSDOF 6
ENDMDL
MODEL 9
REMARK VINA RESULT:      -7.5      2.554     10.044
REMARK  Name = 
REMARK  9 active torsions:
REMARK  status: ('A' for Active; 'I' for Inactive)
REMARK    1  A    between atoms: C_1  and  C_2
REMARK    2  A    between atoms: C_12  and  C_13
REMARK    3  A    between atoms: C_19  and  C_20
REMARK    4  A    between atoms: N_22  and  C_23
REMARK    5  A    between atoms: C_23  and  C_24
REMARK    6  A    between atoms: C_24  and  C_25
REMARK    7  A    between atoms: C_25  and  N_26
REMARK    8  A    between atoms: N_26  and  C_27
REMARK    9  A    between atoms: N_26  and  C_28
REMARK                            x       y       z     vdW  Elec       q    Type
REMARK                         _______ _______ _______ _____ _____    ______ ____
ROOT
ATOM      1  C   UNL     1       1.471   9.696  18.401  0.00  0.00    +0.000 C 
ATOM      2  O   UNL     1       1.873  10.104  17.319  0.00  0.00    +0.000 OA
ATOM      3  N   UNL     1       1.866   8.551  19.050  0.00  0.00    +0.000 N 
ATOM      4  C   UNL     1       2.805   7.707  18.524  0.00  0.00    +0.000 A 
ATOM      5  N   UNL     1       3.620   7.882  17.517  0.00  0.00    +0.000 NA
ATOM      6  C   UNL     1       4.348   6.718  17.316  0.00  0.00    +0.000 A 
ATOM      7  C   UNL     1       4.053   5.670  18.167  0.00  0.00    +0.000 A 
ATOM      8  S   UNL     1       2.882   6.204  19.316  0.00  0.00    +0.000 S 
ATOM      9  H   UNL     1       1.361   8.210  19.853  0.00  0.00    +0.000 HD
ENDROOT
BRANCH   1  21
ATOM     10  C   UNL     1      -3.478  11.295  16.160  0.00  0.00    +0.000 C 
ATOM     11  C   UNL     1      -4.075  10.869  17.501  0.00  0.00    +0.000 C 
ATOM     12  C   UNL     1      -5.556  11.325  17.619  0.00  0.00    +0.000 C 
ATOM     13  N   UNL     1      -5.761  12.636  18.231  0.00  0.00    +0.000 N 
ATOM     14  C   UNL     1      -5.056  13.038  19.346  0.00  0.00    +0.000 C 
ATOM     15  O   UNL     1      -5.475  13.914  20.093  0.00  0.00    +0.000 OA
ATOM     16  C   UNL     1      -3.789  12.377  19.497  0.00  0.00    +0.000 A 
ATOM     17  N   UNL     1      -2.838  12.656  20.443  0.00  0.00    +0.000 N 
ATOM     18  C   UNL     1      -1.674  11.973  20.154  0.00  0.00    +0.000 A 
ATOM     19  C   UNL     1      -0.410  12.040  20.756  0.00  0.00    +0.000 A 
ATOM     20  C   UNL     1       0.624  11.281  20.189  0.00  0.00    +0.000 A 
ATOM     21  C   UNL     1       0.386  10.460  19.080  0.00  0.00    +0.000 A 
ATOM     22  C   UNL     1      -0.897  10.379  18.519  0.00  0.00    +0.000 A 
ATOM     23  C   UNL     1      -1.938  11.163  19.048  0.00  0.00    +0.000 A 
ATOM     24  C   UNL     1      -3.284  11.403  18.659  0.00  0.00    +0.000 A 
ATOM     25  H   UNL     1      -6.666  13.079  18.147  0.00  0.00    +0.000 HD
ATOM     26  H   UNL     1      -2.952  13.344  21.176  0.00  0.00    +0.000 HD
ENDBRANCH   1  21
BRANCH   7  27
ATOM     27  C   UNL     1       4.532   4.305  18.232  0.00  0.00    +0.000 C 
ATOM     28  O   UNL     1       5.590   3.989  18.774  0.00  0.00    +0.000 OA
ATOM     29  N   UNL     1       3.717   3.343  17.665  0.00  0.00    +0.000 N 
ATOM     30  H   UNL     1       2.817   3.585  17.278  0.00  0.00    +0.000 HD
BRANCH  29  31
ATOM     31  C   UNL     1       4.043   1.934  17.750  0.00  0.00    +0.000 C 
BRANCH  31  32
ATOM     32  C   UNL     1       3.395   1.258  18.958  0.00  0.00    +0.000 C 
BRANCH  32  33
ATOM     33  C   UNL     1       1.989   1.787  19.278  0.00  0.00    +0.000 C 
BRANCH  33  34
ATOM     34  N   UNL     1       1.969   2.941  20.194  0.00  0.00    +0.000 NA
ATOM     35  C   UNL     1       0.664   3.607  20.210  0.00  0.00    +0.000 C 
ATOM     36  C   UNL     1       2.315   2.509  21.552  0.00  0.00    +0.000 C 
ENDBRANCH  33  34
ENDBRANCH  32  33
ENDBRANCH  31  32
ENDBRANCH  29  31
ENDBRANCH   7  27
TORSDOF 6
ENDMDL
