MODEL 1
REMARK VINA RESULT:      -7.9      0.000      0.000
REMARK  Name = 
REMARK  8 active torsions:
REMARK  status: ('A' for Active; 'I' for Inactive)
REMARK    1  A    between atoms: C_1  and  O_2
REMARK    2  A    between atoms: O_2  and  C_3
REMARK    3  A    between atoms: C_12  and  C_13
REMARK    4  A    between atoms: C_13  and  N_14
REMARK    5  A    between atoms: N_14  and  C_15
REMARK    6  A    between atoms: N_14  and  C_16
REMARK    7  A    between atoms: C_16  and  C_17
REMARK    8  A    between atoms: C_17  and  C_18
REMARK                            x       y       z     vdW  Elec       q    Type
REMARK                         _______ _______ _______ _____ _____    ______ ____
ROOT
ATOM      1  C   UNL     1       5.706   6.020  18.262  0.00  0.00    +0.000 C 
ENDROOT
BRANCH   1  11
ATOM      2  C   UNL     1       2.118   3.230  19.406  0.00  0.00    +0.000 A 
ATOM      3  C   UNL     1       2.541   2.059  18.772  0.00  0.00    +0.000 A 
ATOM      4  C   UNL     1       3.546   2.105  17.807  0.00  0.00    +0.000 A 
ATOM      5  C   UNL     1       4.117   3.323  17.448  0.00  0.00    +0.000 A 
ATOM      6  C   UNL     1       3.685   4.521  18.037  0.00  0.00    +0.000 A 
ATOM      7  C   UNL     1       2.679   4.473  19.034  0.00  0.00    +0.000 A 
ATOM      8  C   UNL     1       2.128   5.737  19.666  0.00  0.00    +0.000 C 
ATOM      9  C   UNL     1       2.893   7.003  19.303  0.00  0.00    +0.000 C 
ATOM     10  C   UNL     1       3.279   6.960  17.832  0.00  0.00    +0.000 C 
ATOM     11  C   UNL     1       4.308   5.850  17.581  0.00  0.00    +0.000 C 
BRANCH   2  13
ATOM     12  C   UNL     1       1.440   2.624  21.591  0.00  0.00    +0.000 C 
ATOM     13  O   UNL     1       1.132   3.265  20.357  0.00  0.00    +0.000 OA
ENDBRANCH   2  13
ENDBRANCH   1  11
BRANCH   1  14
ATOM     14  N   UNL     1       6.936   6.136  17.430  0.00  0.00    +0.000 NA
ATOM     15  C   UNL     1       6.739   5.682  16.051  0.00  0.00    +0.000 C 
BRANCH  14  16
ATOM     16  C   UNL     1       7.407   7.546  17.388  0.00  0.00    +0.000 C 
BRANCH  16  17
ATOM     17  C   UNL     1       8.336   7.932  18.547  0.00  0.00    +0.000 C 
BRANCH  17  18
ATOM     18  C   UNL     1       8.640   9.411  18.564  0.00  0.00    +0.000 A 
ATOM     19  C   UNL     1       8.087  10.263  17.611  0.00  0.00    +0.000 A 
ATOM     20  C   UNL     1       8.394  11.625  17.601  0.00  0.00    +0.000 A 
ATOM     21  C   UNL     1       9.272  12.135  18.574  0.00  0.00    +0.000 A 
ATOM     22  S   UNL     1       9.807  13.764  18.744  0.00  0.00    +0.000 S 
ATOM     23  C   UNL     1      10.769  13.386  20.101  0.00  0.00    +0.000 A 
ATOM     24  C   UNL     1      10.689  12.055  20.434  0.00  0.00    +0.000 A 
ATOM     25  C   UNL     1       9.830  11.311  19.555  0.00  0.00    +0.000 A 
ATOM     26  C   UNL     1       9.495   9.937  19.545  0.00  0.00    +0.000 A 
ENDBRANCH  17  18
ENDBRANCH  16  17
ENDBRANCH  14  16
ENDBRANCH   1  14
TORSDOF 6
ENDMDL
MODEL 2
REMARK VINA RESULT:      -7.6      4.325      7.052
REMARK  Name = 
REMARK  8 active torsions:
REMARK  status: ('A' for Active; 'I' for Inactive)
REMARK    1  A    between atoms: C_1  and  O_2
REMARK    2  A    between atoms: O_2  and  C_3
REMARK    3  A    between atoms: C_12  and  C_13
REMARK    4  A    between atoms: C_13  and  N_14
REMARK    5  A    between atoms: N_14  and  C_15
REMARK    6  A    between atoms: N_14  and  C_16
REMARK    7  A    between atoms: C_16  and  C_17
REMARK    8  A    between atoms: C_17  and  C_18
REMARK                            x       y       z     vdW  Elec       q    Type
REMARK                         _______ _______ _______ _____ _____    ______ ____
ROOT
ATOM      1  C   UNL     1       4.658   5.688  19.118  0.00  0.00    +0.000 C 
ENDROOT
BRANCH   1  11
ATOM      2  C   UNL     1       6.898   4.970  15.063  0.00  0.00    +0.000 A 
ATOM      3  C   UNL     1       6.147   3.892  14.588  0.00  0.00    +0.000 A 
ATOM      4  C   UNL     1       5.320   3.176  15.450  0.00  0.00    +0.000 A 
ATOM      5  C   UNL     1       5.254   3.513  16.800  0.00  0.00    +0.000 A 
ATOM      6  C   UNL     1       6.027   4.565  17.316  0.00  0.00    +0.000 A 
ATOM      7  C   UNL     1       6.853   5.307  16.436  0.00  0.00    +0.000 A 
ATOM      8  C   UNL     1       7.755   6.416  16.941  0.00  0.00    +0.000 C 
ATOM      9  C   UNL     1       7.527   6.792  18.399  0.00  0.00    +0.000 C 
ATOM     10  C   UNL     1       7.291   5.533  19.219  0.00  0.00    +0.000 C 
ATOM     11  C   UNL     1       5.962   4.876  18.819  0.00  0.00    +0.000 C 
BRANCH   2  13
ATOM     12  C   UNL     1       7.909   5.254  12.943  0.00  0.00    +0.000 C 
ATOM     13  O   UNL     1       7.738   5.716  14.278  0.00  0.00    +0.000 OA
ENDBRANCH   2  13
ENDBRANCH   1  11
BRANCH   1  14
ATOM     14  N   UNL     1       3.326   5.033  19.009  0.00  0.00    +0.000 NA
ATOM     15  C   UNL     1       2.718   4.754  20.313  0.00  0.00    +0.000 C 
BRANCH  14  16
ATOM     16  C   UNL     1       2.385   5.886  18.236  0.00  0.00    +0.000 C 
BRANCH  16  17
ATOM     17  C   UNL     1       2.869   7.329  18.032  0.00  0.00    +0.000 C 
BRANCH  17  18
ATOM     18  C   UNL     1       1.972   8.331  18.719  0.00  0.00    +0.000 A 
ATOM     19  C   UNL     1       1.431   9.404  18.014  0.00  0.00    +0.000 A 
ATOM     20  C   UNL     1       0.631  10.353  18.654  0.00  0.00    +0.000 A 
ATOM     21  C   UNL     1       0.368  10.211  20.028  0.00  0.00    +0.000 A 
ATOM     22  S   UNL     1      -0.568  11.261  21.025  0.00  0.00    +0.000 S 
ATOM     23  C   UNL     1      -0.299  10.306  22.412  0.00  0.00    +0.000 A 
ATOM     24  C   UNL     1       0.478   9.206  22.138  0.00  0.00    +0.000 A 
ATOM     25  C   UNL     1       0.880   9.137  20.761  0.00  0.00    +0.000 A 
ATOM     26  C   UNL     1       1.682   8.187  20.085  0.00  0.00    +0.000 A 
ENDBRANCH  17  18
ENDBRANCH  16  17
ENDBRANCH  14  16
ENDBRANCH   1  14
TORSDOF 6
ENDMDL
MODEL 3
REMARK VINA RESULT:      -7.4      0.593      1.510
REMARK  Name = 
REMARK  8 active torsions:
REMARK  status: ('A' for Active; 'I' for Inactive)
REMARK    1  A    between atoms: C_1  and  O_2
REMARK    2  A    between atoms: O_2  and  C_3
REMARK    3  A    between atoms: C_12  and  C_13
REMARK    4  A    between atoms: C_13  and  N_14
REMARK    5  A    between atoms: N_14  and  C_15
REMARK    6  A    between atoms: N_14  and  C_16
REMARK    7  A    between atoms: C_16  and  C_17
REMARK    8  A    between atoms: C_17  and  C_18
REMARK                            x       y       z     vdW  Elec       q    Type
REMARK                         _______ _______ _______ _____ _____    ______ ____
ROOT
ATOM      1  C   UNL     1       5.695   6.146  18.228  0.00  0.00    +0.000 C 
ENDROOT
BRANCH   1  11
ATOM      2  C   UNL     1       2.073   3.352  19.252  0.00  0.00    +0.000 A 
ATOM      3  C   UNL     1       2.495   2.196  18.591  0.00  0.00    +0.000 A 
ATOM      4  C   UNL     1       3.512   2.261  17.640  0.00  0.00    +0.000 A 
ATOM      5  C   UNL     1       4.096   3.485  17.321  0.00  0.00    +0.000 A 
ATOM      6  C   UNL     1       3.665   4.669  17.938  0.00  0.00    +0.000 A 
ATOM      7  C   UNL     1       2.647   4.601  18.921  0.00  0.00    +0.000 A 
ATOM      8  C   UNL     1       2.098   5.851  19.581  0.00  0.00    +0.000 C 
ATOM      9  C   UNL     1       2.876   7.120  19.263  0.00  0.00    +0.000 C 
ATOM     10  C   UNL     1       3.279   7.116  17.796  0.00  0.00    +0.000 C 
ATOM     11  C   UNL     1       4.303   6.005  17.526  0.00  0.00    +0.000 C 
BRANCH   2  13
ATOM     12  C   UNL     1       1.386   2.741  21.432  0.00  0.00    +0.000 C 
ATOM     13  O   UNL     1       1.076   3.368  20.192  0.00  0.00    +0.000 OA
ENDBRANCH   2  13
ENDBRANCH   1  11
BRANCH   1  14
ATOM     14  N   UNL     1       6.939   6.226  17.415  0.00  0.00    +0.000 NA
ATOM     15  C   UNL     1       6.749   5.784  16.031  0.00  0.00    +0.000 C 
BRANCH  14  16
ATOM     16  C   UNL     1       7.456   7.620  17.386  0.00  0.00    +0.000 C 
BRANCH  16  17
ATOM     17  C   UNL     1       8.432   7.952  18.524  0.00  0.00    +0.000 C 
BRANCH  17  18
ATOM     18  C   UNL     1       8.702   9.433  18.627  0.00  0.00    +0.000 A 
ATOM     19  C   UNL     1       9.593   9.932  19.574  0.00  0.00    +0.000 A 
ATOM     20  C   UNL     1       9.816  11.304  19.697  0.00  0.00    +0.000 A 
ATOM     21  C   UNL     1       9.132  12.188  18.844  0.00  0.00    +0.000 A 
ATOM     22  S   UNL     1       9.233  13.909  18.826  0.00  0.00    +0.000 S 
ATOM     23  C   UNL     1       8.115  14.036  17.545  0.00  0.00    +0.000 A 
ATOM     24  C   UNL     1       7.670  12.805  17.125  0.00  0.00    +0.000 A 
ATOM     25  C   UNL     1       8.245  11.720  17.871  0.00  0.00    +0.000 A 
ATOM     26  C   UNL     1       8.043  10.324  17.765  0.00  0.00    +0.000 A 
ENDBRANCH  17  18
ENDBRANCH  16  17
ENDBRANCH  14  16
ENDBRANCH   1  14
TORSDOF 6
ENDMDL
MODEL 4
REMARK VINA RESULT:      -7.3      5.968      8.633
REMARK  Name = 
REMARK  8 active torsions:
REMARK  status: ('A' for Active; 'I' for Inactive)
REMARK    1  A    between atoms: C_1  and  O_2
REMARK    2  A    between atoms: O_2  and  C_3
REMARK    3  A    between atoms: C_12  and  C_13
REMARK    4  A    between atoms: C_13  and  N_14
REMARK    5  A    between atoms: N_14  and  C_15
REMARK    6  A    between atoms: N_14  and  C_16
REMARK    7  A    between atoms: C_16  and  C_17
REMARK    8  A    between atoms: C_17  and  C_18
REMARK                            x       y       z     vdW  Elec       q    Type
REMARK                         _______ _______ _______ _____ _____    ______ ____
ROOT
ATOM      1  C   UNL     1      -0.252   9.671  20.213  0.00  0.00    +0.000 C 
ENDROOT
BRANCH   1  11
ATOM      2  C   UNL     1      -3.910  11.470  17.899  0.00  0.00    +0.000 A 
ATOM      3  C   UNL     1      -3.878  10.649  16.770  0.00  0.00    +0.000 A 
ATOM      4  C   UNL     1      -2.743   9.895  16.479  0.00  0.00    +0.000 A 
ATOM      5  C   UNL     1      -1.620   9.975  17.299  0.00  0.00    +0.000 A 
ATOM      6  C   UNL     1      -1.606  10.822  18.418  0.00  0.00    +0.000 A 
ATOM      7  C   UNL     1      -2.767  11.572  18.726  0.00  0.00    +0.000 A 
ATOM      8  C   UNL     1      -2.795  12.548  19.886  0.00  0.00    +0.000 C 
ATOM      9  C   UNL     1      -1.573  12.478  20.793  0.00  0.00    +0.000 C 
ATOM     10  C   UNL     1      -0.322  12.295  19.947  0.00  0.00    +0.000 C 
ATOM     11  C   UNL     1      -0.331  10.917  19.271  0.00  0.00    +0.000 C 
BRANCH   2  13
ATOM     12  C   UNL     1      -5.965  12.433  17.230  0.00  0.00    +0.000 C 
ATOM     13  O   UNL     1      -4.985  12.245  18.246  0.00  0.00    +0.000 OA
ENDBRANCH   2  13
ENDBRANCH   1  11
BRANCH   1  14
ATOM     14  N   UNL     1       0.999   9.377  20.964  0.00  0.00    +0.000 NA
ATOM     15  C   UNL     1       0.800   9.341  22.416  0.00  0.00    +0.000 C 
BRANCH  14  16
ATOM     16  C   UNL     1       1.566   8.068  20.546  0.00  0.00    +0.000 C 
BRANCH  16  17
ATOM     17  C   UNL     1       1.742   7.917  19.028  0.00  0.00    +0.000 C 
BRANCH  17  18
ATOM     18  C   UNL     1       2.894   7.006  18.677  0.00  0.00    +0.000 A 
ATOM     19  C   UNL     1       3.291   5.991  19.544  0.00  0.00    +0.000 A 
ATOM     20  C   UNL     1       4.379   5.171  19.240  0.00  0.00    +0.000 A 
ATOM     21  C   UNL     1       5.075   5.377  18.036  0.00  0.00    +0.000 A 
ATOM     22  S   UNL     1       6.449   4.508  17.464  0.00  0.00    +0.000 S 
ATOM     23  C   UNL     1       6.539   5.440  16.039  0.00  0.00    +0.000 A 
ATOM     24  C   UNL     1       5.548   6.391  15.982  0.00  0.00    +0.000 A 
ATOM     25  C   UNL     1       4.692   6.374  17.135  0.00  0.00    +0.000 A 
ATOM     26  C   UNL     1       3.582   7.186  17.467  0.00  0.00    +0.000 A 
ENDBRANCH  17  18
ENDBRANCH  16  17
ENDBRANCH  14  16
ENDBRANCH   1  14
TORSDOF 6
ENDMDL
MODEL 5
REMARK VINA RESULT:      -7.3      6.680      9.969
REMARK  Name = 
REMARK  8 active torsions:
REMARK  status: ('A' for Active; 'I' for Inactive)
REMARK    1  A    between atoms: C_1  and  O_2
REMARK    2  A    between atoms: O_2  and  C_3
REMARK    3  A    between atoms: C_12  and  C_13
REMARK    4  A    between atoms: C_13  and  N_14
REMARK    5  A    between atoms: N_14  and  C_15
REMARK    6  A    between atoms: N_14  and  C_16
REMARK    7  A    between atoms: C_16  and  C_17
REMARK    8  A    between atoms: C_17  and  C_18
REMARK                            x       y       z     vdW  Elec       q    Type
REMARK                         _______ _______ _______ _____ _____    ______ ____
ROOT
ATOM      1  C   UNL     1      -0.571  10.051  19.426  0.00  0.00    +0.000 C 
ENDROOT
BRANCH   1  11
ATOM      2  C   UNL     1      -4.695  11.724  17.957  0.00  0.00    +0.000 A 
ATOM      3  C   UNL     1      -4.695  11.197  16.663  0.00  0.00    +0.000 A 
ATOM      4  C   UNL     1      -3.515  10.721  16.097  0.00  0.00    +0.000 A 
ATOM      5  C   UNL     1      -2.319  10.789  16.808  0.00  0.00    +0.000 A 
ATOM      6  C   UNL     1      -2.279  11.350  18.094  0.00  0.00    +0.000 A 
ATOM      7  C   UNL     1      -3.483  11.815  18.679  0.00  0.00    +0.000 A 
ATOM      8  C   UNL     1      -3.496  12.484  20.039  0.00  0.00    +0.000 C 
ATOM      9  C   UNL     1      -2.173  12.405  20.789  0.00  0.00    +0.000 C 
ATOM     10  C   UNL     1      -1.023  12.621  19.815  0.00  0.00    +0.000 C 
ATOM     11  C   UNL     1      -0.932  11.450  18.827  0.00  0.00    +0.000 C 
BRANCH   2  13
ATOM     12  C   UNL     1      -6.993  12.260  17.781  0.00  0.00    +0.000 C 
ATOM     13  O   UNL     1      -5.813  12.218  18.577  0.00  0.00    +0.000 OA
ENDBRANCH   2  13
ENDBRANCH   1  11
BRANCH   1  14
ATOM     14  N   UNL     1       0.452   9.937  20.502  0.00  0.00    +0.000 NA
ATOM     15  C   UNL     1      -0.104   9.464  21.773  0.00  0.00    +0.000 C 
BRANCH  14  16
ATOM     16  C   UNL     1       1.536   9.003  20.098  0.00  0.00    +0.000 C 
BRANCH  16  17
ATOM     17  C   UNL     1       1.610   7.724  20.945  0.00  0.00    +0.000 C 
BRANCH  17  18
ATOM     18  C   UNL     1       1.879   6.500  20.103  0.00  0.00    +0.000 A 
ATOM     19  C   UNL     1       2.436   6.617  18.832  0.00  0.00    +0.000 A 
ATOM     20  C   UNL     1       2.652   5.491  18.036  0.00  0.00    +0.000 A 
ATOM     21  C   UNL     1       2.304   4.223  18.536  0.00  0.00    +0.000 A 
ATOM     22  S   UNL     1       2.460   2.706  17.733  0.00  0.00    +0.000 S 
ATOM     23  C   UNL     1       1.814   1.852  19.060  0.00  0.00    +0.000 A 
ATOM     24  C   UNL     1       1.489   2.688  20.101  0.00  0.00    +0.000 A 
ATOM     25  C   UNL     1       1.760   4.069  19.814  0.00  0.00    +0.000 A 
ATOM     26  C   UNL     1       1.558   5.227  20.600  0.00  0.00    +0.000 A 
ENDBRANCH  17  18
ENDBRANCH  16  17
ENDBRANCH  14  16
ENDBRANCH   1  14
TORSDOF 6
ENDMDL
MODEL 6
REMARK VINA RESULT:      -7.3      6.582      9.606
REMARK  Name = 
REMARK  8 active torsions:
REMARK  status: ('A' for Active; 'I' for Inactive)
REMARK    1  A    between atoms: C_1  and  O_2
REMARK    2  A    between atoms: O_2  and  C_3
REMARK    3  A    between atoms: C_12  and  C_13
REMARK    4  A    between atoms: C_13  and  N_14
REMARK    5  A    between atoms: N_14  and  C_15
REMARK    6  A    between atoms: N_14  and  C_16
REMARK    7  A    between atoms: C_16  and  C_17
REMARK    8  A    between atoms: C_17  and  C_18
REMARK                            x       y       z     vdW  Elec       q    Type
REMARK                         _______ _______ _______ _____ _____    ______ ____
ROOT
ATOM      1  C   UNL     1      -0.635  10.114  19.619  0.00  0.00    +0.000 C 
ENDROOT
BRANCH   1  11
ATOM      2  C   UNL     1      -4.632  11.724  17.773  0.00  0.00    +0.000 A 
ATOM      3  C   UNL     1      -4.523  11.166  16.498  0.00  0.00    +0.000 A 
ATOM      4  C   UNL     1      -3.297  10.684  16.043  0.00  0.00    +0.000 A 
ATOM      5  C   UNL     1      -2.165  10.777  16.848  0.00  0.00    +0.000 A 
ATOM      6  C   UNL     1      -2.233  11.370  18.118  0.00  0.00    +0.000 A 
ATOM      7  C   UNL     1      -3.483  11.841  18.590  0.00  0.00    +0.000 A 
ATOM      8  C   UNL     1      -3.612  12.542  19.928  0.00  0.00    +0.000 C 
ATOM      9  C   UNL     1      -2.354  12.490  20.786  0.00  0.00    +0.000 C 
ATOM     10  C   UNL     1      -1.130  12.690  19.906  0.00  0.00    +0.000 C 
ATOM     11  C   UNL     1      -0.952  11.496  18.958  0.00  0.00    +0.000 C 
BRANCH   2  13
ATOM     12  C   UNL     1      -6.894  11.316  18.335  0.00  0.00    +0.000 C 
ATOM     13  O   UNL     1      -5.799  12.226  18.287  0.00  0.00    +0.000 OA
ENDBRANCH   2  13
ENDBRANCH   1  11
BRANCH   1  14
ATOM     14  N   UNL     1       0.606   9.934  20.422  0.00  0.00    +0.000 NA
ATOM     15  C   UNL     1       0.338   9.693  21.842  0.00  0.00    +0.000 C 
BRANCH  14  16
ATOM     16  C   UNL     1       1.404   8.791  19.903  0.00  0.00    +0.000 C 
BRANCH  16  17
ATOM     17  C   UNL     1       1.522   7.614  20.881  0.00  0.00    +0.000 C 
BRANCH  17  18
ATOM     18  C   UNL     1       1.975   6.348  20.194  0.00  0.00    +0.000 A 
ATOM     19  C   UNL     1       1.617   5.098  20.694  0.00  0.00    +0.000 A 
ATOM     20  C   UNL     1       2.065   3.926  20.082  0.00  0.00    +0.000 A 
ATOM     21  C   UNL     1       2.884   4.018  18.943  0.00  0.00    +0.000 A 
ATOM     22  S   UNL     1       3.567   2.718  18.041  0.00  0.00    +0.000 S 
ATOM     23  C   UNL     1       4.336   3.779  16.950  0.00  0.00    +0.000 A 
ATOM     24  C   UNL     1       4.083   5.097  17.248  0.00  0.00    +0.000 A 
ATOM     25  C   UNL     1       3.247   5.256  18.406  0.00  0.00    +0.000 A 
ATOM     26  C   UNL     1       2.773   6.427  19.042  0.00  0.00    +0.000 A 
ENDBRANCH  17  18
ENDBRANCH  16  17
ENDBRANCH  14  16
ENDBRANCH   1  14
TORSDOF 6
ENDMDL
MODEL 7
REMARK VINA RESULT:      -7.2      4.848      7.230
REMARK  Name = 
REMARK  8 active torsions:
REMARK  status: ('A' for Active; 'I' for Inactive)
REMARK    1  A    between atoms: C_1  and  O_2
REMARK    2  A    between atoms: O_2  and  C_3
REMARK    3  A    between atoms: C_12  and  C_13
REMARK    4  A    between atoms: C_13  and  N_14
REMARK    5  A    between atoms: N_14  and  C_15
REMARK    6  A    between atoms: N_14  and  C_16
REMARK    7  A    between atoms: C_16  and  C_17
REMARK    8  A    between atoms: C_17  and  C_18
REMARK                            x       y       z     vdW  Elec       q    Type
REMARK                         _______ _______ _______ _____ _____    ______ ____
ROOT
ATOM      1  C   UNL     1       3.619   4.973  17.219  0.00  0.00    +0.000 C 
ENDROOT
BRANCH   1  11
ATOM      2  C   UNL     1       7.190   5.013  14.183  0.00  0.00    +0.000 A 
ATOM      3  C   UNL     1       6.618   4.248  13.164  0.00  0.00    +0.000 A 
ATOM      4  C   UNL     1       5.485   3.476  13.415  0.00  0.00    +0.000 A 
ATOM      5  C   UNL     1       4.930   3.440  14.691  0.00  0.00    +0.000 A 
ATOM      6  C   UNL     1       5.506   4.165  15.746  0.00  0.00    +0.000 A 
ATOM      7  C   UNL     1       6.644   4.968  15.487  0.00  0.00    +0.000 A 
ATOM      8  C   UNL     1       7.346   5.728  16.595  0.00  0.00    +0.000 C 
ATOM      9  C   UNL     1       6.602   5.728  17.923  0.00  0.00    +0.000 C 
ATOM     10  C   UNL     1       6.001   4.352  18.170  0.00  0.00    +0.000 C 
ATOM     11  C   UNL     1       4.891   4.064  17.150  0.00  0.00    +0.000 C 
BRANCH   2  13
ATOM     12  C   UNL     1       8.747   5.956  12.671  0.00  0.00    +0.000 C 
ATOM     13  O   UNL     1       8.306   5.790  14.015  0.00  0.00    +0.000 OA
ENDBRANCH   2  13
ENDBRANCH   1  11
BRANCH   1  14
ATOM     14  N   UNL     1       2.367   4.464  17.843  0.00  0.00    +0.000 NA
ATOM     15  C   UNL     1       2.297   3.000  17.875  0.00  0.00    +0.000 C 
BRANCH  14  16
ATOM     16  C   UNL     1       2.239   4.960  19.239  0.00  0.00    +0.000 C 
BRANCH  16  17
ATOM     17  C   UNL     1       3.071   6.216  19.538  0.00  0.00    +0.000 C 
BRANCH  17  18
ATOM     18  C   UNL     1       2.250   7.478  19.439  0.00  0.00    +0.000 A 
ATOM     19  C   UNL     1       2.234   8.229  18.266  0.00  0.00    +0.000 A 
ATOM     20  C   UNL     1       1.506   9.417  18.184  0.00  0.00    +0.000 A 
ATOM     21  C   UNL     1       0.775   9.851  19.304  0.00  0.00    +0.000 A 
ATOM     22  S   UNL     1      -0.175  11.283  19.440  0.00  0.00    +0.000 S 
ATOM     23  C   UNL     1      -0.609  10.932  21.052  0.00  0.00    +0.000 A 
ATOM     24  C   UNL     1      -0.058   9.751  21.488  0.00  0.00    +0.000 A 
ATOM     25  C   UNL     1       0.754   9.112  20.490  0.00  0.00    +0.000 A 
ATOM     26  C   UNL     1       1.497   7.909  20.543  0.00  0.00    +0.000 A 
ENDBRANCH  17  18
ENDBRANCH  16  17
ENDBRANCH  14  16
ENDBRANCH   1  14
TORSDOF 6
ENDMDL
MODEL 8
REMARK VINA RESULT:      -7.2      4.486      7.573
REMARK  Name = 
REMARK  8 active torsions:
REMARK  status: ('A' for Active; 'I' for Inactive)
REMARK    1  A    between atoms: C_1  and  O_2
REMARK    2  A    between atoms: O_2  and  C_3
REMARK    3  A    between atoms: C_12  and  C_13
REMARK    4  A    between atoms: C_13  and  N_14
REMARK    5  A    between atoms: N_14  and  C_15
REMARK    6  A    between atoms: N_14  and  C_16
REMARK    7  A    between atoms: C_16  and  C_17
REMARK    8  A    between atoms: C_17  and  C_18
REMARK                            x       y       z     vdW  Elec       q    Type
REMARK                         _______ _______ _______ _____ _____    ______ ____
ROOT
ATOM      1  C   UNL     1       4.259   5.923  18.798  0.00  0.00    +0.000 C 
ENDROOT
BRANCH   1  11
ATOM      2  C   UNL     1       6.882   4.978  15.030  0.00  0.00    +0.000 A 
ATOM      3  C   UNL     1       6.074   4.003  14.441  0.00  0.00    +0.000 A 
ATOM      4  C   UNL     1       5.067   3.384  15.180  0.00  0.00    +0.000 A 
ATOM      5  C   UNL     1       4.875   3.714  16.519  0.00  0.00    +0.000 A 
ATOM      6  C   UNL     1       5.698   4.660  17.150  0.00  0.00    +0.000 A 
ATOM      7  C   UNL     1       6.708   5.306  16.395  0.00  0.00    +0.000 A 
ATOM      8  C   UNL     1       7.665   6.293  17.033  0.00  0.00    +0.000 C 
ATOM      9  C   UNL     1       7.305   6.681  18.461  0.00  0.00    +0.000 C 
ATOM     10  C   UNL     1       6.822   5.451  19.215  0.00  0.00    +0.000 C 
ATOM     11  C   UNL     1       5.485   4.963  18.641  0.00  0.00    +0.000 C 
BRANCH   2  13
ATOM     12  C   UNL     1       8.013   5.336  12.982  0.00  0.00    +0.000 C 
ATOM     13  O   UNL     1       7.895   5.624  14.372  0.00  0.00    +0.000 OA
ENDBRANCH   2  13
ENDBRANCH   1  11
BRANCH   1  14
ATOM     14  N   UNL     1       2.926   5.381  19.180  0.00  0.00    +0.000 NA
ATOM     15  C   UNL     1       3.010   4.098  19.883  0.00  0.00    +0.000 C 
BRANCH  14  16
ATOM     16  C   UNL     1       2.203   6.340  20.057  0.00  0.00    +0.000 C 
BRANCH  16  17
ATOM     17  C   UNL     1       2.099   7.760  19.483  0.00  0.00    +0.000 C 
BRANCH  17  18
ATOM     18  C   UNL     1       1.297   8.676  20.376  0.00  0.00    +0.000 A 
ATOM     19  C   UNL     1       1.309   8.514  21.759  0.00  0.00    +0.000 A 
ATOM     20  C   UNL     1       0.540   9.336  22.585  0.00  0.00    +0.000 A 
ATOM     21  C   UNL     1      -0.251  10.343  22.003  0.00  0.00    +0.000 A 
ATOM     22  S   UNL     1      -1.289  11.454  22.815  0.00  0.00    +0.000 S 
ATOM     23  C   UNL     1      -1.763  12.194  21.354  0.00  0.00    +0.000 A 
ATOM     24  C   UNL     1      -1.149  11.625  20.265  0.00  0.00    +0.000 A 
ATOM     25  C   UNL     1      -0.273  10.544  20.621  0.00  0.00    +0.000 A 
ATOM     26  C   UNL     1       0.522   9.700  19.809  0.00  0.00    +0.000 A 
ENDBRANCH  17  18
ENDBRANCH  16  17
ENDBRANCH  14  16
ENDBRANCH   1  14
TORSDOF 6
ENDMDL
MODEL 9
REMARK VINA RESULT:      -7.1      3.955      7.110
REMARK  Name = 
REMARK  8 active torsions:
REMARK  status: ('A' for Active; 'I' for Inactive)
REMARK    1  A    between atoms: C_1  and  O_2
REMARK    2  A    between atoms: O_2  and  C_3
REMARK    3  A    between atoms: C_12  and  C_13
REMARK    4  A    between atoms: C_13  and  N_14
REMARK    5  A    between atoms: N_14  and  C_15
REMARK    6  A    between atoms: N_14  and  C_16
REMARK    7  A    between atoms: C_16  and  C_17
REMARK    8  A    between atoms: C_17  and  C_18
REMARK                            x       y       z     vdW  Elec       q    Type
REMARK                         _______ _______ _______ _____ _____    ______ ____
ROOT
ATOM      1  C   UNL     1       2.511   4.432  17.861  0.00  0.00    +0.000 C 
ENDROOT
BRANCH   1  11
ATOM      2  C   UNL     1       6.901   5.658  16.765  0.00  0.00    +0.000 A 
ATOM      3  C   UNL     1       6.822   5.533  15.377  0.00  0.00    +0.000 A 
ATOM      4  C   UNL     1       5.770   4.829  14.792  0.00  0.00    +0.000 A 
ATOM      5  C   UNL     1       4.804   4.222  15.590  0.00  0.00    +0.000 A 
ATOM      6  C   UNL     1       4.879   4.295  16.989  0.00  0.00    +0.000 A 
ATOM      7  C   UNL     1       5.935   5.028  17.584  0.00  0.00    +0.000 A 
ATOM      8  C   UNL     1       6.103   5.096  19.089  0.00  0.00    +0.000 C 
ATOM      9  C   UNL     1       4.939   4.509  19.876  0.00  0.00    +0.000 C 
ATOM     10  C   UNL     1       4.452   3.240  19.194  0.00  0.00    +0.000 C 
ATOM     11  C   UNL     1       3.819   3.573  17.836  0.00  0.00    +0.000 C 
BRANCH   2  13
ATOM     12  C   UNL     1       7.730   7.733  17.542  0.00  0.00    +0.000 C 
ATOM     13  O   UNL     1       7.907   6.326  17.412  0.00  0.00    +0.000 OA
ENDBRANCH   2  13
ENDBRANCH   1  11
BRANCH   1  14
ATOM     14  N   UNL     1       1.500   4.227  18.934  0.00  0.00    +0.000 NA
ATOM     15  C   UNL     1       1.579   2.899  19.549  0.00  0.00    +0.000 C 
BRANCH  14  16
ATOM     16  C   UNL     1       1.665   5.241  20.009  0.00  0.00    +0.000 C 
BRANCH  16  17
ATOM     17  C   UNL     1       2.413   6.507  19.567  0.00  0.00    +0.000 C 
BRANCH  17  18
ATOM     18  C   UNL     1       1.686   7.767  19.971  0.00  0.00    +0.000 A 
ATOM     19  C   UNL     1       1.601   8.851  19.101  0.00  0.00    +0.000 A 
ATOM     20  C   UNL     1       0.961  10.031  19.485  0.00  0.00    +0.000 A 
ATOM     21  C   UNL     1       0.391  10.114  20.768  0.00  0.00    +0.000 A 
ATOM     22  S   UNL     1      -0.425  11.465  21.461  0.00  0.00    +0.000 S 
ATOM     23  C   UNL     1      -0.709  10.637  22.925  0.00  0.00    +0.000 A 
ATOM     24  C   UNL     1      -0.206   9.359  22.900  0.00  0.00    +0.000 A 
ATOM     25  C   UNL     1       0.441   9.039  21.658  0.00  0.00    +0.000 A 
ATOM     26  C   UNL     1       1.091   7.853  21.240  0.00  0.00    +0.000 A 
ENDBRANCH  17  18
ENDBRANCH  16  17
ENDBRANCH  14  16
ENDBRANCH   1  14
TORSDOF 6
ENDMDL
