MODEL 1
REMARK VINA RESULT:      -9.2      0.000      0.000
REMARK  Name = 
REMARK  7 active torsions:
REMARK  status: ('A' for Active; 'I' for Inactive)
REMARK    1  A    between atoms: C_1  and  C_2
REMARK    2  A    between atoms: C_4  and  C_5
REMARK    3  A    between atoms: C_5  and  O_6
REMARK    4  A    between atoms: O_6  and  C_7
REMARK    5  A    between atoms: C_10  and  N_11
REMARK    6  A    between atoms: C_12  and  C_14
REMARK    7  A    between atoms: C_14  and  C_15
REMARK                            x       y       z     vdW  Elec       q    Type
REMARK                         _______ _______ _______ _____ _____    ______ ____
ROOT
ATOM      1  C   UNL     1       6.007   4.739  17.550  0.00  0.00    +0.000 A 
ATOM      2  C   UNL     1       6.419   5.704  16.639  0.00  0.00    +0.000 A 
ATOM      3  C   UNL     1       7.296   6.707  17.030  0.00  0.00    +0.000 A 
ATOM      4  C   UNL     1       7.738   6.800  18.349  0.00  0.00    +0.000 A 
ATOM      5  C   UNL     1       7.323   5.830  19.269  0.00  0.00    +0.000 A 
ATOM      6  C   UNL     1       6.448   4.810  18.871  0.00  0.00    +0.000 A 
ENDROOT
BRANCH   4   7
ATOM      7  N   UNL     1       8.578   7.848  18.784  0.00  0.00    +0.000 N 
ATOM      8  C   UNL     1       8.451   9.177  18.404  0.00  0.00    +0.000 C 
ATOM      9  O   UNL     1       7.590   9.637  17.660  0.00  0.00    +0.000 OA
ATOM     10  H   UNL     1       9.242   7.622  19.516  0.00  0.00    +0.000 HD
BRANCH   8  11
ATOM     11  C   UNL     1       9.485  10.077  19.035  0.00  0.00    +0.000 C 
BRANCH  11  12
ATOM     12  C   UNL     1       9.935  11.142  18.044  0.00  0.00    +0.000 C 
ATOM     13  N   UNL     1       8.975  12.211  17.867  0.00  0.00    +0.000 N 
ATOM     14  C   UNL     1       9.477  13.435  18.223  0.00  0.00    +0.000 C 
ATOM     15  O   UNL     1       8.898  14.499  18.101  0.00  0.00    +0.000 OA
ATOM     16  N   UNL     1      10.725  13.253  18.711  0.00  0.00    +0.000 N 
ATOM     17  C   UNL     1      11.099  11.948  18.611  0.00  0.00    +0.000 C 
ATOM     18  O   UNL     1      12.187  11.497  18.936  0.00  0.00    +0.000 OA
ATOM     19  H   UNL     1       8.097  12.110  17.367  0.00  0.00    +0.000 HD
ATOM     20  H   UNL     1      11.317  14.001  19.028  0.00  0.00    +0.000 HD
ENDBRANCH  11  12
ENDBRANCH   8  11
ENDBRANCH   4   7
BRANCH   1  21
ATOM     21  O   UNL     1       5.182   3.696  17.233  0.00  0.00    +0.000 OA
BRANCH  21  22
ATOM     22  C   UNL     1       3.803   4.064  17.099  0.00  0.00    +0.000 C 
BRANCH  22  26
ATOM     23  C   UNL     1       2.089   2.736  21.623  0.00  0.00    +0.000 C 
ATOM     24  C   UNL     1       2.352   3.785  20.581  0.00  0.00    +0.000 A 
ATOM     25  C   UNL     1       2.959   3.438  19.389  0.00  0.00    +0.000 A 
ATOM     26  C   UNL     1       3.177   4.425  18.424  0.00  0.00    +0.000 A 
ATOM     27  C   UNL     1       2.784   5.760  18.698  0.00  0.00    +0.000 A 
ATOM     28  C   UNL     1       2.963   6.842  17.796  0.00  0.00    +0.000 A 
ATOM     29  C   UNL     1       2.547   8.130  18.120  0.00  0.00    +0.000 A 
ATOM     30  C   UNL     1       1.948   8.364  19.347  0.00  0.00    +0.000 A 
ATOM     31  C   UNL     1       1.769   7.307  20.243  0.00  0.00    +0.000 A 
ATOM     32  C   UNL     1       2.174   6.010  19.946  0.00  0.00    +0.000 A 
ATOM     33  N   UNL     1       1.963   5.047  20.862  0.00  0.00    +0.000 NA
ENDBRANCH  22  26
ENDBRANCH  21  22
ENDBRANCH   1  21
TORSDOF 6
ENDMDL
MODEL 2
REMARK VINA RESULT:      -9.0      5.601      9.164
REMARK  Name = 
REMARK  7 active torsions:
REMARK  status: ('A' for Active; 'I' for Inactive)
REMARK    1  A    between atoms: C_1  and  C_2
REMARK    2  A    between atoms: C_4  and  C_5
REMARK    3  A    between atoms: C_5  and  O_6
REMARK    4  A    between atoms: O_6  and  C_7
REMARK    5  A    between atoms: C_10  and  N_11
REMARK    6  A    between atoms: C_12  and  C_14
REMARK    7  A    between atoms: C_14  and  C_15
REMARK                            x       y       z     vdW  Elec       q    Type
REMARK                         _______ _______ _______ _____ _____    ______ ____
ROOT
ATOM      1  C   UNL     1       1.109   9.623  18.896  0.00  0.00    +0.000 A 
ATOM      2  C   UNL     1       1.851   8.806  18.053  0.00  0.00    +0.000 A 
ATOM      3  C   UNL     1       2.353   7.595  18.513  0.00  0.00    +0.000 A 
ATOM      4  C   UNL     1       2.169   7.200  19.838  0.00  0.00    +0.000 A 
ATOM      5  C   UNL     1       1.422   8.022  20.690  0.00  0.00    +0.000 A 
ATOM      6  C   UNL     1       0.905   9.238  20.221  0.00  0.00    +0.000 A 
ENDROOT
BRANCH   4   7
ATOM      7  N   UNL     1       2.725   6.005  20.345  0.00  0.00    +0.000 N 
ATOM      8  C   UNL     1       2.006   4.849  20.617  0.00  0.00    +0.000 C 
ATOM      9  O   UNL     1       0.802   4.687  20.442  0.00  0.00    +0.000 OA
ATOM     10  H   UNL     1       3.736   5.963  20.398  0.00  0.00    +0.000 HD
BRANCH   8  11
ATOM     11  C   UNL     1       2.866   3.725  21.142  0.00  0.00    +0.000 C 
BRANCH  11  12
ATOM     12  C   UNL     1       3.230   2.766  20.016  0.00  0.00    +0.000 C 
ATOM     13  N   UNL     1       2.236   2.703  18.966  0.00  0.00    +0.000 N 
ATOM     14  C   UNL     1       2.729   3.091  17.748  0.00  0.00    +0.000 C 
ATOM     15  O   UNL     1       2.119   3.060  16.695  0.00  0.00    +0.000 OA
ATOM     16  N   UNL     1       4.009   3.496  17.921  0.00  0.00    +0.000 N 
ATOM     17  C   UNL     1       4.407   3.306  19.209  0.00  0.00    +0.000 C 
ATOM     18  O   UNL     1       5.523   3.541  19.646  0.00  0.00    +0.000 OA
ATOM     19  H   UNL     1       1.332   2.250  19.065  0.00  0.00    +0.000 HD
ATOM     20  H   UNL     1       4.600   3.816  17.175  0.00  0.00    +0.000 HD
ENDBRANCH  11  12
ENDBRANCH   8  11
ENDBRANCH   4   7
BRANCH   1  21
ATOM     21  O   UNL     1       0.544  10.805  18.507  0.00  0.00    +0.000 OA
BRANCH  21  22
ATOM     22  C   UNL     1      -0.638  11.156  19.240  0.00  0.00    +0.000 C 
BRANCH  22  26
ATOM     23  C   UNL     1      -2.951   9.879  14.976  0.00  0.00    +0.000 C 
ATOM     24  C   UNL     1      -2.975  10.516  16.335  0.00  0.00    +0.000 A 
ATOM     25  C   UNL     1      -1.840  10.505  17.124  0.00  0.00    +0.000 A 
ATOM     26  C   UNL     1      -1.876  11.121  18.377  0.00  0.00    +0.000 A 
ATOM     27  C   UNL     1      -3.080  11.729  18.816  0.00  0.00    +0.000 A 
ATOM     28  C   UNL     1      -3.233  12.376  20.070  0.00  0.00    +0.000 A 
ATOM     29  C   UNL     1      -4.439  12.963  20.439  0.00  0.00    +0.000 A 
ATOM     30  C   UNL     1      -5.515  12.914  19.568  0.00  0.00    +0.000 A 
ATOM     31  C   UNL     1      -5.376  12.279  18.332  0.00  0.00    +0.000 A 
ATOM     32  C   UNL     1      -4.183  11.684  17.936  0.00  0.00    +0.000 A 
ATOM     33  N   UNL     1      -4.130  11.094  16.728  0.00  0.00    +0.000 NA
ENDBRANCH  22  26
ENDBRANCH  21  22
ENDBRANCH   1  21
TORSDOF 6
ENDMDL
MODEL 3
REMARK VINA RESULT:      -8.9      4.981      8.606
REMARK  Name = 
REMARK  7 active torsions:
REMARK  status: ('A' for Active; 'I' for Inactive)
REMARK    1  A    between atoms: C_1  and  C_2
REMARK    2  A    between atoms: C_4  and  C_5
REMARK    3  A    between atoms: C_5  and  O_6
REMARK    4  A    between atoms: O_6  and  C_7
REMARK    5  A    between atoms: C_10  and  N_11
REMARK    6  A    between atoms: C_12  and  C_14
REMARK    7  A    between atoms: C_14  and  C_15
REMARK                            x       y       z     vdW  Elec       q    Type
REMARK                         _______ _______ _______ _____ _____    ______ ____
ROOT
ATOM      1  C   UNL     1       0.940   9.660  18.869  0.00  0.00    +0.000 A 
ATOM      2  C   UNL     1       0.867   9.172  20.168  0.00  0.00    +0.000 A 
ATOM      3  C   UNL     1       1.569   8.029  20.527  0.00  0.00    +0.000 A 
ATOM      4  C   UNL     1       2.315   7.320  19.586  0.00  0.00    +0.000 A 
ATOM      5  C   UNL     1       2.389   7.808  18.277  0.00  0.00    +0.000 A 
ATOM      6  C   UNL     1       1.690   8.969  17.917  0.00  0.00    +0.000 A 
ENDROOT
BRANCH   4   7
ATOM      7  N   UNL     1       2.984   6.120  19.913  0.00  0.00    +0.000 N 
ATOM      8  C   UNL     1       2.780   4.900  19.283  0.00  0.00    +0.000 C 
ATOM      9  O   UNL     1       2.013   4.688  18.349  0.00  0.00    +0.000 OA
ATOM     10  H   UNL     1       3.749   6.195  20.575  0.00  0.00    +0.000 HD
BRANCH   8  11
ATOM     11  C   UNL     1       3.643   3.794  19.838  0.00  0.00    +0.000 C 
BRANCH  11  12
ATOM     12  C   UNL     1       4.844   3.555  18.932  0.00  0.00    +0.000 C 
ATOM     13  N   UNL     1       4.492   3.359  17.543  0.00  0.00    +0.000 N 
ATOM     14  C   UNL     1       5.040   4.307  16.720  0.00  0.00    +0.000 C 
ATOM     15  O   UNL     1       4.956   4.325  15.505  0.00  0.00    +0.000 OA
ATOM     16  N   UNL     1       5.701   5.202  17.490  0.00  0.00    +0.000 N 
ATOM     17  C   UNL     1       5.678   4.826  18.798  0.00  0.00    +0.000 C 
ATOM     18  O   UNL     1       6.226   5.419  19.714  0.00  0.00    +0.000 OA
ATOM     19  H   UNL     1       4.048   2.520  17.181  0.00  0.00    +0.000 HD
ATOM     20  H   UNL     1       6.205   5.991  17.125  0.00  0.00    +0.000 HD
ENDBRANCH  11  12
ENDBRANCH   8  11
ENDBRANCH   4   7
BRANCH   1  21
ATOM     21  O   UNL     1       0.316  10.801  18.448  0.00  0.00    +0.000 OA
BRANCH  21  22
ATOM     22  C   UNL     1      -0.940  11.051  19.096  0.00  0.00    +0.000 C 
BRANCH  22  26
ATOM     23  C   UNL     1      -2.859   9.907  14.605  0.00  0.00    +0.000 C 
ATOM     24  C   UNL     1      -3.005  10.505  15.974  0.00  0.00    +0.000 A 
ATOM     25  C   UNL     1      -1.946  10.466  16.862  0.00  0.00    +0.000 A 
ATOM     26  C   UNL     1      -2.095  11.046  18.124  0.00  0.00    +0.000 A 
ATOM     27  C   UNL     1      -3.333  11.646  18.469  0.00  0.00    +0.000 A 
ATOM     28  C   UNL     1      -3.597  12.258  19.723  0.00  0.00    +0.000 A 
ATOM     29  C   UNL     1      -4.831  12.839  19.998  0.00  0.00    +0.000 A 
ATOM     30  C   UNL     1      -5.823  12.820  19.031  0.00  0.00    +0.000 A 
ATOM     31  C   UNL     1      -5.574  12.220  17.795  0.00  0.00    +0.000 A 
ATOM     32  C   UNL     1      -4.351  11.632  17.492  0.00  0.00    +0.000 A 
ATOM     33  N   UNL     1      -4.190  11.076  16.277  0.00  0.00    +0.000 NA
ENDBRANCH  22  26
ENDBRANCH  21  22
ENDBRANCH   1  21
TORSDOF 6
ENDMDL
MODEL 4
REMARK VINA RESULT:      -8.9      5.377      9.125
REMARK  Name = 
REMARK  7 active torsions:
REMARK  status: ('A' for Active; 'I' for Inactive)
REMARK    1  A    between atoms: C_1  and  C_2
REMARK    2  A    between atoms: C_4  and  C_5
REMARK    3  A    between atoms: C_5  and  O_6
REMARK    4  A    between atoms: O_6  and  C_7
REMARK    5  A    between atoms: C_10  and  N_11
REMARK    6  A    between atoms: C_12  and  C_14
REMARK    7  A    between atoms: C_14  and  C_15
REMARK                            x       y       z     vdW  Elec       q    Type
REMARK                         _______ _______ _______ _____ _____    ______ ____
ROOT
ATOM      1  C   UNL     1       1.253   9.261  19.778  0.00  0.00    +0.000 A 
ATOM      2  C   UNL     1       1.410   8.155  20.605  0.00  0.00    +0.000 A 
ATOM      3  C   UNL     1       1.990   6.992  20.116  0.00  0.00    +0.000 A 
ATOM      4  C   UNL     1       2.376   6.889  18.780  0.00  0.00    +0.000 A 
ATOM      5  C   UNL     1       2.217   8.000  17.945  0.00  0.00    +0.000 A 
ATOM      6  C   UNL     1       1.644   9.179  18.441  0.00  0.00    +0.000 A 
ENDROOT
BRANCH   4   7
ATOM      7  N   UNL     1       2.908   5.695  18.246  0.00  0.00    +0.000 N 
ATOM      8  C   UNL     1       4.080   5.087  18.674  0.00  0.00    +0.000 C 
ATOM      9  O   UNL     1       4.808   5.478  19.581  0.00  0.00    +0.000 OA
ATOM     10  H   UNL     1       2.323   5.195  17.586  0.00  0.00    +0.000 HD
BRANCH   8  11
ATOM     11  C   UNL     1       4.396   3.815  17.926  0.00  0.00    +0.000 C 
BRANCH  11  12
ATOM     12  C   UNL     1       3.960   2.601  18.736  0.00  0.00    +0.000 C 
ATOM     13  N   UNL     1       4.054   2.796  20.167  0.00  0.00    +0.000 N 
ATOM     14  C   UNL     1       2.842   2.681  20.796  0.00  0.00    +0.000 C 
ATOM     15  O   UNL     1       2.662   2.730  21.999  0.00  0.00    +0.000 OA
ATOM     16  N   UNL     1       1.893   2.488  19.851  0.00  0.00    +0.000 N 
ATOM     17  C   UNL     1       2.455   2.386  18.615  0.00  0.00    +0.000 C 
ATOM     18  O   UNL     1       1.846   2.171  17.578  0.00  0.00    +0.000 OA
ATOM     19  H   UNL     1       4.929   2.829  20.681  0.00  0.00    +0.000 HD
ATOM     20  H   UNL     1       0.918   2.358  20.055  0.00  0.00    +0.000 HD
ENDBRANCH  11  12
ENDBRANCH   8  11
ENDBRANCH   4   7
BRANCH   1  21
ATOM     21  O   UNL     1       0.733  10.455  20.194  0.00  0.00    +0.000 OA
BRANCH  21  22
ATOM     22  C   UNL     1       0.318  11.314  19.123  0.00  0.00    +0.000 C 
BRANCH  22  26
ATOM     23  C   UNL     1      -3.570  13.454  21.462  0.00  0.00    +0.000 C 
ATOM     24  C   UNL     1      -3.009  12.660  20.318  0.00  0.00    +0.000 A 
ATOM     25  C   UNL     1      -1.653  12.401  20.255  0.00  0.00    +0.000 A 
ATOM     26  C   UNL     1      -1.154  11.643  19.193  0.00  0.00    +0.000 A 
ATOM     27  C   UNL     1      -2.048  11.171  18.198  0.00  0.00    +0.000 A 
ATOM     28  C   UNL     1      -1.651  10.400  17.074  0.00  0.00    +0.000 A 
ATOM     29  C   UNL     1      -2.580   9.957  16.137  0.00  0.00    +0.000 A 
ATOM     30  C   UNL     1      -3.917  10.276  16.300  0.00  0.00    +0.000 A 
ATOM     31  C   UNL     1      -4.318  11.036  17.402  0.00  0.00    +0.000 A 
ATOM     32  C   UNL     1      -3.413  11.491  18.354  0.00  0.00    +0.000 A 
ATOM     33  N   UNL     1      -3.880  12.216  19.388  0.00  0.00    +0.000 NA
ENDBRANCH  22  26
ENDBRANCH  21  22
ENDBRANCH   1  21
TORSDOF 6
ENDMDL
MODEL 5
REMARK VINA RESULT:      -8.8      2.427      9.518
REMARK  Name = 
REMARK  7 active torsions:
REMARK  status: ('A' for Active; 'I' for Inactive)
REMARK    1  A    between atoms: C_1  and  C_2
REMARK    2  A    between atoms: C_4  and  C_5
REMARK    3  A    between atoms: C_5  and  O_6
REMARK    4  A    between atoms: O_6  and  C_7
REMARK    5  A    between atoms: C_10  and  N_11
REMARK    6  A    between atoms: C_12  and  C_14
REMARK    7  A    between atoms: C_14  and  C_15
REMARK                            x       y       z     vdW  Elec       q    Type
REMARK                         _______ _______ _______ _____ _____    ______ ____
ROOT
ATOM      1  C   UNL     1       7.771   7.819  17.895  0.00  0.00    +0.000 A 
ATOM      2  C   UNL     1       8.131   6.797  18.766  0.00  0.00    +0.000 A 
ATOM      3  C   UNL     1       7.471   5.576  18.722  0.00  0.00    +0.000 A 
ATOM      4  C   UNL     1       6.406   5.367  17.847  0.00  0.00    +0.000 A 
ATOM      5  C   UNL     1       6.041   6.394  16.970  0.00  0.00    +0.000 A 
ATOM      6  C   UNL     1       6.715   7.623  17.005  0.00  0.00    +0.000 A 
ENDROOT
BRANCH   4   7
ATOM      7  N   UNL     1       5.679   4.156  17.831  0.00  0.00    +0.000 N 
ATOM      8  C   UNL     1       4.294   4.061  17.838  0.00  0.00    +0.000 C 
ATOM      9  O   UNL     1       3.505   5.001  17.840  0.00  0.00    +0.000 OA
ATOM     10  H   UNL     1       6.216   3.308  17.685  0.00  0.00    +0.000 HD
BRANCH   8  11
ATOM     11  C   UNL     1       3.796   2.637  17.807  0.00  0.00    +0.000 C 
BRANCH  11  12
ATOM     12  C   UNL     1       3.062   2.304  19.099  0.00  0.00    +0.000 C 
ATOM     13  N   UNL     1       3.404   3.177  20.201  0.00  0.00    +0.000 N 
ATOM     14  C   UNL     1       2.324   3.873  20.678  0.00  0.00    +0.000 C 
ATOM     15  O   UNL     1       2.331   4.616  21.642  0.00  0.00    +0.000 OA
ATOM     16  N   UNL     1       1.255   3.575  19.903  0.00  0.00    +0.000 N 
ATOM     17  C   UNL     1       1.578   2.633  18.975  0.00  0.00    +0.000 C 
ATOM     18  O   UNL     1       0.804   2.143  18.166  0.00  0.00    +0.000 OA
ATOM     19  H   UNL     1       4.291   3.151  20.694  0.00  0.00    +0.000 HD
ATOM     20  H   UNL     1       0.334   3.946  20.054  0.00  0.00    +0.000 HD
ENDBRANCH  11  12
ENDBRANCH   8  11
ENDBRANCH   4   7
BRANCH   1  21
ATOM     21  O   UNL     1       8.400   9.032  17.844  0.00  0.00    +0.000 OA
BRANCH  21  22
ATOM     22  C   UNL     1       9.008   9.425  19.082  0.00  0.00    +0.000 C 
BRANCH  22  26
ATOM     23  C   UNL     1      11.329  13.142  16.641  0.00  0.00    +0.000 C 
ATOM     24  C   UNL     1      10.649  12.610  17.869  0.00  0.00    +0.000 A 
ATOM     25  C   UNL     1      10.143  11.324  17.877  0.00  0.00    +0.000 A 
ATOM     26  C   UNL     1       9.533  10.840  19.037  0.00  0.00    +0.000 A 
ATOM     27  C   UNL     1       9.433  11.685  20.171  0.00  0.00    +0.000 A 
ATOM     28  C   UNL     1       8.828  11.302  21.397  0.00  0.00    +0.000 A 
ATOM     29  C   UNL     1       8.770  12.175  22.479  0.00  0.00    +0.000 A 
ATOM     30  C   UNL     1       9.311  13.444  22.359  0.00  0.00    +0.000 A 
ATOM     31  C   UNL     1       9.907  13.832  21.157  0.00  0.00    +0.000 A 
ATOM     32  C   UNL     1       9.980  12.981  20.060  0.00  0.00    +0.000 A 
ATOM     33  N   UNL     1      10.573  13.430  18.938  0.00  0.00    +0.000 NA
ENDBRANCH  22  26
ENDBRANCH  21  22
ENDBRANCH   1  21
TORSDOF 6
ENDMDL
MODEL 6
REMARK VINA RESULT:      -8.8      0.733      2.573
REMARK  Name = 
REMARK  7 active torsions:
REMARK  status: ('A' for Active; 'I' for Inactive)
REMARK    1  A    between atoms: C_1  and  C_2
REMARK    2  A    between atoms: C_4  and  C_5
REMARK    3  A    between atoms: C_5  and  O_6
REMARK    4  A    between atoms: O_6  and  C_7
REMARK    5  A    between atoms: C_10  and  N_11
REMARK    6  A    between atoms: C_12  and  C_14
REMARK    7  A    between atoms: C_14  and  C_15
REMARK                            x       y       z     vdW  Elec       q    Type
REMARK                         _______ _______ _______ _____ _____    ______ ____
ROOT
ATOM      1  C   UNL     1       6.177   4.643  17.562  0.00  0.00    +0.000 A 
ATOM      2  C   UNL     1       6.491   4.789  18.908  0.00  0.00    +0.000 A 
ATOM      3  C   UNL     1       7.255   5.866  19.336  0.00  0.00    +0.000 A 
ATOM      4  C   UNL     1       7.766   6.790  18.426  0.00  0.00    +0.000 A 
ATOM      5  C   UNL     1       7.453   6.646  17.070  0.00  0.00    +0.000 A 
ATOM      6  C   UNL     1       6.671   5.565  16.639  0.00  0.00    +0.000 A 
ENDROOT
BRANCH   4   7
ATOM      7  N   UNL     1       8.599   7.856  18.832  0.00  0.00    +0.000 N 
ATOM      8  C   UNL     1       8.458   9.174  18.420  0.00  0.00    +0.000 C 
ATOM      9  O   UNL     1       7.590   9.609  17.669  0.00  0.00    +0.000 OA
ATOM     10  H   UNL     1       9.268   7.653  19.565  0.00  0.00    +0.000 HD
BRANCH   8  11
ATOM     11  C   UNL     1       9.487  10.098  19.024  0.00  0.00    +0.000 C 
BRANCH  11  12
ATOM     12  C   UNL     1       9.903  11.160  18.014  0.00  0.00    +0.000 C 
ATOM     13  N   UNL     1       8.940  12.231  17.870  0.00  0.00    +0.000 N 
ATOM     14  C   UNL     1       9.458  13.454  18.203  0.00  0.00    +0.000 C 
ATOM     15  O   UNL     1       8.878  14.520  18.100  0.00  0.00    +0.000 OA
ATOM     16  N   UNL     1      10.724  13.270  18.645  0.00  0.00    +0.000 N 
ATOM     17  C   UNL     1      11.089  11.964  18.535  0.00  0.00    +0.000 C 
ATOM     18  O   UNL     1      12.187  11.511  18.821  0.00  0.00    +0.000 OA
ATOM     19  H   UNL     1       8.044  12.131  17.402  0.00  0.00    +0.000 HD
ATOM     20  H   UNL     1      11.329  14.017  18.938  0.00  0.00    +0.000 HD
ENDBRANCH  11  12
ENDBRANCH   8  11
ENDBRANCH   4   7
BRANCH   1  21
ATOM     21  O   UNL     1       5.394   3.638  17.067  0.00  0.00    +0.000 OA
BRANCH  21  22
ATOM     22  C   UNL     1       4.129   4.081  16.559  0.00  0.00    +0.000 C 
BRANCH  22  26
ATOM     23  C   UNL     1       2.465   8.391  18.513  0.00  0.00    +0.000 C 
ATOM     24  C   UNL     1       2.541   6.892  18.530  0.00  0.00    +0.000 A 
ATOM     25  C   UNL     1       3.251   6.224  17.550  0.00  0.00    +0.000 A 
ATOM     26  C   UNL     1       3.327   4.830  17.596  0.00  0.00    +0.000 A 
ATOM     27  C   UNL     1       2.661   4.133  18.637  0.00  0.00    +0.000 A 
ATOM     28  C   UNL     1       2.665   2.721  18.777  0.00  0.00    +0.000 A 
ATOM     29  C   UNL     1       2.000   2.096  19.827  0.00  0.00    +0.000 A 
ATOM     30  C   UNL     1       1.318   2.866  20.755  0.00  0.00    +0.000 A 
ATOM     31  C   UNL     1       1.306   4.257  20.626  0.00  0.00    +0.000 A 
ATOM     32  C   UNL     1       1.963   4.908  19.587  0.00  0.00    +0.000 A 
ATOM     33  N   UNL     1       1.906   6.252  19.534  0.00  0.00    +0.000 NA
ENDBRANCH  22  26
ENDBRANCH  21  22
ENDBRANCH   1  21
TORSDOF 6
ENDMDL
MODEL 7
REMARK VINA RESULT:      -8.7      4.897      8.252
REMARK  Name = 
REMARK  7 active torsions:
REMARK  status: ('A' for Active; 'I' for Inactive)
REMARK    1  A    between atoms: C_1  and  C_2
REMARK    2  A    between atoms: C_4  and  C_5
REMARK    3  A    between atoms: C_5  and  O_6
REMARK    4  A    between atoms: O_6  and  C_7
REMARK    5  A    between atoms: C_10  and  N_11
REMARK    6  A    between atoms: C_12  and  C_14
REMARK    7  A    between atoms: C_14  and  C_15
REMARK                            x       y       z     vdW  Elec       q    Type
REMARK                         _______ _______ _______ _____ _____    ______ ____
ROOT
ATOM      1  C   UNL     1       0.872   9.218  20.063  0.00  0.00    +0.000 A 
ATOM      2  C   UNL     1       1.248   8.043  20.702  0.00  0.00    +0.000 A 
ATOM      3  C   UNL     1       2.107   7.150  20.076  0.00  0.00    +0.000 A 
ATOM      4  C   UNL     1       2.566   7.384  18.780  0.00  0.00    +0.000 A 
ATOM      5  C   UNL     1       2.188   8.566  18.134  0.00  0.00    +0.000 A 
ATOM      6  C   UNL     1       1.331   9.474  18.771  0.00  0.00    +0.000 A 
ENDROOT
BRANCH   4   7
ATOM      7  N   UNL     1       3.388   6.459  18.100  0.00  0.00    +0.000 N 
ATOM      8  C   UNL     1       3.020   5.162  17.771  0.00  0.00    +0.000 C 
ATOM      9  O   UNL     1       1.934   4.638  18.000  0.00  0.00    +0.000 OA
ATOM     10  H   UNL     1       4.260   6.817  17.728  0.00  0.00    +0.000 HD
BRANCH   8  11
ATOM     11  C   UNL     1       4.100   4.406  17.036  0.00  0.00    +0.000 C 
BRANCH  11  12
ATOM     12  C   UNL     1       5.370   5.242  16.956  0.00  0.00    +0.000 C 
ATOM     13  N   UNL     1       6.378   4.858  17.920  0.00  0.00    +0.000 N 
ATOM     14  C   UNL     1       7.542   4.441  17.330  0.00  0.00    +0.000 C 
ATOM     15  O   UNL     1       8.563   4.135  17.918  0.00  0.00    +0.000 OA
ATOM     16  N   UNL     1       7.361   4.449  15.989  0.00  0.00    +0.000 N 
ATOM     17  C   UNL     1       6.133   4.941  15.670  0.00  0.00    +0.000 C 
ATOM     18  O   UNL     1       5.709   5.102  14.535  0.00  0.00    +0.000 OA
ATOM     19  H   UNL     1       6.313   5.045  18.917  0.00  0.00    +0.000 HD
ATOM     20  H   UNL     1       8.073   4.198  15.327  0.00  0.00    +0.000 HD
ENDBRANCH  11  12
ENDBRANCH   8  11
ENDBRANCH   4   7
BRANCH   1  21
ATOM     21  O   UNL     1       0.067  10.168  20.628  0.00  0.00    +0.000 OA
BRANCH  21  22
ATOM     22  C   UNL     1      -0.117  11.335  19.815  0.00  0.00    +0.000 C 
BRANCH  22  26
ATOM     23  C   UNL     1      -4.317  13.508  21.489  0.00  0.00    +0.000 C 
ATOM     24  C   UNL     1      -3.581  12.717  20.446  0.00  0.00    +0.000 A 
ATOM     25  C   UNL     1      -2.237  12.439  20.610  0.00  0.00    +0.000 A 
ATOM     26  C   UNL     1      -1.575  11.684  19.639  0.00  0.00    +0.000 A 
ATOM     27  C   UNL     1      -2.294  11.235  18.501  0.00  0.00    +0.000 A 
ATOM     28  C   UNL     1      -1.722  10.469  17.452  0.00  0.00    +0.000 A 
ATOM     29  C   UNL     1      -2.484  10.050  16.365  0.00  0.00    +0.000 A 
ATOM     30  C   UNL     1      -3.826  10.387  16.304  0.00  0.00    +0.000 A 
ATOM     31  C   UNL     1      -4.398  11.141  17.331  0.00  0.00    +0.000 A 
ATOM     32  C   UNL     1      -3.661  11.574  18.428  0.00  0.00    +0.000 A 
ATOM     33  N   UNL     1      -4.287  12.295  19.377  0.00  0.00    +0.000 NA
ENDBRANCH  22  26
ENDBRANCH  21  22
ENDBRANCH   1  21
TORSDOF 6
ENDMDL
MODEL 8
REMARK VINA RESULT:      -8.7      2.631      9.493
REMARK  Name = 
REMARK  7 active torsions:
REMARK  status: ('A' for Active; 'I' for Inactive)
REMARK    1  A    between atoms: C_1  and  C_2
REMARK    2  A    between atoms: C_4  and  C_5
REMARK    3  A    between atoms: C_5  and  O_6
REMARK    4  A    between atoms: O_6  and  C_7
REMARK    5  A    between atoms: C_10  and  N_11
REMARK    6  A    between atoms: C_12  and  C_14
REMARK    7  A    between atoms: C_14  and  C_15
REMARK                            x       y       z     vdW  Elec       q    Type
REMARK                         _______ _______ _______ _____ _____    ______ ____
ROOT
ATOM      1  C   UNL     1       8.170   7.601  18.421  0.00  0.00    +0.000 A 
ATOM      2  C   UNL     1       8.067   6.384  19.084  0.00  0.00    +0.000 A 
ATOM      3  C   UNL     1       7.110   5.455  18.697  0.00  0.00    +0.000 A 
ATOM      4  C   UNL     1       6.203   5.741  17.678  0.00  0.00    +0.000 A 
ATOM      5  C   UNL     1       6.303   6.966  17.010  0.00  0.00    +0.000 A 
ATOM      6  C   UNL     1       7.278   7.899  17.391  0.00  0.00    +0.000 A 
ENDROOT
BRANCH   4   7
ATOM      7  N   UNL     1       5.181   4.838  17.312  0.00  0.00    +0.000 N 
ATOM      8  C   UNL     1       3.962   4.712  17.964  0.00  0.00    +0.000 C 
ATOM      9  O   UNL     1       3.586   5.370  18.930  0.00  0.00    +0.000 OA
ATOM     10  H   UNL     1       5.311   4.336  16.441  0.00  0.00    +0.000 HD
BRANCH   8  11
ATOM     11  C   UNL     1       3.061   3.671  17.344  0.00  0.00    +0.000 C 
BRANCH  11  12
ATOM     12  C   UNL     1       3.020   2.422  18.214  0.00  0.00    +0.000 C 
ATOM     13  N   UNL     1       4.273   2.137  18.878  0.00  0.00    +0.000 N 
ATOM     14  C   UNL     1       4.162   2.148  20.244  0.00  0.00    +0.000 C 
ATOM     15  O   UNL     1       5.049   1.870  21.029  0.00  0.00    +0.000 OA
ATOM     16  N   UNL     1       2.895   2.504  20.560  0.00  0.00    +0.000 N 
ATOM     17  C   UNL     1       2.138   2.647  19.438  0.00  0.00    +0.000 C 
ATOM     18  O   UNL     1       0.948   2.923  19.418  0.00  0.00    +0.000 OA
ATOM     19  H   UNL     1       5.101   1.785  18.406  0.00  0.00    +0.000 HD
ATOM     20  H   UNL     1       2.551   2.572  21.501  0.00  0.00    +0.000 HD
ENDBRANCH  11  12
ENDBRANCH   8  11
ENDBRANCH   4   7
BRANCH   1  21
ATOM     21  O   UNL     1       9.112   8.548  18.711  0.00  0.00    +0.000 OA
BRANCH  21  22
ATOM     22  C   UNL     1       8.701   9.889  18.412  0.00  0.00    +0.000 C 
BRANCH  22  26
ATOM     23  C   UNL     1       8.685  12.022  22.952  0.00  0.00    +0.000 C 
ATOM     24  C   UNL     1       9.242  11.911  21.562  0.00  0.00    +0.000 A 
ATOM     25  C   UNL     1       8.741  10.963  20.690  0.00  0.00    +0.000 A 
ATOM     26  C   UNL     1       9.259  10.890  19.395  0.00  0.00    +0.000 A 
ATOM     27  C   UNL     1      10.296  11.779  19.012  0.00  0.00    +0.000 A 
ATOM     28  C   UNL     1      10.900  11.789  17.727  0.00  0.00    +0.000 A 
ATOM     29  C   UNL     1      11.908  12.694  17.408  0.00  0.00    +0.000 A 
ATOM     30  C   UNL     1      12.333  13.602  18.363  0.00  0.00    +0.000 A 
ATOM     31  C   UNL     1      11.747  13.600  19.631  0.00  0.00    +0.000 A 
ATOM     32  C   UNL     1      10.738  12.708  19.977  0.00  0.00    +0.000 A 
ATOM     33  N   UNL     1      10.223  12.772  21.219  0.00  0.00    +0.000 NA
ENDBRANCH  22  26
ENDBRANCH  21  22
ENDBRANCH   1  21
TORSDOF 6
ENDMDL
MODEL 9
REMARK VINA RESULT:      -8.7      5.827      9.262
REMARK  Name = 
REMARK  7 active torsions:
REMARK  status: ('A' for Active; 'I' for Inactive)
REMARK    1  A    between atoms: C_1  and  C_2
REMARK    2  A    between atoms: C_4  and  C_5
REMARK    3  A    between atoms: C_5  and  O_6
REMARK    4  A    between atoms: O_6  and  C_7
REMARK    5  A    between atoms: C_10  and  N_11
REMARK    6  A    between atoms: C_12  and  C_14
REMARK    7  A    between atoms: C_14  and  C_15
REMARK                            x       y       z     vdW  Elec       q    Type
REMARK                         _______ _______ _______ _____ _____    ______ ____
ROOT
ATOM      1  C   UNL     1       1.246   9.352  19.193  0.00  0.00    +0.000 A 
ATOM      2  C   UNL     1       0.963   8.963  20.497  0.00  0.00    +0.000 A 
ATOM      3  C   UNL     1       1.431   7.749  20.982  0.00  0.00    +0.000 A 
ATOM      4  C   UNL     1       2.144   6.875  20.163  0.00  0.00    +0.000 A 
ATOM      5  C   UNL     1       2.429   7.264  18.849  0.00  0.00    +0.000 A 
ATOM      6  C   UNL     1       1.968   8.495  18.363  0.00  0.00    +0.000 A 
ENDROOT
BRANCH   4   7
ATOM      7  N   UNL     1       2.573   5.608  20.616  0.00  0.00    +0.000 N 
ATOM      8  C   UNL     1       1.752   4.499  20.767  0.00  0.00    +0.000 C 
ATOM      9  O   UNL     1       0.552   4.448  20.516  0.00  0.00    +0.000 OA
ATOM     10  H   UNL     1       3.573   5.481  20.721  0.00  0.00    +0.000 HD
BRANCH   8  11
ATOM     11  C   UNL     1       2.489   3.278  21.260  0.00  0.00    +0.000 C 
BRANCH  11  12
ATOM     12  C   UNL     1       2.676   2.279  20.125  0.00  0.00    +0.000 C 
ATOM     13  N   UNL     1       1.965   2.637  18.916  0.00  0.00    +0.000 N 
ATOM     14  C   UNL     1       2.802   2.827  17.848  0.00  0.00    +0.000 C 
ATOM     15  O   UNL     1       2.451   3.062  16.707  0.00  0.00    +0.000 OA
ATOM     16  N   UNL     1       4.077   2.688  18.282  0.00  0.00    +0.000 N 
ATOM     17  C   UNL     1       4.105   2.328  19.594  0.00  0.00    +0.000 C 
ATOM     18  O   UNL     1       5.114   2.094  20.241  0.00  0.00    +0.000 OA
ATOM     19  H   UNL     1       0.957   2.576  18.810  0.00  0.00    +0.000 HD
ATOM     20  H   UNL     1       4.882   2.766  17.687  0.00  0.00    +0.000 HD
ENDBRANCH  11  12
ENDBRANCH   8  11
ENDBRANCH   4   7
BRANCH   1  21
ATOM     21  O   UNL     1       0.861  10.548  18.655  0.00  0.00    +0.000 OA
BRANCH  21  22
ATOM     22  C   UNL     1      -0.439  10.522  18.048  0.00  0.00    +0.000 C 
BRANCH  22  26
ATOM     23  C   UNL     1      -1.773  12.893  22.263  0.00  0.00    +0.000 C 
ATOM     24  C   UNL     1      -2.104  12.381  20.891  0.00  0.00    +0.000 A 
ATOM     25  C   UNL     1      -1.135  11.744  20.138  0.00  0.00    +0.000 A 
ATOM     26  C   UNL     1      -1.469  11.256  18.873  0.00  0.00    +0.000 A 
ATOM     27  C   UNL     1      -2.788  11.441  18.384  0.00  0.00    +0.000 A 
ATOM     28  C   UNL     1      -3.234  10.994  17.113  0.00  0.00    +0.000 A 
ATOM     29  C   UNL     1      -4.546  11.196  16.695  0.00  0.00    +0.000 A 
ATOM     30  C   UNL     1      -5.435  11.849  17.533  0.00  0.00    +0.000 A 
ATOM     31  C   UNL     1      -5.005  12.294  18.786  0.00  0.00    +0.000 A 
ATOM     32  C   UNL     1      -3.701  12.105  19.230  0.00  0.00    +0.000 A 
ATOM     33  N   UNL     1      -3.367  12.562  20.451  0.00  0.00    +0.000 NA
ENDBRANCH  22  26
ENDBRANCH  21  22
ENDBRANCH   1  21
TORSDOF 6
ENDMDL
