MODEL 1
REMARK VINA RESULT:      -7.9      0.000      0.000
REMARK  Name = 
REMARK  7 active torsions:
REMARK  status: ('A' for Active; 'I' for Inactive)
REMARK    1  A    between atoms: C_1  and  C_2
REMARK    2  A    between atoms: C_2  and  C_3
REMARK    3  A    between atoms: C_2  and  C_4
REMARK    4  A    between atoms: N_6  and  C_7
REMARK    5  A    between atoms: C_7  and  C_8
REMARK    6  A    between atoms: C_8  and  C_9
REMARK    7  A    between atoms: C_8  and  N_18
REMARK                            x       y       z     vdW  Elec       q    Type
REMARK                         _______ _______ _______ _____ _____    ______ ____
ROOT
ATOM      1  C   UNL     1       2.988   5.802  18.908  0.00  0.00    +0.000 C 
ENDROOT
BRANCH   1   2
ATOM      2  C   UNL     1       2.316   7.180  19.022  0.00  0.00    +0.000 A 
ATOM      3  C   UNL     1       2.172   8.056  17.914  0.00  0.00    +0.000 A 
ATOM      4  C   UNL     1       1.649   9.343  18.065  0.00  0.00    +0.000 A 
ATOM      5  C   UNL     1       1.264   9.734  19.327  0.00  0.00    +0.000 A 
ATOM      6  C   UNL     1       1.359   8.886  20.406  0.00  0.00    +0.000 A 
ATOM      7  C   UNL     1       1.859   7.604  20.284  0.00  0.00    +0.000 A 
ATOM      8  O   UNL     1       0.927   9.463  21.557  0.00  0.00    +0.000 OA
ATOM      9  C   UNL     1       0.650  10.801  21.095  0.00  0.00    +0.000 C 
ATOM     10  O   UNL     1       0.773  10.950  19.671  0.00  0.00    +0.000 OA
ENDBRANCH   1   2
BRANCH   1  11
ATOM     11  N   UNL     1       2.029   4.701  19.146  0.00  0.00    +0.000 NA
ATOM     12  C   UNL     1       2.328   3.875  20.331  0.00  0.00    +0.000 C 
ATOM     13  C   UNL     1       3.282   2.687  20.085  0.00  0.00    +0.000 C 
ATOM     14  O   UNL     1       2.857   1.883  18.978  0.00  0.00    +0.000 OA
ATOM     15  C   UNL     1       2.692   2.671  17.793  0.00  0.00    +0.000 C 
ATOM     16  C   UNL     1       1.701   3.820  18.014  0.00  0.00    +0.000 C 
ENDBRANCH   1  11
BRANCH   1  17
ATOM     17  C   UNL     1       3.927   5.713  17.670  0.00  0.00    +0.000 C 
BRANCH  17  20
ATOM     18  C   UNL     1       6.137   6.604  17.035  0.00  0.00    +0.000 C 
ATOM     19  O   UNL     1       5.756   6.893  15.906  0.00  0.00    +0.000 OA
ATOM     20  N   UNL     1       5.317   6.013  17.969  0.00  0.00    +0.000 N 
ATOM     21  H   UNL     1       5.733   5.591  18.791  0.00  0.00    +0.000 HD
BRANCH  18  23
ATOM     22  C   UNL     1       7.820   8.350  17.678  0.00  0.00    +0.000 C 
ATOM     23  C   UNL     1       7.554   6.853  17.539  0.00  0.00    +0.000 C 
ATOM     24  C   UNL     1       7.780   6.150  18.878  0.00  0.00    +0.000 C 
ENDBRANCH  18  23
ENDBRANCH  17  20
ENDBRANCH   1  17
TORSDOF 5
ENDMDL
MODEL 2
REMARK VINA RESULT:      -7.8      1.634      4.907
REMARK  Name = 
REMARK  7 active torsions:
REMARK  status: ('A' for Active; 'I' for Inactive)
REMARK    1  A    between atoms: C_1  and  C_2
REMARK    2  A    between atoms: C_2  and  C_3
REMARK    3  A    between atoms: C_2  and  C_4
REMARK    4  A    between atoms: N_6  and  C_7
REMARK    5  A    between atoms: C_7  and  C_8
REMARK    6  A    between atoms: C_8  and  C_9
REMARK    7  A    between atoms: C_8  and  N_18
REMARK                            x       y       z     vdW  Elec       q    Type
REMARK                         _______ _______ _______ _____ _____    ______ ____
ROOT
ATOM      1  C   UNL     1       4.258   5.524  17.443  0.00  0.00    +0.000 C 
ENDROOT
BRANCH   1   2
ATOM      2  C   UNL     1       3.414   6.590  18.160  0.00  0.00    +0.000 A 
ATOM      3  C   UNL     1       2.884   6.400  19.463  0.00  0.00    +0.000 A 
ATOM      4  C   UNL     1       2.035   7.343  20.050  0.00  0.00    +0.000 A 
ATOM      5  C   UNL     1       1.739   8.475  19.327  0.00  0.00    +0.000 A 
ATOM      6  C   UNL     1       2.274   8.697  18.079  0.00  0.00    +0.000 A 
ATOM      7  C   UNL     1       3.125   7.789  17.480  0.00  0.00    +0.000 A 
ATOM      8  O   UNL     1       1.857   9.870  17.538  0.00  0.00    +0.000 OA
ATOM      9  C   UNL     1       0.918  10.307  18.542  0.00  0.00    +0.000 C 
ATOM     10  O   UNL     1       0.910   9.476  19.716  0.00  0.00    +0.000 OA
ENDBRANCH   1   2
BRANCH   1  11
ATOM     11  N   UNL     1       5.450   6.110  16.792  0.00  0.00    +0.000 NA
ATOM     12  C   UNL     1       5.756   5.552  15.462  0.00  0.00    +0.000 C 
ATOM     13  C   UNL     1       6.656   4.298  15.463  0.00  0.00    +0.000 C 
ATOM     14  O   UNL     1       7.845   4.496  16.236  0.00  0.00    +0.000 OA
ATOM     15  C   UNL     1       7.537   4.915  17.571  0.00  0.00    +0.000 C 
ATOM     16  C   UNL     1       6.690   6.194  17.578  0.00  0.00    +0.000 C 
ENDBRANCH   1  11
BRANCH   1  17
ATOM     17  C   UNL     1       4.443   4.246  18.315  0.00  0.00    +0.000 C 
BRANCH  17  20
ATOM     18  C   UNL     1       3.160   2.694  19.737  0.00  0.00    +0.000 C 
ATOM     19  O   UNL     1       4.173   2.284  20.295  0.00  0.00    +0.000 OA
ATOM     20  N   UNL     1       3.191   3.648  18.745  0.00  0.00    +0.000 N 
ATOM     21  H   UNL     1       2.371   3.781  18.167  0.00  0.00    +0.000 HD
BRANCH  18  23
ATOM     22  C   UNL     1       1.240   2.841  21.345  0.00  0.00    +0.000 C 
ATOM     23  C   UNL     1       1.756   2.197  20.060  0.00  0.00    +0.000 C 
ATOM     24  C   UNL     1       0.802   2.491  18.902  0.00  0.00    +0.000 C 
ENDBRANCH  18  23
ENDBRANCH  17  20
ENDBRANCH   1  17
TORSDOF 5
ENDMDL
MODEL 3
REMARK VINA RESULT:      -7.8      0.834      1.530
REMARK  Name = 
REMARK  7 active torsions:
REMARK  status: ('A' for Active; 'I' for Inactive)
REMARK    1  A    between atoms: C_1  and  C_2
REMARK    2  A    between atoms: C_2  and  C_3
REMARK    3  A    between atoms: C_2  and  C_4
REMARK    4  A    between atoms: N_6  and  C_7
REMARK    5  A    between atoms: C_7  and  C_8
REMARK    6  A    between atoms: C_8  and  C_9
REMARK    7  A    between atoms: C_8  and  N_18
REMARK                            x       y       z     vdW  Elec       q    Type
REMARK                         _______ _______ _______ _____ _____    ______ ____
ROOT
ATOM      1  C   UNL     1       3.268   5.415  19.204  0.00  0.00    +0.000 C 
ENDROOT
BRANCH   1   2
ATOM      2  C   UNL     1       2.546   6.752  19.441  0.00  0.00    +0.000 A 
ATOM      3  C   UNL     1       1.878   7.056  20.655  0.00  0.00    +0.000 A 
ATOM      4  C   UNL     1       1.144   8.237  20.807  0.00  0.00    +0.000 A 
ATOM      5  C   UNL     1       1.101   9.106  19.742  0.00  0.00    +0.000 A 
ATOM      6  C   UNL     1       1.775   8.847  18.570  0.00  0.00    +0.000 A 
ATOM      7  C   UNL     1       2.519   7.695  18.397  0.00  0.00    +0.000 A 
ATOM      8  O   UNL     1       1.604   9.827  17.647  0.00  0.00    +0.000 OA
ATOM      9  C   UNL     1       0.662  10.677  18.334  0.00  0.00    +0.000 C 
ATOM     10  O   UNL     1       0.414  10.273  19.691  0.00  0.00    +0.000 OA
ENDBRANCH   1   2
BRANCH   1  11
ATOM     11  N   UNL     1       2.383   4.258  19.463  0.00  0.00    +0.000 NA
ATOM     12  C   UNL     1       2.992   3.195  20.283  0.00  0.00    +0.000 C 
ATOM     13  C   UNL     1       3.780   2.125  19.499  0.00  0.00    +0.000 C 
ATOM     14  O   UNL     1       3.013   1.581  18.420  0.00  0.00    +0.000 OA
ATOM     15  C   UNL     1       2.530   2.611  17.550  0.00  0.00    +0.000 C 
ATOM     16  C   UNL     1       1.697   3.648  18.313  0.00  0.00    +0.000 C 
ENDBRANCH   1  11
BRANCH   1  17
ATOM     17  C   UNL     1       4.104   5.429  17.890  0.00  0.00    +0.000 C 
BRANCH  17  20
ATOM     18  C   UNL     1       6.160   6.596  17.191  0.00  0.00    +0.000 C 
ATOM     19  O   UNL     1       5.630   7.032  16.174  0.00  0.00    +0.000 OA
ATOM     20  N   UNL     1       5.496   5.792  18.090  0.00  0.00    +0.000 N 
ATOM     21  H   UNL     1       6.033   5.278  18.777  0.00  0.00    +0.000 HD
BRANCH  18  23
ATOM     22  C   UNL     1       7.856   8.381  17.674  0.00  0.00    +0.000 C 
ATOM     23  C   UNL     1       7.607   6.877  17.578  0.00  0.00    +0.000 C 
ATOM     24  C   UNL     1       7.950   6.200  18.905  0.00  0.00    +0.000 C 
ENDBRANCH  18  23
ENDBRANCH  17  20
ENDBRANCH   1  17
TORSDOF 5
ENDMDL
MODEL 4
REMARK VINA RESULT:      -7.7      2.339      6.029
REMARK  Name = 
REMARK  7 active torsions:
REMARK  status: ('A' for Active; 'I' for Inactive)
REMARK    1  A    between atoms: C_1  and  C_2
REMARK    2  A    between atoms: C_2  and  C_3
REMARK    3  A    between atoms: C_2  and  C_4
REMARK    4  A    between atoms: N_6  and  C_7
REMARK    5  A    between atoms: C_7  and  C_8
REMARK    6  A    between atoms: C_8  and  C_9
REMARK    7  A    between atoms: C_8  and  N_18
REMARK                            x       y       z     vdW  Elec       q    Type
REMARK                         _______ _______ _______ _____ _____    ______ ____
ROOT
ATOM      1  C   UNL     1       3.605   4.403  18.688  0.00  0.00    +0.000 C 
ENDROOT
BRANCH   1   2
ATOM      2  C   UNL     1       4.800   4.417  17.720  0.00  0.00    +0.000 A 
ATOM      3  C   UNL     1       6.131   4.652  18.150  0.00  0.00    +0.000 A 
ATOM      4  C   UNL     1       7.184   4.761  17.237  0.00  0.00    +0.000 A 
ATOM      5  C   UNL     1       6.890   4.619  15.901  0.00  0.00    +0.000 A 
ATOM      6  C   UNL     1       5.613   4.353  15.467  0.00  0.00    +0.000 A 
ATOM      7  C   UNL     1       4.555   4.226  16.347  0.00  0.00    +0.000 A 
ATOM      8  O   UNL     1       5.536   4.249  14.115  0.00  0.00    +0.000 OA
ATOM      9  C   UNL     1       6.889   4.587  13.746  0.00  0.00    +0.000 C 
ATOM     10  O   UNL     1       7.769   4.730  14.874  0.00  0.00    +0.000 OA
ENDBRANCH   1   2
BRANCH   1  11
ATOM     11  N   UNL     1       3.263   3.030  19.120  0.00  0.00    +0.000 NA
ATOM     12  C   UNL     1       1.904   2.593  18.747  0.00  0.00    +0.000 C 
ATOM     13  C   UNL     1       0.796   2.944  19.762  0.00  0.00    +0.000 C 
ATOM     14  O   UNL     1       1.136   2.526  21.088  0.00  0.00    +0.000 OA
ATOM     15  C   UNL     1       2.402   3.060  21.496  0.00  0.00    +0.000 C 
ATOM     16  C   UNL     1       3.519   2.667  20.522  0.00  0.00    +0.000 C 
ENDBRANCH   1  11
BRANCH   1  17
ATOM     17  C   UNL     1       3.722   5.514  19.773  0.00  0.00    +0.000 C 
BRANCH  17  20
ATOM     18  C   UNL     1       2.706   7.483  18.691  0.00  0.00    +0.000 C 
ATOM     19  O   UNL     1       3.596   7.544  17.848  0.00  0.00    +0.000 OA
ATOM     20  N   UNL     1       2.686   6.528  19.683  0.00  0.00    +0.000 N 
ATOM     21  H   UNL     1       2.071   6.658  20.476  0.00  0.00    +0.000 HD
BRANCH  18  23
ATOM     22  C   UNL     1       1.237   8.850  20.195  0.00  0.00    +0.000 C 
ATOM     23  C   UNL     1       1.530   8.449  18.752  0.00  0.00    +0.000 C 
ATOM     24  C   UNL     1       1.811   9.691  17.905  0.00  0.00    +0.000 C 
ENDBRANCH  18  23
ENDBRANCH  17  20
ENDBRANCH   1  17
TORSDOF 5
ENDMDL
MODEL 5
REMARK VINA RESULT:      -7.7      1.387      1.785
REMARK  Name = 
REMARK  7 active torsions:
REMARK  status: ('A' for Active; 'I' for Inactive)
REMARK    1  A    between atoms: C_1  and  C_2
REMARK    2  A    between atoms: C_2  and  C_3
REMARK    3  A    between atoms: C_2  and  C_4
REMARK    4  A    between atoms: N_6  and  C_7
REMARK    5  A    between atoms: C_7  and  C_8
REMARK    6  A    between atoms: C_8  and  C_9
REMARK    7  A    between atoms: C_8  and  N_18
REMARK                            x       y       z     vdW  Elec       q    Type
REMARK                         _______ _______ _______ _____ _____    ______ ____
ROOT
ATOM      1  C   UNL     1       3.120   5.058  19.278  0.00  0.00    +0.000 C 
ENDROOT
BRANCH   1   2
ATOM      2  C   UNL     1       2.512   6.467  19.183  0.00  0.00    +0.000 A 
ATOM      3  C   UNL     1       2.568   7.246  17.998  0.00  0.00    +0.000 A 
ATOM      4  C   UNL     1       2.098   8.563  17.967  0.00  0.00    +0.000 A 
ATOM      5  C   UNL     1       1.564   9.078  19.125  0.00  0.00    +0.000 A 
ATOM      6  C   UNL     1       1.464   8.326  20.273  0.00  0.00    +0.000 A 
ATOM      7  C   UNL     1       1.908   7.019  20.328  0.00  0.00    +0.000 A 
ATOM      8  O   UNL     1       0.909   9.019  21.300  0.00  0.00    +0.000 OA
ATOM      9  C   UNL     1       0.769  10.322  20.696  0.00  0.00    +0.000 C 
ATOM     10  O   UNL     1       1.095  10.339  19.296  0.00  0.00    +0.000 OA
ENDBRANCH   1   2
BRANCH   1  11
ATOM     11  N   UNL     1       2.732   4.212  18.129  0.00  0.00    +0.000 NA
ATOM     12  C   UNL     1       1.294   3.889  18.067  0.00  0.00    +0.000 C 
ATOM     13  C   UNL     1       0.866   2.628  18.847  0.00  0.00    +0.000 C 
ATOM     14  O   UNL     1       1.674   1.494  18.513  0.00  0.00    +0.000 OA
ATOM     15  C   UNL     1       3.067   1.772  18.700  0.00  0.00    +0.000 C 
ATOM     16  C   UNL     1       3.513   2.990  17.881  0.00  0.00    +0.000 C 
ENDBRANCH   1  11
BRANCH   1  17
ATOM     17  C   UNL     1       4.619   5.098  19.697  0.00  0.00    +0.000 C 
BRANCH  17  20
ATOM     18  C   UNL     1       6.852   5.741  18.872  0.00  0.00    +0.000 C 
ATOM     19  O   UNL     1       7.377   5.515  19.958  0.00  0.00    +0.000 OA
ATOM     20  N   UNL     1       5.504   5.576  18.648  0.00  0.00    +0.000 N 
ATOM     21  H   UNL     1       5.090   5.990  17.821  0.00  0.00    +0.000 HD
BRANCH  18  23
ATOM     22  C   UNL     1       6.949   5.751  16.365  0.00  0.00    +0.000 C 
ATOM     23  C   UNL     1       7.617   6.236  17.650  0.00  0.00    +0.000 C 
ATOM     24  C   UNL     1       7.708   7.762  17.654  0.00  0.00    +0.000 C 
ENDBRANCH  18  23
ENDBRANCH  17  20
ENDBRANCH   1  17
TORSDOF 5
ENDMDL
MODEL 6
REMARK VINA RESULT:      -7.6      1.435      4.501
REMARK  Name = 
REMARK  7 active torsions:
REMARK  status: ('A' for Active; 'I' for Inactive)
REMARK    1  A    between atoms: C_1  and  C_2
REMARK    2  A    between atoms: C_2  and  C_3
REMARK    3  A    between atoms: C_2  and  C_4
REMARK    4  A    between atoms: N_6  and  C_7
REMARK    5  A    between atoms: C_7  and  C_8
REMARK    6  A    between atoms: C_8  and  C_9
REMARK    7  A    between atoms: C_8  and  N_18
REMARK                            x       y       z     vdW  Elec       q    Type
REMARK                         _______ _______ _______ _____ _____    ______ ____
ROOT
ATOM      1  C   UNL     1       4.182   5.797  18.032  0.00  0.00    +0.000 C 
ENDROOT
BRANCH   1   2
ATOM      2  C   UNL     1       3.177   6.910  18.373  0.00  0.00    +0.000 A 
ATOM      3  C   UNL     1       2.881   7.973  17.480  0.00  0.00    +0.000 A 
ATOM      4  C   UNL     1       2.041   9.026  17.853  0.00  0.00    +0.000 A 
ATOM      5  C   UNL     1       1.495   8.993  19.116  0.00  0.00    +0.000 A 
ATOM      6  C   UNL     1       1.739   7.952  19.981  0.00  0.00    +0.000 A 
ATOM      7  C   UNL     1       2.554   6.891  19.634  0.00  0.00    +0.000 A 
ATOM      8  O   UNL     1       1.108   8.110  21.173  0.00  0.00    +0.000 OA
ATOM      9  C   UNL     1       0.528   9.419  20.994  0.00  0.00    +0.000 C 
ATOM     10  O   UNL     1       0.693   9.939  19.664  0.00  0.00    +0.000 OA
ENDBRANCH   1   2
BRANCH   1  11
ATOM     11  N   UNL     1       5.323   6.308  17.243  0.00  0.00    +0.000 NA
ATOM     12  C   UNL     1       5.433   5.736  15.888  0.00  0.00    +0.000 C 
ATOM     13  C   UNL     1       6.245   4.427  15.787  0.00  0.00    +0.000 C 
ATOM     14  O   UNL     1       7.527   4.545  16.413  0.00  0.00    +0.000 OA
ATOM     15  C   UNL     1       7.407   4.978  17.774  0.00  0.00    +0.000 C 
ATOM     16  C   UNL     1       6.651   6.309  17.876  0.00  0.00    +0.000 C 
ENDBRANCH   1  11
BRANCH   1  17
ATOM     17  C   UNL     1       4.479   4.886  19.260  0.00  0.00    +0.000 C 
BRANCH  17  20
ATOM     18  C   UNL     1       3.101   2.843  19.156  0.00  0.00    +0.000 C 
ATOM     19  O   UNL     1       3.815   2.342  18.293  0.00  0.00    +0.000 OA
ATOM     20  N   UNL     1       3.339   4.091  19.685  0.00  0.00    +0.000 N 
ATOM     21  H   UNL     1       2.605   4.548  20.213  0.00  0.00    +0.000 HD
BRANCH  18  23
ATOM     22  C   UNL     1       1.595   2.658  21.153  0.00  0.00    +0.000 C 
ATOM     23  C   UNL     1       1.870   2.159  19.737  0.00  0.00    +0.000 C 
ATOM     24  C   UNL     1       0.650   2.401  18.846  0.00  0.00    +0.000 C 
ENDBRANCH  18  23
ENDBRANCH  17  20
ENDBRANCH   1  17
TORSDOF 5
ENDMDL
MODEL 7
REMARK VINA RESULT:      -7.6      1.817      6.040
REMARK  Name = 
REMARK  7 active torsions:
REMARK  status: ('A' for Active; 'I' for Inactive)
REMARK    1  A    between atoms: C_1  and  C_2
REMARK    2  A    between atoms: C_2  and  C_3
REMARK    3  A    between atoms: C_2  and  C_4
REMARK    4  A    between atoms: N_6  and  C_7
REMARK    5  A    between atoms: C_7  and  C_8
REMARK    6  A    between atoms: C_8  and  C_9
REMARK    7  A    between atoms: C_8  and  N_18
REMARK                            x       y       z     vdW  Elec       q    Type
REMARK                         _______ _______ _______ _____ _____    ______ ____
ROOT
ATOM      1  C   UNL     1       3.059   4.830  18.472  0.00  0.00    +0.000 C 
ENDROOT
BRANCH   1   2
ATOM      2  C   UNL     1       4.357   5.006  17.667  0.00  0.00    +0.000 A 
ATOM      3  C   UNL     1       5.407   5.866  18.084  0.00  0.00    +0.000 A 
ATOM      4  C   UNL     1       6.532   6.085  17.284  0.00  0.00    +0.000 A 
ATOM      5  C   UNL     1       6.597   5.427  16.077  0.00  0.00    +0.000 A 
ATOM      6  C   UNL     1       5.609   4.560  15.673  0.00  0.00    +0.000 A 
ATOM      7  C   UNL     1       4.492   4.314  16.449  0.00  0.00    +0.000 A 
ATOM      8  O   UNL     1       5.863   4.016  14.456  0.00  0.00    +0.000 OA
ATOM      9  C   UNL     1       7.070   4.721  14.097  0.00  0.00    +0.000 C 
ATOM     10  O   UNL     1       7.586   5.544  15.157  0.00  0.00    +0.000 OA
ENDBRANCH   1   2
BRANCH   1  11
ATOM     11  N   UNL     1       2.787   3.408  18.776  0.00  0.00    +0.000 NA
ATOM     12  C   UNL     1       1.360   3.038  18.737  0.00  0.00    +0.000 C 
ATOM     13  C   UNL     1       0.591   3.230  20.061  0.00  0.00    +0.000 C 
ATOM     14  O   UNL     1       1.265   2.613  21.163  0.00  0.00    +0.000 OA
ATOM     15  C   UNL     1       2.616   3.074  21.276  0.00  0.00    +0.000 C 
ATOM     16  C   UNL     1       3.403   2.834  19.981  0.00  0.00    +0.000 C 
ENDBRANCH   1  11
BRANCH   1  17
ATOM     17  C   UNL     1       2.945   5.869  19.627  0.00  0.00    +0.000 C 
BRANCH  17  20
ATOM     18  C   UNL     1       1.734   7.981  20.018  0.00  0.00    +0.000 C 
ATOM     19  O   UNL     1       1.397   7.640  21.147  0.00  0.00    +0.000 OA
ATOM     20  N   UNL     1       2.486   7.176  19.191  0.00  0.00    +0.000 N 
ATOM     21  H   UNL     1       2.539   7.401  18.205  0.00  0.00    +0.000 HD
BRANCH  18  23
ATOM     22  C   UNL     1       1.381   9.223  17.867  0.00  0.00    +0.000 C 
ATOM     23  C   UNL     1       1.359   9.318  19.391  0.00  0.00    +0.000 C 
ATOM     24  C   UNL     1      -0.020   9.770  19.872  0.00  0.00    +0.000 C 
ENDBRANCH  18  23
ENDBRANCH  17  20
ENDBRANCH   1  17
TORSDOF 5
ENDMDL
MODEL 8
REMARK VINA RESULT:      -7.4      1.405      4.470
REMARK  Name = 
REMARK  7 active torsions:
REMARK  status: ('A' for Active; 'I' for Inactive)
REMARK    1  A    between atoms: C_1  and  C_2
REMARK    2  A    between atoms: C_2  and  C_3
REMARK    3  A    between atoms: C_2  and  C_4
REMARK    4  A    between atoms: N_6  and  C_7
REMARK    5  A    between atoms: C_7  and  C_8
REMARK    6  A    between atoms: C_8  and  C_9
REMARK    7  A    between atoms: C_8  and  N_18
REMARK                            x       y       z     vdW  Elec       q    Type
REMARK                         _______ _______ _______ _____ _____    ______ ____
ROOT
ATOM      1  C   UNL     1       3.977   6.333  17.814  0.00  0.00    +0.000 C 
ENDROOT
BRANCH   1   2
ATOM      2  C   UNL     1       2.954   7.373  18.302  0.00  0.00    +0.000 A 
ATOM      3  C   UNL     1       2.553   8.482  17.512  0.00  0.00    +0.000 A 
ATOM      4  C   UNL     1       1.700   9.467  18.018  0.00  0.00    +0.000 A 
ATOM      5  C   UNL     1       1.248   9.322  19.309  0.00  0.00    +0.000 A 
ATOM      6  C   UNL     1       1.594   8.234  20.077  0.00  0.00    +0.000 A 
ATOM      7  C   UNL     1       2.424   7.238  19.599  0.00  0.00    +0.000 A 
ATOM      8  O   UNL     1       1.044   8.280  21.317  0.00  0.00    +0.000 OA
ATOM      9  C   UNL     1       0.401   9.571  21.275  0.00  0.00    +0.000 C 
ATOM     10  O   UNL     1       0.450  10.190  19.978  0.00  0.00    +0.000 OA
ENDBRANCH   1   2
BRANCH   1  11
ATOM     11  N   UNL     1       5.033   6.949  16.981  0.00  0.00    +0.000 NA
ATOM     12  C   UNL     1       5.170   6.360  15.636  0.00  0.00    +0.000 C 
ATOM     13  C   UNL     1       6.118   5.147  15.539  0.00  0.00    +0.000 C 
ATOM     14  O   UNL     1       7.396   5.420  16.125  0.00  0.00    +0.000 OA
ATOM     15  C   UNL     1       7.264   5.869  17.479  0.00  0.00    +0.000 C 
ATOM     16  C   UNL     1       6.369   7.110  17.576  0.00  0.00    +0.000 C 
ENDBRANCH   1  11
BRANCH   1  17
ATOM     17  C   UNL     1       4.403   5.358  18.951  0.00  0.00    +0.000 C 
BRANCH  17  20
ATOM     18  C   UNL     1       2.966   3.514  19.736  0.00  0.00    +0.000 C 
ATOM     19  O   UNL     1       2.612   4.142  20.729  0.00  0.00    +0.000 OA
ATOM     20  N   UNL     1       3.849   4.022  18.811  0.00  0.00    +0.000 N 
ATOM     21  H   UNL     1       4.280   3.391  18.146  0.00  0.00    +0.000 HD
BRANCH  18  23
ATOM     22  C   UNL     1       1.072   2.140  18.833  0.00  0.00    +0.000 C 
ATOM     23  C   UNL     1       2.485   2.106  19.410  0.00  0.00    +0.000 C 
ATOM     24  C   UNL     1       3.440   1.425  18.429  0.00  0.00    +0.000 C 
ENDBRANCH  18  23
ENDBRANCH  17  20
ENDBRANCH   1  17
TORSDOF 5
ENDMDL
MODEL 9
REMARK VINA RESULT:      -7.4      1.232      1.521
REMARK  Name = 
REMARK  7 active torsions:
REMARK  status: ('A' for Active; 'I' for Inactive)
REMARK    1  A    between atoms: C_1  and  C_2
REMARK    2  A    between atoms: C_2  and  C_3
REMARK    3  A    between atoms: C_2  and  C_4
REMARK    4  A    between atoms: N_6  and  C_7
REMARK    5  A    between atoms: C_7  and  C_8
REMARK    6  A    between atoms: C_8  and  C_9
REMARK    7  A    between atoms: C_8  and  N_18
REMARK                            x       y       z     vdW  Elec       q    Type
REMARK                         _______ _______ _______ _____ _____    ______ ____
ROOT
ATOM      1  C   UNL     1       3.098   5.502  19.044  0.00  0.00    +0.000 C 
ENDROOT
BRANCH   1   2
ATOM      2  C   UNL     1       2.393   6.863  19.163  0.00  0.00    +0.000 A 
ATOM      3  C   UNL     1       2.260   7.754  18.066  0.00  0.00    +0.000 A 
ATOM      4  C   UNL     1       1.705   9.028  18.225  0.00  0.00    +0.000 A 
ATOM      5  C   UNL     1       1.276   9.388  19.481  0.00  0.00    +0.000 A 
ATOM      6  C   UNL     1       1.360   8.524  20.549  0.00  0.00    +0.000 A 
ATOM      7  C   UNL     1       1.892   7.254  20.419  0.00  0.00    +0.000 A 
ATOM      8  O   UNL     1       0.884   9.070  21.696  0.00  0.00    +0.000 OA
ATOM      9  C   UNL     1       0.591  10.410  21.250  0.00  0.00    +0.000 C 
ATOM     10  O   UNL     1       0.750  10.587  19.832  0.00  0.00    +0.000 OA
ENDBRANCH   1   2
BRANCH   1  11
ATOM     11  N   UNL     1       2.508   4.495  19.954  0.00  0.00    +0.000 NA
ATOM     12  C   UNL     1       3.400   3.366  20.276  0.00  0.00    +0.000 C 
ATOM     13  C   UNL     1       3.344   2.178  19.293  0.00  0.00    +0.000 C 
ATOM     14  O   UNL     1       2.000   1.737  19.066  0.00  0.00    +0.000 OA
ATOM     15  C   UNL     1       1.164   2.814  18.627  0.00  0.00    +0.000 C 
ATOM     16  C   UNL     1       1.171   3.976  19.628  0.00  0.00    +0.000 C 
ENDBRANCH   1  11
BRANCH   1  17
ATOM     17  C   UNL     1       3.349   5.104  17.560  0.00  0.00    +0.000 C 
BRANCH  17  20
ATOM     18  C   UNL     1       5.426   5.815  16.438  0.00  0.00    +0.000 C 
ATOM     19  O   UNL     1       4.886   6.801  15.946  0.00  0.00    +0.000 OA
ATOM     20  N   UNL     1       4.752   4.918  17.236  0.00  0.00    +0.000 N 
ATOM     21  H   UNL     1       5.173   4.016  17.423  0.00  0.00    +0.000 HD
BRANCH  18  23
ATOM     22  C   UNL     1       7.412   4.604  17.377  0.00  0.00    +0.000 C 
ATOM     23  C   UNL     1       6.892   5.459  16.224  0.00  0.00    +0.000 C 
ATOM     24  C   UNL     1       7.078   4.724  14.896  0.00  0.00    +0.000 C 
ENDBRANCH  18  23
ENDBRANCH  17  20
ENDBRANCH   1  17
TORSDOF 5
ENDMDL
