MODEL 1
REMARK VINA RESULT:      -7.9      0.000      0.000
REMARK  Name = 
REMARK  7 active torsions:
REMARK  status: ('A' for Active; 'I' for Inactive)
REMARK    1  A    between atoms: C_1  and  C_2
REMARK    2  A    between atoms: C_6  and  N_7
REMARK    3  A    between atoms: N_10  and  C_11
REMARK    4  A    between atoms: C_12  and  C_13
REMARK    5  A    between atoms: C_21  and  C_22
REMARK    6  A    between atoms: C_23  and  C_24
REMARK    7  A    between atoms: N_29  and  C_30
REMARK                            x       y       z     vdW  Elec       q    Type
REMARK                         _______ _______ _______ _____ _____    ______ ____
ROOT
ATOM      1  C   UNL     1      -1.598  14.027  22.230  0.00  0.00    +0.000 A 
ATOM      2  C   UNL     1      -2.125  12.812  21.903  0.00  0.00    +0.000 A 
ATOM      3  C   UNL     1      -3.576  12.758  22.236  0.00  0.00    +0.000 A 
ATOM      4  C   UNL     1      -4.621  13.053  21.356  0.00  0.00    +0.000 A 
ATOM      5  C   UNL     1      -5.939  13.212  21.848  0.00  0.00    +0.000 A 
ATOM      6  C   UNL     1      -6.988  13.886  21.001  0.00  0.00    +0.000 C 
ATOM      7  C   UNL     1      -6.225  12.864  23.184  0.00  0.00    +0.000 A 
ATOM      8  C   UNL     1      -7.620  12.648  23.697  0.00  0.00    +0.000 C 
ATOM      9  C   UNL     1      -5.156  12.747  24.075  0.00  0.00    +0.000 A 
ATOM     10  C   UNL     1      -3.856  12.893  23.587  0.00  0.00    +0.000 A 
ATOM     11  C   UNL     1      -3.012  13.960  24.219  0.00  0.00    +0.000 A 
ATOM     12  O   UNL     1      -3.185  14.282  25.388  0.00  0.00    +0.000 OA
ATOM     13  N   UNL     1      -2.245  14.703  23.279  0.00  0.00    +0.000 N 
ATOM     14  C   UNL     1      -2.765  16.044  23.041  0.00  0.00    +0.000 C 
ENDROOT
BRANCH   1  18
ATOM     15  N   UNL     1       1.264  15.296  20.315  0.00  0.00    +0.000 N 
ATOM     16  C   UNL     1      -0.069  14.979  20.518  0.00  0.00    +0.000 C 
ATOM     17  O   UNL     1      -0.928  15.145  19.656  0.00  0.00    +0.000 OA
ATOM     18  N   UNL     1      -0.345  14.423  21.751  0.00  0.00    +0.000 N 
ATOM     19  H   UNL     1       1.934  15.038  21.021  0.00  0.00    +0.000 HD
ATOM     20  H   UNL     1       0.430  14.268  22.366  0.00  0.00    +0.000 HD
BRANCH  15  26
ATOM     21  C   UNL     1       0.974  18.631  16.638  0.00  0.00    +0.000 C 
ATOM     22  C   UNL     1       1.661  17.468  17.291  0.00  0.00    +0.000 A 
ATOM     23  C   UNL     1       2.847  16.971  16.742  0.00  0.00    +0.000 A 
ATOM     24  C   UNL     1       3.486  15.893  17.336  0.00  0.00    +0.000 A 
ATOM     25  C   UNL     1       2.954  15.317  18.489  0.00  0.00    +0.000 A 
ATOM     26  C   UNL     1       1.789  15.813  19.089  0.00  0.00    +0.000 A 
ATOM     27  C   UNL     1       1.131  16.879  18.460  0.00  0.00    +0.000 A 
ENDBRANCH  15  26
ENDBRANCH   1  18
BRANCH   2  28
ATOM     28  C   UNL     1      -1.239  11.602  21.946  0.00  0.00    +0.000 A 
ATOM     29  C   UNL     1      -1.098  10.879  23.153  0.00  0.00    +0.000 A 
ATOM     30  C   UNL     1      -0.406   9.668  23.211  0.00  0.00    +0.000 A 
ATOM     31  C   UNL     1       0.132   9.131  22.052  0.00  0.00    +0.000 A 
ATOM     32  C   UNL     1      -0.042   9.798  20.836  0.00  0.00    +0.000 A 
ATOM     33  C   UNL     1      -0.728  11.020  20.782  0.00  0.00    +0.000 A 
ENDBRANCH   2  28
TORSDOF 3
ENDMDL
MODEL 2
REMARK VINA RESULT:      -7.7      4.255      7.235
REMARK  Name = 
REMARK  7 active torsions:
REMARK  status: ('A' for Active; 'I' for Inactive)
REMARK    1  A    between atoms: C_1  and  C_2
REMARK    2  A    between atoms: C_6  and  N_7
REMARK    3  A    between atoms: N_10  and  C_11
REMARK    4  A    between atoms: C_12  and  C_13
REMARK    5  A    between atoms: C_21  and  C_22
REMARK    6  A    between atoms: C_23  and  C_24
REMARK    7  A    between atoms: N_29  and  C_30
REMARK                            x       y       z     vdW  Elec       q    Type
REMARK                         _______ _______ _______ _____ _____    ______ ____
ROOT
ATOM      1  C   UNL     1       0.481  11.747  18.942  0.00  0.00    +0.000 A 
ATOM      2  C   UNL     1      -0.666  12.342  18.508  0.00  0.00    +0.000 A 
ATOM      3  C   UNL     1      -0.999  13.527  19.348  0.00  0.00    +0.000 A 
ATOM      4  C   UNL     1      -0.629  14.847  19.071  0.00  0.00    +0.000 A 
ATOM      5  C   UNL     1      -0.780  15.848  20.061  0.00  0.00    +0.000 A 
ATOM      6  C   UNL     1      -0.056  17.164  19.924  0.00  0.00    +0.000 C 
ATOM      7  C   UNL     1      -1.496  15.554  21.239  0.00  0.00    +0.000 A 
ATOM      8  C   UNL     1      -2.023  16.612  22.166  0.00  0.00    +0.000 C 
ATOM      9  C   UNL     1      -1.696  14.211  21.567  0.00  0.00    +0.000 A 
ATOM     10  C   UNL     1      -1.256  13.230  20.678  0.00  0.00    +0.000 A 
ATOM     11  C   UNL     1      -0.287  12.218  21.211  0.00  0.00    +0.000 A 
ATOM     12  O   UNL     1      -0.304  11.900  22.395  0.00  0.00    +0.000 OA
ATOM     13  N   UNL     1       0.770  11.917  20.307  0.00  0.00    +0.000 N 
ATOM     14  C   UNL     1       2.045  12.511  20.692  0.00  0.00    +0.000 C 
ENDROOT
BRANCH   1  18
ATOM     15  N   UNL     1       2.173   8.814  17.528  0.00  0.00    +0.000 N 
ATOM     16  C   UNL     1       1.540   9.538  18.524  0.00  0.00    +0.000 C 
ATOM     17  O   UNL     1       1.372   9.098  19.658  0.00  0.00    +0.000 OA
ATOM     18  N   UNL     1       1.152  10.809  18.151  0.00  0.00    +0.000 N 
ATOM     19  H   UNL     1       2.373   9.270  16.653  0.00  0.00    +0.000 HD
ATOM     20  H   UNL     1       1.387  11.105  17.223  0.00  0.00    +0.000 HD
BRANCH  15  26
ATOM     21  C   UNL     1       1.425   3.943  18.192  0.00  0.00    +0.000 C 
ATOM     22  C   UNL     1       2.357   5.106  18.015  0.00  0.00    +0.000 A 
ATOM     23  C   UNL     1       3.734   4.881  17.942  0.00  0.00    +0.000 A 
ATOM     24  C   UNL     1       4.603   5.950  17.784  0.00  0.00    +0.000 A 
ATOM     25  C   UNL     1       4.100   7.247  17.681  0.00  0.00    +0.000 A 
ATOM     26  C   UNL     1       2.723   7.507  17.711  0.00  0.00    +0.000 A 
ATOM     27  C   UNL     1       1.856   6.423  17.908  0.00  0.00    +0.000 A 
ENDBRANCH  15  26
ENDBRANCH   1  18
BRANCH   2  28
ATOM     28  C   UNL     1      -1.717  11.498  17.849  0.00  0.00    +0.000 A 
ATOM     29  C   UNL     1      -2.044  11.719  16.491  0.00  0.00    +0.000 A 
ATOM     30  C   UNL     1      -2.904  10.870  15.792  0.00  0.00    +0.000 A 
ATOM     31  C   UNL     1      -3.429   9.754  16.426  0.00  0.00    +0.000 A 
ATOM     32  C   UNL     1      -3.076   9.482  17.750  0.00  0.00    +0.000 A 
ATOM     33  C   UNL     1      -2.221  10.343  18.455  0.00  0.00    +0.000 A 
ENDBRANCH   2  28
TORSDOF 3
ENDMDL
MODEL 3
REMARK VINA RESULT:      -7.5      4.296      7.178
REMARK  Name = 
REMARK  7 active torsions:
REMARK  status: ('A' for Active; 'I' for Inactive)
REMARK    1  A    between atoms: C_1  and  C_2
REMARK    2  A    between atoms: C_6  and  N_7
REMARK    3  A    between atoms: N_10  and  C_11
REMARK    4  A    between atoms: C_12  and  C_13
REMARK    5  A    between atoms: C_21  and  C_22
REMARK    6  A    between atoms: C_23  and  C_24
REMARK    7  A    between atoms: N_29  and  C_30
REMARK                            x       y       z     vdW  Elec       q    Type
REMARK                         _______ _______ _______ _____ _____    ______ ____
ROOT
ATOM      1  C   UNL     1       0.500  11.793  18.975  0.00  0.00    +0.000 A 
ATOM      2  C   UNL     1      -0.647  12.389  18.542  0.00  0.00    +0.000 A 
ATOM      3  C   UNL     1      -0.971  13.582  19.374  0.00  0.00    +0.000 A 
ATOM      4  C   UNL     1      -0.597  14.898  19.086  0.00  0.00    +0.000 A 
ATOM      5  C   UNL     1      -0.741  15.907  20.068  0.00  0.00    +0.000 A 
ATOM      6  C   UNL     1      -0.012  17.219  19.918  0.00  0.00    +0.000 C 
ATOM      7  C   UNL     1      -1.452  15.624  21.252  0.00  0.00    +0.000 A 
ATOM      8  C   UNL     1      -1.970  16.691  22.174  0.00  0.00    +0.000 C 
ATOM      9  C   UNL     1      -1.655  14.285  21.591  0.00  0.00    +0.000 A 
ATOM     10  C   UNL     1      -1.224  13.295  20.707  0.00  0.00    +0.000 A 
ATOM     11  C   UNL     1      -0.255  12.283  21.244  0.00  0.00    +0.000 A 
ATOM     12  O   UNL     1      -0.268  11.975  22.430  0.00  0.00    +0.000 OA
ATOM     13  N   UNL     1       0.796  11.972  20.337  0.00  0.00    +0.000 N 
ATOM     14  C   UNL     1       2.075  12.563  20.712  0.00  0.00    +0.000 C 
ENDROOT
BRANCH   1  18
ATOM     15  N   UNL     1       2.167   8.840  17.573  0.00  0.00    +0.000 N 
ATOM     16  C   UNL     1       1.540   9.573  18.565  0.00  0.00    +0.000 C 
ATOM     17  O   UNL     1       1.366   9.138  19.701  0.00  0.00    +0.000 OA
ATOM     18  N   UNL     1       1.164  10.846  18.188  0.00  0.00    +0.000 N 
ATOM     19  H   UNL     1       2.373   9.292  16.696  0.00  0.00    +0.000 HD
ATOM     20  H   UNL     1       1.403  11.137  17.260  0.00  0.00    +0.000 HD
BRANCH  15  26
ATOM     21  C   UNL     1       6.112   5.814  17.505  0.00  0.00    +0.000 C 
ATOM     22  C   UNL     1       4.650   6.043  17.750  0.00  0.00    +0.000 A 
ATOM     23  C   UNL     1       3.861   4.999  18.242  0.00  0.00    +0.000 A 
ATOM     24  C   UNL     1       2.508   5.199  18.467  0.00  0.00    +0.000 A 
ATOM     25  C   UNL     1       1.938   6.447  18.218  0.00  0.00    +0.000 A 
ATOM     26  C   UNL     1       2.705   7.528  17.761  0.00  0.00    +0.000 A 
ATOM     27  C   UNL     1       4.064   7.304  17.503  0.00  0.00    +0.000 A 
ENDBRANCH  15  26
ENDBRANCH   1  18
BRANCH   2  28
ATOM     28  C   UNL     1      -1.704  11.543  17.894  0.00  0.00    +0.000 A 
ATOM     29  C   UNL     1      -2.046  11.765  16.540  0.00  0.00    +0.000 A 
ATOM     30  C   UNL     1      -2.913  10.916  15.850  0.00  0.00    +0.000 A 
ATOM     31  C   UNL     1      -3.430   9.799  16.489  0.00  0.00    +0.000 A 
ATOM     32  C   UNL     1      -3.062   9.527  17.809  0.00  0.00    +0.000 A 
ATOM     33  C   UNL     1      -2.200  10.388  18.504  0.00  0.00    +0.000 A 
ENDBRANCH   2  28
TORSDOF 3
ENDMDL
MODEL 4
REMARK VINA RESULT:      -7.4      4.619      7.619
REMARK  Name = 
REMARK  7 active torsions:
REMARK  status: ('A' for Active; 'I' for Inactive)
REMARK    1  A    between atoms: C_1  and  C_2
REMARK    2  A    between atoms: C_6  and  N_7
REMARK    3  A    between atoms: N_10  and  C_11
REMARK    4  A    between atoms: C_12  and  C_13
REMARK    5  A    between atoms: C_21  and  C_22
REMARK    6  A    between atoms: C_23  and  C_24
REMARK    7  A    between atoms: N_29  and  C_30
REMARK                            x       y       z     vdW  Elec       q    Type
REMARK                         _______ _______ _______ _____ _____    ______ ____
ROOT
ATOM      1  C   UNL     1       0.460  10.344  19.914  0.00  0.00    +0.000 A 
ATOM      2  C   UNL     1      -0.490  11.265  19.583  0.00  0.00    +0.000 A 
ATOM      3  C   UNL     1      -0.729  12.208  20.711  0.00  0.00    +0.000 A 
ATOM      4  C   UNL     1      -0.097  13.443  20.884  0.00  0.00    +0.000 A 
ATOM      5  C   UNL     1      -0.214  14.134  22.114  0.00  0.00    +0.000 A 
ATOM      6  C   UNL     1       0.741  15.252  22.449  0.00  0.00    +0.000 C 
ATOM      7  C   UNL     1      -1.135  13.677  23.079  0.00  0.00    +0.000 A 
ATOM      8  C   UNL     1      -1.598  14.517  24.235  0.00  0.00    +0.000 C 
ATOM      9  C   UNL     1      -1.612  12.370  22.964  0.00  0.00    +0.000 A 
ATOM     10  C   UNL     1      -1.226  11.609  21.859  0.00  0.00    +0.000 A 
ATOM     11  C   UNL     1      -0.537  10.307  22.142  0.00  0.00    +0.000 A 
ATOM     12  O   UNL     1      -0.783   9.681  23.166  0.00  0.00    +0.000 OA
ATOM     13  N   UNL     1       0.571  10.058  21.286  0.00  0.00    +0.000 N 
ATOM     14  C   UNL     1       1.860  10.237  21.944  0.00  0.00    +0.000 C 
ENDROOT
BRANCH   1  18
ATOM     15  N   UNL     1       2.156   7.735  17.970  0.00  0.00    +0.000 N 
ATOM     16  C   UNL     1       1.651   8.311  19.122  0.00  0.00    +0.000 C 
ATOM     17  O   UNL     1       1.750   7.782  20.226  0.00  0.00    +0.000 OA
ATOM     18  N   UNL     1       1.065   9.547  18.937  0.00  0.00    +0.000 N 
ATOM     19  H   UNL     1       2.136   8.268  17.115  0.00  0.00    +0.000 HD
ATOM     20  H   UNL     1       1.086   9.929  18.011  0.00  0.00    +0.000 HD
BRANCH  15  26
ATOM     21  C   UNL     1       2.036   2.764  17.966  0.00  0.00    +0.000 C 
ATOM     22  C   UNL     1       2.809   4.049  17.912  0.00  0.00    +0.000 A 
ATOM     23  C   UNL     1       4.195   4.012  17.740  0.00  0.00    +0.000 A 
ATOM     24  C   UNL     1       4.920   5.193  17.693  0.00  0.00    +0.000 A 
ATOM     25  C   UNL     1       4.261   6.418  17.802  0.00  0.00    +0.000 A 
ATOM     26  C   UNL     1       2.868   6.495  17.937  0.00  0.00    +0.000 A 
ATOM     27  C   UNL     1       2.150   5.294  18.019  0.00  0.00    +0.000 A 
ENDBRANCH  15  26
ENDBRANCH   1  18
BRANCH   2  28
ATOM     28  C   UNL     1      -1.563  10.881  18.609  0.00  0.00    +0.000 A 
ATOM     29  C   UNL     1      -2.800  11.568  18.621  0.00  0.00    +0.000 A 
ATOM     30  C   UNL     1      -3.773  11.351  17.645  0.00  0.00    +0.000 A 
ATOM     31  C   UNL     1      -3.519  10.466  16.608  0.00  0.00    +0.000 A 
ATOM     32  C   UNL     1      -2.284   9.817  16.543  0.00  0.00    +0.000 A 
ATOM     33  C   UNL     1      -1.310  10.028  17.531  0.00  0.00    +0.000 A 
ENDBRANCH   2  28
TORSDOF 3
ENDMDL
MODEL 5
REMARK VINA RESULT:      -7.4      3.221      7.444
REMARK  Name = 
REMARK  7 active torsions:
REMARK  status: ('A' for Active; 'I' for Inactive)
REMARK    1  A    between atoms: C_1  and  C_2
REMARK    2  A    between atoms: C_6  and  N_7
REMARK    3  A    between atoms: N_10  and  C_11
REMARK    4  A    between atoms: C_12  and  C_13
REMARK    5  A    between atoms: C_21  and  C_22
REMARK    6  A    between atoms: C_23  and  C_24
REMARK    7  A    between atoms: N_29  and  C_30
REMARK                            x       y       z     vdW  Elec       q    Type
REMARK                         _______ _______ _______ _____ _____    ______ ____
ROOT
ATOM      1  C   UNL     1      -0.710  12.674  19.644  0.00  0.00    +0.000 A 
ATOM      2  C   UNL     1      -1.309  11.513  19.252  0.00  0.00    +0.000 A 
ATOM      3  C   UNL     1      -0.346  10.377  19.304  0.00  0.00    +0.000 A 
ATOM      4  C   UNL     1      -0.173   9.508  20.385  0.00  0.00    +0.000 A 
ATOM      5  C   UNL     1       0.937   8.631  20.420  0.00  0.00    +0.000 A 
ATOM      6  C   UNL     1       1.344   7.974  21.715  0.00  0.00    +0.000 C 
ATOM      7  C   UNL     1       1.741   8.488  19.271  0.00  0.00    +0.000 A 
ATOM      8  C   UNL     1       2.697   7.345  19.074  0.00  0.00    +0.000 C 
ATOM      9  C   UNL     1       1.661   9.475  18.287  0.00  0.00    +0.000 A 
ATOM     10  C   UNL     1       0.734  10.506  18.443  0.00  0.00    +0.000 A 
ATOM     11  C   UNL     1       1.271  11.906  18.442  0.00  0.00    +0.000 A 
ATOM     12  O   UNL     1       2.282  12.186  17.809  0.00  0.00    +0.000 OA
ATOM     13  N   UNL     1       0.678  12.739  19.431  0.00  0.00    +0.000 N 
ATOM     14  C   UNL     1       1.556  13.003  20.565  0.00  0.00    +0.000 C 
ENDROOT
BRANCH   1  18
ATOM     15  N   UNL     1      -2.721  15.308  21.220  0.00  0.00    +0.000 N 
ATOM     16  C   UNL     1      -2.039  14.104  21.182  0.00  0.00    +0.000 C 
ATOM     17  O   UNL     1      -1.979  13.346  22.147  0.00  0.00    +0.000 OA
ATOM     18  N   UNL     1      -1.467  13.805  19.961  0.00  0.00    +0.000 N 
ATOM     19  H   UNL     1      -2.821  15.832  20.365  0.00  0.00    +0.000 HD
ATOM     20  H   UNL     1      -1.621  14.454  19.214  0.00  0.00    +0.000 HD
BRANCH  15  26
ATOM     21  C   UNL     1      -6.948  15.366  23.838  0.00  0.00    +0.000 C 
ATOM     22  C   UNL     1      -5.521  15.795  23.656  0.00  0.00    +0.000 A 
ATOM     23  C   UNL     1      -4.906  16.574  24.640  0.00  0.00    +0.000 A 
ATOM     24  C   UNL     1      -3.590  16.980  24.479  0.00  0.00    +0.000 A 
ATOM     25  C   UNL     1      -2.877  16.596  23.343  0.00  0.00    +0.000 A 
ATOM     26  C   UNL     1      -3.449  15.784  22.354  0.00  0.00    +0.000 A 
ATOM     27  C   UNL     1      -4.791  15.410  22.510  0.00  0.00    +0.000 A 
ENDBRANCH  15  26
ENDBRANCH   1  18
BRANCH   2  28
ATOM     28  C   UNL     1      -2.434  11.576  18.262  0.00  0.00    +0.000 A 
ATOM     29  C   UNL     1      -2.207  11.195  16.919  0.00  0.00    +0.000 A 
ATOM     30  C   UNL     1      -3.249  11.095  15.995  0.00  0.00    +0.000 A 
ATOM     31  C   UNL     1      -4.551  11.339  16.402  0.00  0.00    +0.000 A 
ATOM     32  C   UNL     1      -4.808  11.661  17.737  0.00  0.00    +0.000 A 
ATOM     33  C   UNL     1      -3.759  11.772  18.662  0.00  0.00    +0.000 A 
ENDBRANCH   2  28
TORSDOF 3
ENDMDL
MODEL 6
REMARK VINA RESULT:      -7.3      0.619      1.461
REMARK  Name = 
REMARK  7 active torsions:
REMARK  status: ('A' for Active; 'I' for Inactive)
REMARK    1  A    between atoms: C_1  and  C_2
REMARK    2  A    between atoms: C_6  and  N_7
REMARK    3  A    between atoms: N_10  and  C_11
REMARK    4  A    between atoms: C_12  and  C_13
REMARK    5  A    between atoms: C_21  and  C_22
REMARK    6  A    between atoms: C_23  and  C_24
REMARK    7  A    between atoms: N_29  and  C_30
REMARK                            x       y       z     vdW  Elec       q    Type
REMARK                         _______ _______ _______ _____ _____    ______ ____
ROOT
ATOM      1  C   UNL     1      -1.581  14.034  22.444  0.00  0.00    +0.000 A 
ATOM      2  C   UNL     1      -2.096  12.867  21.961  0.00  0.00    +0.000 A 
ATOM      3  C   UNL     1      -3.572  12.820  22.153  0.00  0.00    +0.000 A 
ATOM      4  C   UNL     1      -4.526  13.218  21.211  0.00  0.00    +0.000 A 
ATOM      5  C   UNL     1      -5.881  13.367  21.593  0.00  0.00    +0.000 A 
ATOM      6  C   UNL     1      -6.834  14.140  20.717  0.00  0.00    +0.000 C 
ATOM      7  C   UNL     1      -6.296  12.910  22.860  0.00  0.00    +0.000 A 
ATOM      8  C   UNL     1      -7.737  12.685  23.220  0.00  0.00    +0.000 C 
ATOM      9  C   UNL     1      -5.318  12.688  23.831  0.00  0.00    +0.000 A 
ATOM     10  C   UNL     1      -3.976  12.843  23.480  0.00  0.00    +0.000 A 
ATOM     11  C   UNL     1      -3.176  13.827  24.280  0.00  0.00    +0.000 A 
ATOM     12  O   UNL     1      -3.452  14.049  25.453  0.00  0.00    +0.000 OA
ATOM     13  N   UNL     1      -2.312  14.630  23.485  0.00  0.00    +0.000 N 
ATOM     14  C   UNL     1      -2.784  16.000  23.323  0.00  0.00    +0.000 C 
ENDROOT
BRANCH   1  18
ATOM     15  N   UNL     1       1.501  15.241  20.858  0.00  0.00    +0.000 N 
ATOM     16  C   UNL     1       0.163  14.884  20.891  0.00  0.00    +0.000 C 
ATOM     17  O   UNL     1      -0.558  14.926  19.898  0.00  0.00    +0.000 OA
ATOM     18  N   UNL     1      -0.282  14.439  22.119  0.00  0.00    +0.000 N 
ATOM     19  H   UNL     1       2.062  15.084  21.680  0.00  0.00    +0.000 HD
ATOM     20  H   UNL     1       0.393  14.380  22.856  0.00  0.00    +0.000 HD
BRANCH  15  26
ATOM     21  C   UNL     1       5.358  14.686  17.769  0.00  0.00    +0.000 C 
ATOM     22  C   UNL     1       4.077  15.372  18.145  0.00  0.00    +0.000 A 
ATOM     23  C   UNL     1       3.539  16.341  17.293  0.00  0.00    +0.000 A 
ATOM     24  C   UNL     1       2.359  16.984  17.634  0.00  0.00    +0.000 A 
ATOM     25  C   UNL     1       1.702  16.652  18.819  0.00  0.00    +0.000 A 
ATOM     26  C   UNL     1       2.192  15.659  19.679  0.00  0.00    +0.000 A 
ATOM     27  C   UNL     1       3.404  15.041  19.342  0.00  0.00    +0.000 A 
ENDBRANCH  15  26
ENDBRANCH   1  18
BRANCH   2  28
ATOM     28  C   UNL     1      -1.239  11.636  21.975  0.00  0.00    +0.000 A 
ATOM     29  C   UNL     1      -1.100  10.892  23.171  0.00  0.00    +0.000 A 
ATOM     30  C   UNL     1      -0.437   9.664  23.203  0.00  0.00    +0.000 A 
ATOM     31  C   UNL     1       0.073   9.130  22.029  0.00  0.00    +0.000 A 
ATOM     32  C   UNL     1      -0.101   9.819  20.825  0.00  0.00    +0.000 A 
ATOM     33  C   UNL     1      -0.757  11.058  20.797  0.00  0.00    +0.000 A 
ENDBRANCH   2  28
TORSDOF 3
ENDMDL
MODEL 7
REMARK VINA RESULT:      -7.3      4.657      7.639
REMARK  Name = 
REMARK  7 active torsions:
REMARK  status: ('A' for Active; 'I' for Inactive)
REMARK    1  A    between atoms: C_1  and  C_2
REMARK    2  A    between atoms: C_6  and  N_7
REMARK    3  A    between atoms: N_10  and  C_11
REMARK    4  A    between atoms: C_12  and  C_13
REMARK    5  A    between atoms: C_21  and  C_22
REMARK    6  A    between atoms: C_23  and  C_24
REMARK    7  A    between atoms: N_29  and  C_30
REMARK                            x       y       z     vdW  Elec       q    Type
REMARK                         _______ _______ _______ _____ _____    ______ ____
ROOT
ATOM      1  C   UNL     1       0.535  10.279  19.968  0.00  0.00    +0.000 A 
ATOM      2  C   UNL     1      -0.396  11.209  19.612  0.00  0.00    +0.000 A 
ATOM      3  C   UNL     1      -0.631  12.174  20.722  0.00  0.00    +0.000 A 
ATOM      4  C   UNL     1       0.019  13.402  20.880  0.00  0.00    +0.000 A 
ATOM      5  C   UNL     1      -0.099  14.116  22.097  0.00  0.00    +0.000 A 
ATOM      6  C   UNL     1       0.870  15.224  22.422  0.00  0.00    +0.000 C 
ATOM      7  C   UNL     1      -1.037  13.691  23.060  0.00  0.00    +0.000 A 
ATOM      8  C   UNL     1      -1.498  14.558  24.197  0.00  0.00    +0.000 C 
ATOM      9  C   UNL     1      -1.534  12.389  22.962  0.00  0.00    +0.000 A 
ATOM     10  C   UNL     1      -1.149  11.603  21.875  0.00  0.00    +0.000 A 
ATOM     11  C   UNL     1      -0.484  10.296  22.186  0.00  0.00    +0.000 A 
ATOM     12  O   UNL     1      -0.750   9.691  23.218  0.00  0.00    +0.000 OA
ATOM     13  N   UNL     1       0.628  10.014  21.345  0.00  0.00    +0.000 N 
ATOM     14  C   UNL     1       1.913  10.184  22.013  0.00  0.00    +0.000 C 
ENDROOT
BRANCH   1  18
ATOM     15  N   UNL     1       2.168   7.592  18.075  0.00  0.00    +0.000 N 
ATOM     16  C   UNL     1       1.646   8.188  19.210  0.00  0.00    +0.000 C 
ATOM     17  O   UNL     1       1.668   7.647  20.313  0.00  0.00    +0.000 OA
ATOM     18  N   UNL     1       1.137   9.456  19.011  0.00  0.00    +0.000 N 
ATOM     19  H   UNL     1       2.213   8.130  17.225  0.00  0.00    +0.000 HD
ATOM     20  H   UNL     1       1.218   9.841  18.090  0.00  0.00    +0.000 HD
BRANCH  15  26
ATOM     21  C   UNL     1       6.371   4.948  18.323  0.00  0.00    +0.000 C 
ATOM     22  C   UNL     1       4.877   5.011  18.207  0.00  0.00    +0.000 A 
ATOM     23  C   UNL     1       4.137   3.826  18.179  0.00  0.00    +0.000 A 
ATOM     24  C   UNL     1       2.756   3.873  18.067  0.00  0.00    +0.000 A 
ATOM     25  C   UNL     1       2.105   5.105  17.998  0.00  0.00    +0.000 A 
ATOM     26  C   UNL     1       2.811   6.315  18.062  0.00  0.00    +0.000 A 
ATOM     27  C   UNL     1       4.209   6.254  18.139  0.00  0.00    +0.000 A 
ENDBRANCH  15  26
ENDBRANCH   1  18
BRANCH   2  28
ATOM     28  C   UNL     1      -1.466  10.825  18.633  0.00  0.00    +0.000 A 
ATOM     29  C   UNL     1      -2.711  11.496  18.657  0.00  0.00    +0.000 A 
ATOM     30  C   UNL     1      -3.684  11.281  17.679  0.00  0.00    +0.000 A 
ATOM     31  C   UNL     1      -3.420  10.414  16.630  0.00  0.00    +0.000 A 
ATOM     32  C   UNL     1      -2.176   9.783  16.553  0.00  0.00    +0.000 A 
ATOM     33  C   UNL     1      -1.204   9.991  17.543  0.00  0.00    +0.000 A 
ENDBRANCH   2  28
TORSDOF 3
ENDMDL
MODEL 8
REMARK VINA RESULT:      -7.3      3.276      7.367
REMARK  Name = 
REMARK  7 active torsions:
REMARK  status: ('A' for Active; 'I' for Inactive)
REMARK    1  A    between atoms: C_1  and  C_2
REMARK    2  A    between atoms: C_6  and  N_7
REMARK    3  A    between atoms: N_10  and  C_11
REMARK    4  A    between atoms: C_12  and  C_13
REMARK    5  A    between atoms: C_21  and  C_22
REMARK    6  A    between atoms: C_23  and  C_24
REMARK    7  A    between atoms: N_29  and  C_30
REMARK                            x       y       z     vdW  Elec       q    Type
REMARK                         _______ _______ _______ _____ _____    ______ ____
ROOT
ATOM      1  C   UNL     1      -0.701  12.701  19.772  0.00  0.00    +0.000 A 
ATOM      2  C   UNL     1      -1.314  11.551  19.368  0.00  0.00    +0.000 A 
ATOM      3  C   UNL     1      -0.351  10.415  19.356  0.00  0.00    +0.000 A 
ATOM      4  C   UNL     1      -0.141   9.517  20.407  0.00  0.00    +0.000 A 
ATOM      5  C   UNL     1       0.969   8.639  20.380  0.00  0.00    +0.000 A 
ATOM      6  C   UNL     1       1.418   7.947  21.642  0.00  0.00    +0.000 C 
ATOM      7  C   UNL     1       1.734   8.528  19.201  0.00  0.00    +0.000 A 
ATOM      8  C   UNL     1       2.682   7.391  18.940  0.00  0.00    +0.000 C 
ATOM      9  C   UNL     1       1.621   9.542  18.247  0.00  0.00    +0.000 A 
ATOM     10  C   UNL     1       0.700  10.567  18.463  0.00  0.00    +0.000 A 
ATOM     11  C   UNL     1       1.238  11.967  18.483  0.00  0.00    +0.000 A 
ATOM     12  O   UNL     1       2.227  12.265  17.824  0.00  0.00    +0.000 OA
ATOM     13  N   UNL     1       0.679  12.772  19.514  0.00  0.00    +0.000 N 
ATOM     14  C   UNL     1       1.595  13.006  20.624  0.00  0.00    +0.000 C 
ENDROOT
BRANCH   1  18
ATOM     15  N   UNL     1      -2.620  15.311  21.495  0.00  0.00    +0.000 N 
ATOM     16  C   UNL     1      -1.926  14.117  21.406  0.00  0.00    +0.000 C 
ATOM     17  O   UNL     1      -1.782  13.361  22.364  0.00  0.00    +0.000 OA
ATOM     18  N   UNL     1      -1.447  13.823  20.145  0.00  0.00    +0.000 N 
ATOM     19  H   UNL     1      -2.793  15.833  20.650  0.00  0.00    +0.000 HD
ATOM     20  H   UNL     1      -1.667  14.468  19.411  0.00  0.00    +0.000 HD
BRANCH  15  26
ATOM     21  C   UNL     1      -2.438  18.083  25.619  0.00  0.00    +0.000 C 
ATOM     22  C   UNL     1      -3.185  17.162  24.700  0.00  0.00    +0.000 A 
ATOM     23  C   UNL     1      -4.521  16.851  24.972  0.00  0.00    +0.000 A 
ATOM     24  C   UNL     1      -5.218  15.996  24.132  0.00  0.00    +0.000 A 
ATOM     25  C   UNL     1      -4.590  15.460  23.008  0.00  0.00    +0.000 A 
ATOM     26  C   UNL     1      -3.265  15.780  22.682  0.00  0.00    +0.000 A 
ATOM     27  C   UNL     1      -2.559  16.616  23.558  0.00  0.00    +0.000 A 
ENDBRANCH  15  26
ENDBRANCH   1  18
BRANCH   2  28
ATOM     28  C   UNL     1      -2.471  11.641  18.418  0.00  0.00    +0.000 A 
ATOM     29  C   UNL     1      -2.305  11.243  17.071  0.00  0.00    +0.000 A 
ATOM     30  C   UNL     1      -3.382  11.169  16.186  0.00  0.00    +0.000 A 
ATOM     31  C   UNL     1      -4.661  11.455  16.638  0.00  0.00    +0.000 A 
ATOM     32  C   UNL     1      -4.859  11.795  17.979  0.00  0.00    +0.000 A 
ATOM     33  C   UNL     1      -3.774  11.881  18.864  0.00  0.00    +0.000 A 
ENDBRANCH   2  28
TORSDOF 3
ENDMDL
MODEL 9
REMARK VINA RESULT:      -7.1      3.946      7.366
REMARK  Name = 
REMARK  7 active torsions:
REMARK  status: ('A' for Active; 'I' for Inactive)
REMARK    1  A    between atoms: C_1  and  C_2
REMARK    2  A    between atoms: C_6  and  N_7
REMARK    3  A    between atoms: N_10  and  C_11
REMARK    4  A    between atoms: C_12  and  C_13
REMARK    5  A    between atoms: C_21  and  C_22
REMARK    6  A    between atoms: C_23  and  C_24
REMARK    7  A    between atoms: N_29  and  C_30
REMARK                            x       y       z     vdW  Elec       q    Type
REMARK                         _______ _______ _______ _____ _____    ______ ____
ROOT
ATOM      1  C   UNL     1       0.686  12.012  19.095  0.00  0.00    +0.000 A 
ATOM      2  C   UNL     1      -0.461  12.523  18.564  0.00  0.00    +0.000 A 
ATOM      3  C   UNL     1      -0.716  13.899  19.077  0.00  0.00    +0.000 A 
ATOM      4  C   UNL     1      -0.318  15.084  18.453  0.00  0.00    +0.000 A 
ATOM      5  C   UNL     1      -0.390  16.313  19.152  0.00  0.00    +0.000 A 
ATOM      6  C   UNL     1       0.368  17.516  18.649  0.00  0.00    +0.000 C 
ATOM      7  C   UNL     1      -1.059  16.365  20.392  0.00  0.00    +0.000 A 
ATOM      8  C   UNL     1      -1.507  17.649  21.030  0.00  0.00    +0.000 C 
ATOM      9  C   UNL     1      -1.285  15.163  21.066  0.00  0.00    +0.000 A 
ATOM     10  C   UNL     1      -0.920  13.967  20.447  0.00  0.00    +0.000 A 
ATOM     11  C   UNL     1       0.041  13.087  21.190  0.00  0.00    +0.000 A 
ATOM     12  O   UNL     1       0.070  13.088  22.415  0.00  0.00    +0.000 OA
ATOM     13  N   UNL     1       1.044  12.517  20.357  0.00  0.00    +0.000 N 
ATOM     14  C   UNL     1       2.354  13.135  20.526  0.00  0.00    +0.000 C 
ENDROOT
BRANCH   1  18
ATOM     15  N   UNL     1       2.001   8.668  18.353  0.00  0.00    +0.000 N 
ATOM     16  C   UNL     1       1.361   9.621  19.127  0.00  0.00    +0.000 C 
ATOM     17  O   UNL     1       0.926   9.379  20.250  0.00  0.00    +0.000 OA
ATOM     18  N   UNL     1       1.288  10.874  18.551  0.00  0.00    +0.000 N 
ATOM     19  H   UNL     1       2.427   8.957  17.486  0.00  0.00    +0.000 HD
ATOM     20  H   UNL     1       1.726  10.992  17.658  0.00  0.00    +0.000 HD
BRANCH  15  26
ATOM     21  C   UNL     1       3.865   4.171  17.341  0.00  0.00    +0.000 C 
ATOM     22  C   UNL     1       3.192   5.119  18.289  0.00  0.00    +0.000 A 
ATOM     23  C   UNL     1       2.908   4.704  19.593  0.00  0.00    +0.000 A 
ATOM     24  C   UNL     1       2.282   5.571  20.475  0.00  0.00    +0.000 A 
ATOM     25  C   UNL     1       1.951   6.862  20.065  0.00  0.00    +0.000 A 
ATOM     26  C   UNL     1       2.254   7.326  18.777  0.00  0.00    +0.000 A 
ATOM     27  C   UNL     1       2.855   6.429  17.883  0.00  0.00    +0.000 A 
ENDBRANCH  15  26
ENDBRANCH   1  18
BRANCH   2  28
ATOM     28  C   UNL     1      -1.568  11.583  18.188  0.00  0.00    +0.000 A 
ATOM     29  C   UNL     1      -2.880  11.819  18.660  0.00  0.00    +0.000 A 
ATOM     30  C   UNL     1      -3.968  11.062  18.224  0.00  0.00    +0.000 A 
ATOM     31  C   UNL     1      -3.777  10.072  17.272  0.00  0.00    +0.000 A 
ATOM     32  C   UNL     1      -2.500   9.857  16.747  0.00  0.00    +0.000 A 
ATOM     33  C   UNL     1      -1.405  10.611  17.196  0.00  0.00    +0.000 A 
ENDBRANCH   2  28
TORSDOF 3
ENDMDL
