MODEL 1
REMARK VINA RESULT:      -7.2      0.000      0.000
REMARK  Name = 
REMARK  6 active torsions:
REMARK  status: ('A' for Active; 'I' for Inactive)
REMARK    1  A    between atoms: C_1  and  C_2
REMARK    2  A    between atoms: C_5  and  C_6
REMARK    3  A    between atoms: C_9  and  N_10
REMARK    4  A    between atoms: C_11  and  C_13
REMARK    5  A    between atoms: C_13  and  N_14
REMARK    6  A    between atoms: C_15  and  C_16
REMARK                            x       y       z     vdW  Elec       q    Type
REMARK                         _______ _______ _______ _____ _____    ______ ____
ROOT
ATOM      1  C   UNL     1       3.001   5.868  18.031  0.00  0.00    +0.000 C 
ATOM      2  O   UNL     1       4.136   6.283  17.269  0.00  0.00    +0.000 OA
ATOM      3  C   UNL     1       4.801   5.174  16.661  0.00  0.00    +0.000 C 
ATOM      4  C   UNL     1       5.217   4.149  17.723  0.00  0.00    +0.000 C 
ATOM      5  C   UNL     1       3.960   3.776  18.525  0.00  0.00    +0.000 C 
ATOM      6  C   UNL     1       4.256   2.804  19.661  0.00  0.00    +0.000 C 
ATOM      7  O   UNL     1       3.361   4.957  19.069  0.00  0.00    +0.000 OA
ENDROOT
BRANCH   1  12
ATOM      8  C   UNL     1       0.524  10.554  20.487  0.00  0.00    +0.000 C 
ATOM      9  C   UNL     1       1.153   9.355  19.845  0.00  0.00    +0.000 A 
ATOM     10  C   UNL     1       1.441   9.333  18.480  0.00  0.00    +0.000 A 
ATOM     11  C   UNL     1       2.033   8.204  17.896  0.00  0.00    +0.000 A 
ATOM     12  C   UNL     1       2.356   7.080  18.672  0.00  0.00    +0.000 A 
ATOM     13  C   UNL     1       2.041   7.102  20.038  0.00  0.00    +0.000 A 
ATOM     14  C   UNL     1       1.453   8.229  20.620  0.00  0.00    +0.000 A 
ENDBRANCH   1  12
BRANCH   4  15
ATOM     15  N   UNL     1       6.258   4.705  18.590  0.00  0.00    +0.000 N 
ATOM     16  C   UNL     1       7.562   4.834  18.172  0.00  0.00    +0.000 C 
ATOM     17  O   UNL     1       7.967   4.428  17.087  0.00  0.00    +0.000 OA
ATOM     18  H   UNL     1       5.966   5.313  19.352  0.00  0.00    +0.000 HD
BRANCH  16  19
ATOM     19  C   UNL     1       8.483   5.479  19.209  0.00  0.00    +0.000 C 
BRANCH  19  20
ATOM     20  N   UNL     1       7.873   5.424  20.547  0.00  0.00    +0.000 NA
ATOM     21  H   UNL     1       7.502   4.484  20.694  0.00  0.00    +0.000 HD
ATOM     22  H   UNL     1       7.054   6.037  20.548  0.00  0.00    +0.000 HD
ENDBRANCH  19  20
ENDBRANCH  16  19
ENDBRANCH   4  15
TORSDOF 4
ENDMDL
MODEL 2
REMARK VINA RESULT:      -7.1      0.108      1.110
REMARK  Name = 
REMARK  6 active torsions:
REMARK  status: ('A' for Active; 'I' for Inactive)
REMARK    1  A    between atoms: C_1  and  C_2
REMARK    2  A    between atoms: C_5  and  C_6
REMARK    3  A    between atoms: C_9  and  N_10
REMARK    4  A    between atoms: C_11  and  C_13
REMARK    5  A    between atoms: C_13  and  N_14
REMARK    6  A    between atoms: C_15  and  C_16
REMARK                            x       y       z     vdW  Elec       q    Type
REMARK                         _______ _______ _______ _____ _____    ______ ____
ROOT
ATOM      1  C   UNL     1       2.936   5.816  18.062  0.00  0.00    +0.000 C 
ATOM      2  O   UNL     1       4.064   6.191  17.268  0.00  0.00    +0.000 OA
ATOM      3  C   UNL     1       4.714   5.052  16.701  0.00  0.00    +0.000 C 
ATOM      4  C   UNL     1       5.138   4.071  17.800  0.00  0.00    +0.000 C 
ATOM      5  C   UNL     1       3.889   3.741  18.633  0.00  0.00    +0.000 C 
ATOM      6  C   UNL     1       4.194   2.816  19.806  0.00  0.00    +0.000 C 
ATOM      7  O   UNL     1       3.304   4.948  19.134  0.00  0.00    +0.000 OA
ENDROOT
BRANCH   1  12
ATOM      8  C   UNL     1       0.497  10.591  20.381  0.00  0.00    +0.000 C 
ATOM      9  C   UNL     1       1.129   9.364  19.798  0.00  0.00    +0.000 A 
ATOM     10  C   UNL     1       1.444   8.263  20.596  0.00  0.00    +0.000 A 
ATOM     11  C   UNL     1       2.031   7.121  20.034  0.00  0.00    +0.000 A 
ATOM     12  C   UNL     1       2.306   7.058  18.658  0.00  0.00    +0.000 A 
ATOM     13  C   UNL     1       2.008   8.178  17.869  0.00  0.00    +0.000 A 
ATOM     14  C   UNL     1       1.420   9.314  18.430  0.00  0.00    +0.000 A 
ENDBRANCH   1  12
BRANCH   4  15
ATOM     15  N   UNL     1       6.193   4.657  18.630  0.00  0.00    +0.000 N 
ATOM     16  C   UNL     1       7.460   4.886  18.144  0.00  0.00    +0.000 C 
ATOM     17  O   UNL     1       7.823   4.550  17.021  0.00  0.00    +0.000 OA
ATOM     18  H   UNL     1       5.910   5.215  19.434  0.00  0.00    +0.000 HD
BRANCH  16  19
ATOM     19  C   UNL     1       8.399   5.546  19.155  0.00  0.00    +0.000 C 
BRANCH  19  20
ATOM     20  N   UNL     1       7.888   5.376  20.524  0.00  0.00    +0.000 NA
ATOM     21  H   UNL     1       8.027   4.403  20.801  0.00  0.00    +0.000 HD
ATOM     22  H   UNL     1       6.874   5.506  20.502  0.00  0.00    +0.000 HD
ENDBRANCH  19  20
ENDBRANCH  16  19
ENDBRANCH   4  15
TORSDOF 4
ENDMDL
MODEL 3
REMARK VINA RESULT:      -6.9      3.122      4.997
REMARK  Name = 
REMARK  6 active torsions:
REMARK  status: ('A' for Active; 'I' for Inactive)
REMARK    1  A    between atoms: C_1  and  C_2
REMARK    2  A    between atoms: C_5  and  C_6
REMARK    3  A    between atoms: C_9  and  N_10
REMARK    4  A    between atoms: C_11  and  C_13
REMARK    5  A    between atoms: C_13  and  N_14
REMARK    6  A    between atoms: C_15  and  C_16
REMARK                            x       y       z     vdW  Elec       q    Type
REMARK                         _______ _______ _______ _____ _____    ______ ____
ROOT
ATOM      1  C   UNL     1       5.425   5.175  18.725  0.00  0.00    +0.000 C 
ATOM      2  O   UNL     1       6.415   4.223  18.329  0.00  0.00    +0.000 OA
ATOM      3  C   UNL     1       7.449   4.827  17.550  0.00  0.00    +0.000 C 
ATOM      4  C   UNL     1       6.859   5.524  16.319  0.00  0.00    +0.000 C 
ATOM      5  C   UNL     1       5.781   6.502  16.814  0.00  0.00    +0.000 C 
ATOM      6  C   UNL     1       5.069   7.217  15.671  0.00  0.00    +0.000 C 
ATOM      7  O   UNL     1       4.810   5.802  17.599  0.00  0.00    +0.000 OA
ENDROOT
BRANCH   1  12
ATOM      8  C   UNL     1       1.249   2.494  21.807  0.00  0.00    +0.000 C 
ATOM      9  C   UNL     1       2.311   3.190  21.011  0.00  0.00    +0.000 A 
ATOM     10  C   UNL     1       2.240   4.560  20.753  0.00  0.00    +0.000 A 
ATOM     11  C   UNL     1       3.244   5.197  20.011  0.00  0.00    +0.000 A 
ATOM     12  C   UNL     1       4.344   4.474  19.521  0.00  0.00    +0.000 A 
ATOM     13  C   UNL     1       4.394   3.094  19.765  0.00  0.00    +0.000 A 
ATOM     14  C   UNL     1       3.394   2.461  20.508  0.00  0.00    +0.000 A 
ENDBRANCH   1  12
BRANCH   4  15
ATOM     15  N   UNL     1       6.299   4.538  15.393  0.00  0.00    +0.000 N 
ATOM     16  C   UNL     1       6.672   4.488  14.069  0.00  0.00    +0.000 C 
ATOM     17  O   UNL     1       7.430   5.302  13.550  0.00  0.00    +0.000 OA
ATOM     18  H   UNL     1       5.915   3.680  15.786  0.00  0.00    +0.000 HD
BRANCH  16  19
ATOM     19  C   UNL     1       6.007   3.358  13.282  0.00  0.00    +0.000 C 
BRANCH  19  20
ATOM     20  N   UNL     1       6.776   3.052  12.065  0.00  0.00    +0.000 NA
ATOM     21  H   UNL     1       7.715   3.440  12.172  0.00  0.00    +0.000 HD
ATOM     22  H   UNL     1       6.360   3.572  11.289  0.00  0.00    +0.000 HD
ENDBRANCH  19  20
ENDBRANCH  16  19
ENDBRANCH   4  15
TORSDOF 4
ENDMDL
MODEL 4
REMARK VINA RESULT:      -6.8      3.130      5.049
REMARK  Name = 
REMARK  6 active torsions:
REMARK  status: ('A' for Active; 'I' for Inactive)
REMARK    1  A    between atoms: C_1  and  C_2
REMARK    2  A    between atoms: C_5  and  C_6
REMARK    3  A    between atoms: C_9  and  N_10
REMARK    4  A    between atoms: C_11  and  C_13
REMARK    5  A    between atoms: C_13  and  N_14
REMARK    6  A    between atoms: C_15  and  C_16
REMARK                            x       y       z     vdW  Elec       q    Type
REMARK                         _______ _______ _______ _____ _____    ______ ____
ROOT
ATOM      1  C   UNL     1       5.439   5.160  18.688  0.00  0.00    +0.000 C 
ATOM      2  O   UNL     1       6.415   4.192  18.297  0.00  0.00    +0.000 OA
ATOM      3  C   UNL     1       7.456   4.777  17.512  0.00  0.00    +0.000 C 
ATOM      4  C   UNL     1       6.872   5.475  16.278  0.00  0.00    +0.000 C 
ATOM      5  C   UNL     1       5.810   6.471  16.768  0.00  0.00    +0.000 C 
ATOM      6  C   UNL     1       5.105   7.189  15.623  0.00  0.00    +0.000 C 
ATOM      7  O   UNL     1       4.831   5.789  17.560  0.00  0.00    +0.000 OA
ENDROOT
BRANCH   1  12
ATOM      8  C   UNL     1       1.241   2.515  21.771  0.00  0.00    +0.000 C 
ATOM      9  C   UNL     1       2.327   3.185  20.985  0.00  0.00    +0.000 A 
ATOM     10  C   UNL     1       3.420   2.464  20.501  0.00  0.00    +0.000 A 
ATOM     11  C   UNL     1       4.425   3.105  19.764  0.00  0.00    +0.000 A 
ATOM     12  C   UNL     1       4.349   4.480  19.491  0.00  0.00    +0.000 A 
ATOM     13  C   UNL     1       3.260   5.200  20.001  0.00  0.00    +0.000 A 
ATOM     14  C   UNL     1       2.257   4.559  20.733  0.00  0.00    +0.000 A 
ENDBRANCH   1  12
BRANCH   4  15
ATOM     15  N   UNL     1       6.297   4.491  15.359  0.00  0.00    +0.000 N 
ATOM     16  C   UNL     1       6.646   4.445  14.028  0.00  0.00    +0.000 C 
ATOM     17  O   UNL     1       7.394   5.261  13.498  0.00  0.00    +0.000 OA
ATOM     18  H   UNL     1       5.921   3.632  15.756  0.00  0.00    +0.000 HD
BRANCH  16  19
ATOM     19  C   UNL     1       5.969   3.317  13.250  0.00  0.00    +0.000 C 
BRANCH  19  20
ATOM     20  N   UNL     1       6.738   2.989  12.039  0.00  0.00    +0.000 NA
ATOM     21  H   UNL     1       6.207   3.304  11.225  0.00  0.00    +0.000 HD
ATOM     22  H   UNL     1       6.776   1.970  11.954  0.00  0.00    +0.000 HD
ENDBRANCH  19  20
ENDBRANCH  16  19
ENDBRANCH   4  15
TORSDOF 4
ENDMDL
MODEL 5
REMARK VINA RESULT:      -6.6      2.251      3.317
REMARK  Name = 
REMARK  6 active torsions:
REMARK  status: ('A' for Active; 'I' for Inactive)
REMARK    1  A    between atoms: C_1  and  C_2
REMARK    2  A    between atoms: C_5  and  C_6
REMARK    3  A    between atoms: C_9  and  N_10
REMARK    4  A    between atoms: C_11  and  C_13
REMARK    5  A    between atoms: C_13  and  N_14
REMARK    6  A    between atoms: C_15  and  C_16
REMARK                            x       y       z     vdW  Elec       q    Type
REMARK                         _______ _______ _______ _____ _____    ______ ____
ROOT
ATOM      1  C   UNL     1       3.302   6.603  18.308  0.00  0.00    +0.000 C 
ATOM      2  O   UNL     1       4.121   6.277  19.433  0.00  0.00    +0.000 OA
ATOM      3  C   UNL     1       5.016   5.202  19.143  0.00  0.00    +0.000 C 
ATOM      4  C   UNL     1       4.239   3.966  18.674  0.00  0.00    +0.000 C 
ATOM      5  C   UNL     1       3.356   4.396  17.491  0.00  0.00    +0.000 C 
ATOM      6  C   UNL     1       2.480   3.262  16.972  0.00  0.00    +0.000 C 
ATOM      7  O   UNL     1       2.517   5.489  17.881  0.00  0.00    +0.000 OA
ENDROOT
BRANCH   1  12
ATOM      8  C   UNL     1      -0.351  10.920  19.772  0.00  0.00    +0.000 C 
ATOM      9  C   UNL     1       0.592   9.813  19.409  0.00  0.00    +0.000 A 
ATOM     10  C   UNL     1       1.032   8.895  20.364  0.00  0.00    +0.000 A 
ATOM     11  C   UNL     1       1.910   7.863  20.007  0.00  0.00    +0.000 A 
ATOM     12  C   UNL     1       2.357   7.726  18.683  0.00  0.00    +0.000 A 
ATOM     13  C   UNL     1       1.929   8.667  17.736  0.00  0.00    +0.000 A 
ATOM     14  C   UNL     1       1.050   9.694  18.092  0.00  0.00    +0.000 A 
ENDBRANCH   1  12
BRANCH   4  15
ATOM     15  N   UNL     1       3.435   3.422  19.770  0.00  0.00    +0.000 N 
ATOM     16  C   UNL     1       3.893   2.404  20.574  0.00  0.00    +0.000 C 
ATOM     17  O   UNL     1       4.961   1.826  20.390  0.00  0.00    +0.000 OA
ATOM     18  H   UNL     1       2.705   4.013  20.163  0.00  0.00    +0.000 HD
BRANCH  16  19
ATOM     19  C   UNL     1       2.922   2.010  21.688  0.00  0.00    +0.000 C 
BRANCH  19  20
ATOM     20  N   UNL     1       2.059   3.147  22.047  0.00  0.00    +0.000 NA
ATOM     21  H   UNL     1       2.562   4.011  21.839  0.00  0.00    +0.000 HD
ATOM     22  H   UNL     1       1.939   3.145  23.062  0.00  0.00    +0.000 HD
ENDBRANCH  19  20
ENDBRANCH  16  19
ENDBRANCH   4  15
TORSDOF 4
ENDMDL
MODEL 6
REMARK VINA RESULT:      -6.6      2.257      3.129
REMARK  Name = 
REMARK  6 active torsions:
REMARK  status: ('A' for Active; 'I' for Inactive)
REMARK    1  A    between atoms: C_1  and  C_2
REMARK    2  A    between atoms: C_5  and  C_6
REMARK    3  A    between atoms: C_9  and  N_10
REMARK    4  A    between atoms: C_11  and  C_13
REMARK    5  A    between atoms: C_13  and  N_14
REMARK    6  A    between atoms: C_15  and  C_16
REMARK                            x       y       z     vdW  Elec       q    Type
REMARK                         _______ _______ _______ _____ _____    ______ ____
ROOT
ATOM      1  C   UNL     1       3.301   6.618  18.336  0.00  0.00    +0.000 C 
ATOM      2  O   UNL     1       4.109   6.268  19.462  0.00  0.00    +0.000 OA
ATOM      3  C   UNL     1       5.004   5.197  19.159  0.00  0.00    +0.000 C 
ATOM      4  C   UNL     1       4.230   3.973  18.657  0.00  0.00    +0.000 C 
ATOM      5  C   UNL     1       3.359   4.428  17.475  0.00  0.00    +0.000 C 
ATOM      6  C   UNL     1       2.486   3.308  16.924  0.00  0.00    +0.000 C 
ATOM      7  O   UNL     1       2.519   5.515  17.879  0.00  0.00    +0.000 OA
ENDROOT
BRANCH   1  12
ATOM      8  C   UNL     1      -0.338  10.942  19.814  0.00  0.00    +0.000 C 
ATOM      9  C   UNL     1       0.590   9.832  19.423  0.00  0.00    +0.000 A 
ATOM     10  C   UNL     1       1.031   9.689  18.106  0.00  0.00    +0.000 A 
ATOM     11  C   UNL     1       1.902   8.647  17.758  0.00  0.00    +0.000 A 
ATOM     12  C   UNL     1       2.355   7.736  18.724  0.00  0.00    +0.000 A 
ATOM     13  C   UNL     1       1.888   7.874  20.039  0.00  0.00    +0.000 A 
ATOM     14  C   UNL     1       1.022   8.915  20.386  0.00  0.00    +0.000 A 
ENDBRANCH   1  12
BRANCH   4  15
ATOM     15  N   UNL     1       3.413   3.408  19.734  0.00  0.00    +0.000 N 
ATOM     16  C   UNL     1       3.891   2.426  20.571  0.00  0.00    +0.000 C 
ATOM     17  O   UNL     1       4.990   1.898  20.435  0.00  0.00    +0.000 OA
ATOM     18  H   UNL     1       2.642   3.969  20.090  0.00  0.00    +0.000 HD
BRANCH  16  19
ATOM     19  C   UNL     1       2.899   2.004  21.657  0.00  0.00    +0.000 C 
BRANCH  19  20
ATOM     20  N   UNL     1       2.109   3.159  22.113  0.00  0.00    +0.000 NA
ATOM     21  H   UNL     1       1.120   2.903  22.085  0.00  0.00    +0.000 HD
ATOM     22  H   UNL     1       2.211   3.905  21.421  0.00  0.00    +0.000 HD
ENDBRANCH  19  20
ENDBRANCH  16  19
ENDBRANCH   4  15
TORSDOF 4
ENDMDL
MODEL 7
REMARK VINA RESULT:      -6.6      2.816      3.989
REMARK  Name = 
REMARK  6 active torsions:
REMARK  status: ('A' for Active; 'I' for Inactive)
REMARK    1  A    between atoms: C_1  and  C_2
REMARK    2  A    between atoms: C_5  and  C_6
REMARK    3  A    between atoms: C_9  and  N_10
REMARK    4  A    between atoms: C_11  and  C_13
REMARK    5  A    between atoms: C_13  and  N_14
REMARK    6  A    between atoms: C_15  and  C_16
REMARK                            x       y       z     vdW  Elec       q    Type
REMARK                         _______ _______ _______ _____ _____    ______ ____
ROOT
ATOM      1  C   UNL     1       3.299   4.938  17.686  0.00  0.00    +0.000 C 
ATOM      2  O   UNL     1       3.715   6.252  18.064  0.00  0.00    +0.000 OA
ATOM      3  C   UNL     1       4.323   6.949  16.976  0.00  0.00    +0.000 C 
ATOM      4  C   UNL     1       5.510   6.153  16.422  0.00  0.00    +0.000 C 
ATOM      5  C   UNL     1       5.001   4.746  16.070  0.00  0.00    +0.000 C 
ATOM      6  C   UNL     1       6.110   3.831  15.564  0.00  0.00    +0.000 C 
ATOM      7  O   UNL     1       4.393   4.147  17.220  0.00  0.00    +0.000 OA
ENDROOT
BRANCH   1  12
ATOM      8  C   UNL     1       0.970   2.251  22.320  0.00  0.00    +0.000 C 
ATOM      9  C   UNL     1       1.564   2.952  21.137  0.00  0.00    +0.000 A 
ATOM     10  C   UNL     1       2.174   4.201  21.267  0.00  0.00    +0.000 A 
ATOM     11  C   UNL     1       2.729   4.841  20.151  0.00  0.00    +0.000 A 
ATOM     12  C   UNL     1       2.691   4.238  18.884  0.00  0.00    +0.000 A 
ATOM     13  C   UNL     1       2.055   2.994  18.758  0.00  0.00    +0.000 A 
ATOM     14  C   UNL     1       1.505   2.355  19.873  0.00  0.00    +0.000 A 
ENDBRANCH   1  12
BRANCH   4  15
ATOM     15  N   UNL     1       6.593   6.099  17.406  0.00  0.00    +0.000 N 
ATOM     16  C   UNL     1       7.362   7.200  17.704  0.00  0.00    +0.000 C 
ATOM     17  O   UNL     1       7.257   8.275  17.122  0.00  0.00    +0.000 OA
ATOM     18  H   UNL     1       6.553   5.370  18.116  0.00  0.00    +0.000 HD
BRANCH  16  19
ATOM     19  C   UNL     1       8.409   6.946  18.791  0.00  0.00    +0.000 C 
BRANCH  19  20
ATOM     20  N   UNL     1       8.085   5.725  19.546  0.00  0.00    +0.000 NA
ATOM     21  H   UNL     1       7.070   5.622  19.571  0.00  0.00    +0.000 HD
ATOM     22  H   UNL     1       8.362   5.873  20.520  0.00  0.00    +0.000 HD
ENDBRANCH  19  20
ENDBRANCH  16  19
ENDBRANCH   4  15
TORSDOF 4
ENDMDL
MODEL 8
REMARK VINA RESULT:      -6.5      1.813      2.523
REMARK  Name = 
REMARK  6 active torsions:
REMARK  status: ('A' for Active; 'I' for Inactive)
REMARK    1  A    between atoms: C_1  and  C_2
REMARK    2  A    between atoms: C_5  and  C_6
REMARK    3  A    between atoms: C_9  and  N_10
REMARK    4  A    between atoms: C_11  and  C_13
REMARK    5  A    between atoms: C_13  and  N_14
REMARK    6  A    between atoms: C_15  and  C_16
REMARK                            x       y       z     vdW  Elec       q    Type
REMARK                         _______ _______ _______ _____ _____    ______ ____
ROOT
ATOM      1  C   UNL     1       2.866   6.080  19.142  0.00  0.00    +0.000 C 
ATOM      2  O   UNL     1       2.478   5.382  17.956  0.00  0.00    +0.000 OA
ATOM      3  C   UNL     1       3.114   4.106  17.861  0.00  0.00    +0.000 C 
ATOM      4  C   UNL     1       4.638   4.258  17.915  0.00  0.00    +0.000 C 
ATOM      5  C   UNL     1       4.980   5.046  19.190  0.00  0.00    +0.000 C 
ATOM      6  C   UNL     1       6.473   5.320  19.327  0.00  0.00    +0.000 C 
ATOM      7  O   UNL     1       4.277   6.293  19.196  0.00  0.00    +0.000 OA
ENDROOT
BRANCH   1  12
ATOM      8  C   UNL     1       0.257  11.306  19.247  0.00  0.00    +0.000 C 
ATOM      9  C   UNL     1       0.923   9.963  19.207  0.00  0.00    +0.000 A 
ATOM     10  C   UNL     1       1.481   9.467  18.027  0.00  0.00    +0.000 A 
ATOM     11  C   UNL     1       2.103   8.212  18.008  0.00  0.00    +0.000 A 
ATOM     12  C   UNL     1       2.186   7.433  19.174  0.00  0.00    +0.000 A 
ATOM     13  C   UNL     1       1.602   7.930  20.348  0.00  0.00    +0.000 A 
ATOM     14  C   UNL     1       0.984   9.183  20.366  0.00  0.00    +0.000 A 
ENDBRANCH   1  12
BRANCH   4  15
ATOM     15  N   UNL     1       5.126   4.945  16.717  0.00  0.00    +0.000 N 
ATOM     16  C   UNL     1       5.722   4.265  15.680  0.00  0.00    +0.000 C 
ATOM     17  O   UNL     1       5.960   3.062  15.709  0.00  0.00    +0.000 OA
ATOM     18  H   UNL     1       4.718   5.850  16.489  0.00  0.00    +0.000 HD
BRANCH  16  19
ATOM     19  C   UNL     1       6.119   5.158  14.503  0.00  0.00    +0.000 C 
BRANCH  19  20
ATOM     20  N   UNL     1       7.567   5.419  14.516  0.00  0.00    +0.000 NA
ATOM     21  H   UNL     1       7.719   6.380  14.827  0.00  0.00    +0.000 HD
ATOM     22  H   UNL     1       7.902   5.395  13.551  0.00  0.00    +0.000 HD
ENDBRANCH  19  20
ENDBRANCH  16  19
ENDBRANCH   4  15
TORSDOF 4
ENDMDL
MODEL 9
REMARK VINA RESULT:      -6.5      1.853      2.749
REMARK  Name = 
REMARK  6 active torsions:
REMARK  status: ('A' for Active; 'I' for Inactive)
REMARK    1  A    between atoms: C_1  and  C_2
REMARK    2  A    between atoms: C_5  and  C_6
REMARK    3  A    between atoms: C_9  and  N_10
REMARK    4  A    between atoms: C_11  and  C_13
REMARK    5  A    between atoms: C_13  and  N_14
REMARK    6  A    between atoms: C_15  and  C_16
REMARK                            x       y       z     vdW  Elec       q    Type
REMARK                         _______ _______ _______ _____ _____    ______ ____
ROOT
ATOM      1  C   UNL     1       2.731   6.132  19.137  0.00  0.00    +0.000 C 
ATOM      2  O   UNL     1       2.295   5.463  17.951  0.00  0.00    +0.000 OA
ATOM      3  C   UNL     1       2.877   4.164  17.831  0.00  0.00    +0.000 C 
ATOM      4  C   UNL     1       4.407   4.255  17.859  0.00  0.00    +0.000 C 
ATOM      5  C   UNL     1       4.803   5.013  19.136  0.00  0.00    +0.000 C 
ATOM      6  C   UNL     1       6.308   5.226  19.249  0.00  0.00    +0.000 C 
ATOM      7  O   UNL     1       4.150   6.287  19.168  0.00  0.00    +0.000 OA
ENDROOT
BRANCH   1  12
ATOM      8  C   UNL     1       0.308  11.441  19.383  0.00  0.00    +0.000 C 
ATOM      9  C   UNL     1       0.934  10.081  19.333  0.00  0.00    +0.000 A 
ATOM     10  C   UNL     1       0.991   9.268  20.467  0.00  0.00    +0.000 A 
ATOM     11  C   UNL     1       1.576   7.996  20.402  0.00  0.00    +0.000 A 
ATOM     12  C   UNL     1       2.107   7.511  19.196  0.00  0.00    +0.000 A 
ATOM     13  C   UNL     1       2.066   8.343  18.068  0.00  0.00    +0.000 A 
ATOM     14  C   UNL     1       1.480   9.610  18.134  0.00  0.00    +0.000 A 
ENDBRANCH   1  12
BRANCH   4  15
ATOM     15  N   UNL     1       4.901   4.935  16.660  0.00  0.00    +0.000 N 
ATOM     16  C   UNL     1       5.649   4.281  15.708  0.00  0.00    +0.000 C 
ATOM     17  O   UNL     1       6.023   3.118  15.824  0.00  0.00    +0.000 OA
ATOM     18  H   UNL     1       4.409   5.772  16.352  0.00  0.00    +0.000 HD
BRANCH  16  19
ATOM     19  C   UNL     1       6.028   5.157  14.512  0.00  0.00    +0.000 C 
BRANCH  19  20
ATOM     20  N   UNL     1       7.482   5.376  14.471  0.00  0.00    +0.000 NA
ATOM     21  H   UNL     1       7.732   5.704  13.537  0.00  0.00    +0.000 HD
ATOM     22  H   UNL     1       7.942   4.468  14.567  0.00  0.00    +0.000 HD
ENDBRANCH  19  20
ENDBRANCH  16  19
ENDBRANCH   4  15
TORSDOF 4
ENDMDL
