MODEL 1
REMARK VINA RESULT:      -7.7      0.000      0.000
REMARK  Name = 
REMARK  7 active torsions:
REMARK  status: ('A' for Active; 'I' for Inactive)
REMARK    1  A    between atoms: C_2  and  C_3
REMARK    2  A    between atoms: C_6  and  C_7
REMARK    3  A    between atoms: C_7  and  S_8
REMARK    4  A    between atoms: S_8  and  C_9
REMARK    5  A    between atoms: C_12  and  C_13
REMARK    6  A    between atoms: N_18  and  C_19
REMARK    7  A    between atoms: C_19  and  C_20
REMARK                            x       y       z     vdW  Elec       q    Type
REMARK                         _______ _______ _______ _____ _____    ______ ____
ROOT
ATOM      1  C   UNL     1       2.473   7.831  18.613  0.00  0.00    +0.000 A 
ATOM      2  N   UNL     1       2.645   8.495  17.496  0.00  0.00    +0.000 NA
ATOM      3  N   UNL     1       3.604   7.834  16.754  0.00  0.00    +0.000 NA
ATOM      4  C   UNL     1       4.033   6.782  17.433  0.00  0.00    +0.000 A 
ATOM      5  N   UNL     1       3.309   6.728  18.617  0.00  0.00    +0.000 N 
ENDROOT
BRANCH   4   6
ATOM      6  C   UNL     1       5.118   5.921  16.987  0.00  0.00    +0.000 A 
ATOM      7  C   UNL     1       5.161   4.978  15.970  0.00  0.00    +0.000 A 
ATOM      8  C   UNL     1       6.382   4.240  15.908  0.00  0.00    +0.000 A 
ATOM      9  C   UNL     1       7.274   4.661  16.861  0.00  0.00    +0.000 A 
ATOM     10  S   UNL     1       6.640   5.936  17.809  0.00  0.00    +0.000 S 
ENDBRANCH   4   6
BRANCH   1  11
ATOM     11  S   UNL     1       1.383   8.275  19.910  0.00  0.00    +0.000 S 
BRANCH  11  12
ATOM     12  C   UNL     1       1.128  10.086  19.684  0.00  0.00    +0.000 C 
BRANCH  12  16
ATOM     13  C   UNL     1      -2.752  11.101  17.905  0.00  0.00    +0.000 A 
ATOM     14  C   UNL     1      -1.922  10.159  17.311  0.00  0.00    +0.000 A 
ATOM     15  C   UNL     1      -0.678   9.827  17.880  0.00  0.00    +0.000 A 
ATOM     16  C   UNL     1      -0.227  10.451  19.060  0.00  0.00    +0.000 A 
ATOM     17  C   UNL     1      -1.095  11.375  19.666  0.00  0.00    +0.000 A 
ATOM     18  C   UNL     1      -2.343  11.703  19.098  0.00  0.00    +0.000 A 
BRANCH  13  20
ATOM     19  N   UNL     1      -5.032  11.740  16.808  0.00  0.00    +0.000 NA
ATOM     20  C   UNL     1      -4.012  11.459  17.301  0.00  0.00    +0.000 C 
ENDBRANCH  13  20
ENDBRANCH  12  16
ENDBRANCH  11  12
ENDBRANCH   1  11
BRANCH   5  21
ATOM     21  C   UNL     1       3.428   5.703  19.639  0.00  0.00    +0.000 C 
BRANCH  21  22
ATOM     22  C   UNL     1       2.507   4.515  19.432  0.00  0.00    +0.000 A 
ATOM     23  C   UNL     1       1.386   4.261  20.242  0.00  0.00    +0.000 A 
ATOM     24  C   UNL     1       0.548   3.175  19.990  0.00  0.00    +0.000 A 
ATOM     25  C   UNL     1       0.815   2.321  18.927  0.00  0.00    +0.000 A 
ATOM     26  C   UNL     1       1.949   2.522  18.143  0.00  0.00    +0.000 A 
ATOM     27  C   UNL     1       2.794   3.606  18.398  0.00  0.00    +0.000 A 
ENDBRANCH  21  22
ENDBRANCH   5  21
TORSDOF 7
ENDMDL
MODEL 2
REMARK VINA RESULT:      -7.6      0.441      1.023
REMARK  Name = 
REMARK  7 active torsions:
REMARK  status: ('A' for Active; 'I' for Inactive)
REMARK    1  A    between atoms: C_2  and  C_3
REMARK    2  A    between atoms: C_6  and  C_7
REMARK    3  A    between atoms: C_7  and  S_8
REMARK    4  A    between atoms: S_8  and  C_9
REMARK    5  A    between atoms: C_12  and  C_13
REMARK    6  A    between atoms: N_18  and  C_19
REMARK    7  A    between atoms: C_19  and  C_20
REMARK                            x       y       z     vdW  Elec       q    Type
REMARK                         _______ _______ _______ _____ _____    ______ ____
ROOT
ATOM      1  C   UNL     1       2.330   7.995  18.661  0.00  0.00    +0.000 A 
ATOM      2  N   UNL     1       2.438   8.603  17.505  0.00  0.00    +0.000 NA
ATOM      3  N   UNL     1       3.376   7.923  16.754  0.00  0.00    +0.000 NA
ATOM      4  C   UNL     1       3.858   6.916  17.466  0.00  0.00    +0.000 A 
ATOM      5  N   UNL     1       3.189   6.910  18.682  0.00  0.00    +0.000 N 
ENDROOT
BRANCH   4   6
ATOM      6  C   UNL     1       4.941   6.054  17.014  0.00  0.00    +0.000 A 
ATOM      7  C   UNL     1       4.915   4.912  16.228  0.00  0.00    +0.000 A 
ATOM      8  C   UNL     1       6.182   4.266  16.094  0.00  0.00    +0.000 A 
ATOM      9  C   UNL     1       7.169   4.952  16.755  0.00  0.00    +0.000 A 
ATOM     10  S   UNL     1       6.568   6.360  17.516  0.00  0.00    +0.000 S 
ENDBRANCH   4   6
BRANCH   1  11
ATOM     11  S   UNL     1       1.290   8.484  19.982  0.00  0.00    +0.000 S 
BRANCH  11  12
ATOM     12  C   UNL     1       1.003  10.280  19.689  0.00  0.00    +0.000 C 
BRANCH  12  16
ATOM     13  C   UNL     1      -2.924  11.225  17.975  0.00  0.00    +0.000 A 
ATOM     14  C   UNL     1      -2.457  11.898  19.097  0.00  0.00    +0.000 A 
ATOM     15  C   UNL     1      -1.196  11.601  19.648  0.00  0.00    +0.000 A 
ATOM     16  C   UNL     1      -0.375  10.601  19.091  0.00  0.00    +0.000 A 
ATOM     17  C   UNL     1      -0.847   9.956  17.935  0.00  0.00    +0.000 A 
ATOM     18  C   UNL     1      -2.109  10.258  17.381  0.00  0.00    +0.000 A 
BRANCH  13  20
ATOM     19  N   UNL     1      -5.285  11.755  16.998  0.00  0.00    +0.000 NA
ATOM     20  C   UNL     1      -4.229  11.513  17.433  0.00  0.00    +0.000 C 
ENDBRANCH  13  20
ENDBRANCH  12  16
ENDBRANCH  11  12
ENDBRANCH   1  11
BRANCH   5  21
ATOM     21  C   UNL     1       3.376   5.941  19.749  0.00  0.00    +0.000 C 
BRANCH  21  22
ATOM     22  C   UNL     1       2.427   4.759  19.684  0.00  0.00    +0.000 A 
ATOM     23  C   UNL     1       1.872   4.155  20.825  0.00  0.00    +0.000 A 
ATOM     24  C   UNL     1       0.975   3.093  20.712  0.00  0.00    +0.000 A 
ATOM     25  C   UNL     1       0.617   2.613  19.458  0.00  0.00    +0.000 A 
ATOM     26  C   UNL     1       1.194   3.161  18.315  0.00  0.00    +0.000 A 
ATOM     27  C   UNL     1       2.099   4.222  18.426  0.00  0.00    +0.000 A 
ENDBRANCH  21  22
ENDBRANCH   5  21
TORSDOF 7
ENDMDL
MODEL 3
REMARK VINA RESULT:      -7.5      4.813      7.751
REMARK  Name = 
REMARK  7 active torsions:
REMARK  status: ('A' for Active; 'I' for Inactive)
REMARK    1  A    between atoms: C_2  and  C_3
REMARK    2  A    between atoms: C_6  and  C_7
REMARK    3  A    between atoms: C_7  and  S_8
REMARK    4  A    between atoms: S_8  and  C_9
REMARK    5  A    between atoms: C_12  and  C_13
REMARK    6  A    between atoms: N_18  and  C_19
REMARK    7  A    between atoms: C_19  and  C_20
REMARK                            x       y       z     vdW  Elec       q    Type
REMARK                         _______ _______ _______ _____ _____    ______ ____
ROOT
ATOM      1  C   UNL     1       6.891   6.420  17.830  0.00  0.00    +0.000 A 
ATOM      2  N   UNL     1       7.635   5.512  18.414  0.00  0.00    +0.000 NA
ATOM      3  N   UNL     1       6.876   4.368  18.557  0.00  0.00    +0.000 NA
ATOM      4  C   UNL     1       5.660   4.589  18.083  0.00  0.00    +0.000 A 
ATOM      5  N   UNL     1       5.639   5.883  17.580  0.00  0.00    +0.000 N 
ENDROOT
BRANCH   4   6
ATOM      6  C   UNL     1       4.573   3.625  18.170  0.00  0.00    +0.000 A 
ATOM      7  C   UNL     1       3.621   3.252  17.231  0.00  0.00    +0.000 A 
ATOM      8  C   UNL     1       2.633   2.350  17.729  0.00  0.00    +0.000 A 
ATOM      9  C   UNL     1       2.869   2.015  19.038  0.00  0.00    +0.000 A 
ATOM     10  S   UNL     1       4.272   2.779  19.649  0.00  0.00    +0.000 S 
ENDBRANCH   4   6
BRANCH   1  11
ATOM     11  S   UNL     1       7.380   8.056  17.450  0.00  0.00    +0.000 S 
BRANCH  11  12
ATOM     12  C   UNL     1       8.607   8.476  18.759  0.00  0.00    +0.000 C 
BRANCH  12  16
ATOM     13  C   UNL     1       9.714  12.721  18.845  0.00  0.00    +0.000 A 
ATOM     14  C   UNL     1       8.927  12.212  17.819  0.00  0.00    +0.000 A 
ATOM     15  C   UNL     1       8.566  10.852  17.790  0.00  0.00    +0.000 A 
ATOM     16  C   UNL     1       9.004   9.959  18.788  0.00  0.00    +0.000 A 
ATOM     17  C   UNL     1       9.770  10.499  19.836  0.00  0.00    +0.000 A 
ATOM     18  C   UNL     1      10.127  11.863  19.867  0.00  0.00    +0.000 A 
BRANCH  13  20
ATOM     19  N   UNL     1      10.431  15.230  18.862  0.00  0.00    +0.000 NA
ATOM     20  C   UNL     1      10.106  14.109  18.853  0.00  0.00    +0.000 C 
ENDBRANCH  13  20
ENDBRANCH  12  16
ENDBRANCH  11  12
ENDBRANCH   1  11
BRANCH   5  21
ATOM     21  C   UNL     1       4.511   6.520  16.923  0.00  0.00    +0.000 C 
BRANCH  21  22
ATOM     22  C   UNL     1       3.479   7.088  17.880  0.00  0.00    +0.000 A 
ATOM     23  C   UNL     1       3.112   6.453  19.079  0.00  0.00    +0.000 A 
ATOM     24  C   UNL     1       2.184   7.033  19.944  0.00  0.00    +0.000 A 
ATOM     25  C   UNL     1       1.604   8.256  19.627  0.00  0.00    +0.000 A 
ATOM     26  C   UNL     1       1.913   8.877  18.419  0.00  0.00    +0.000 A 
ATOM     27  C   UNL     1       2.838   8.295  17.548  0.00  0.00    +0.000 A 
ENDBRANCH  21  22
ENDBRANCH   5  21
TORSDOF 7
ENDMDL
MODEL 4
REMARK VINA RESULT:      -7.4      2.745      8.876
REMARK  Name = 
REMARK  7 active torsions:
REMARK  status: ('A' for Active; 'I' for Inactive)
REMARK    1  A    between atoms: C_2  and  C_3
REMARK    2  A    between atoms: C_6  and  C_7
REMARK    3  A    between atoms: C_7  and  S_8
REMARK    4  A    between atoms: S_8  and  C_9
REMARK    5  A    between atoms: C_12  and  C_13
REMARK    6  A    between atoms: N_18  and  C_19
REMARK    7  A    between atoms: C_19  and  C_20
REMARK                            x       y       z     vdW  Elec       q    Type
REMARK                         _______ _______ _______ _____ _____    ______ ____
ROOT
ATOM      1  C   UNL     1       1.320   8.929  19.843  0.00  0.00    +0.000 A 
ATOM      2  N   UNL     1       1.404   8.365  21.024  0.00  0.00    +0.000 NA
ATOM      3  N   UNL     1       0.752   9.178  21.930  0.00  0.00    +0.000 NA
ATOM      4  C   UNL     1       0.293  10.250  21.302  0.00  0.00    +0.000 A 
ATOM      5  N   UNL     1       0.610  10.112  19.958  0.00  0.00    +0.000 N 
ENDROOT
BRANCH   4   6
ATOM      6  C   UNL     1      -0.356  11.363  21.978  0.00  0.00    +0.000 A 
ATOM      7  C   UNL     1      -1.418  11.381  22.872  0.00  0.00    +0.000 A 
ATOM      8  C   UNL     1      -1.855  12.690  23.235  0.00  0.00    +0.000 A 
ATOM      9  C   UNL     1      -1.090  13.660  22.638  0.00  0.00    +0.000 A 
ATOM     10  S   UNL     1       0.143  12.989  21.661  0.00  0.00    +0.000 S 
ENDBRANCH   4   6
BRANCH   1  11
ATOM     11  S   UNL     1       2.013   8.308  18.360  0.00  0.00    +0.000 S 
BRANCH  11  12
ATOM     12  C   UNL     1       2.913   6.789  18.885  0.00  0.00    +0.000 C 
BRANCH  12  16
ATOM     13  C   UNL     1       5.216   4.895  15.666  0.00  0.00    +0.000 A 
ATOM     14  C   UNL     1       4.420   4.134  16.513  0.00  0.00    +0.000 A 
ATOM     15  C   UNL     1       3.676   4.738  17.544  0.00  0.00    +0.000 A 
ATOM     16  C   UNL     1       3.728   6.129  17.763  0.00  0.00    +0.000 A 
ATOM     17  C   UNL     1       4.510   6.886  16.874  0.00  0.00    +0.000 A 
ATOM     18  C   UNL     1       5.251   6.281  15.838  0.00  0.00    +0.000 A 
BRANCH  13  20
ATOM     19  N   UNL     1       6.635   3.753  13.796  0.00  0.00    +0.000 NA
ATOM     20  C   UNL     1       5.998   4.267  14.629  0.00  0.00    +0.000 C 
ENDBRANCH  13  20
ENDBRANCH  12  16
ENDBRANCH  11  12
ENDBRANCH   1  11
BRANCH   5  21
ATOM     21  C   UNL     1       0.253  11.043  18.902  0.00  0.00    +0.000 C 
BRANCH  21  22
ATOM     22  C   UNL     1      -1.166  10.882  18.389  0.00  0.00    +0.000 A 
ATOM     23  C   UNL     1      -1.536   9.907  17.446  0.00  0.00    +0.000 A 
ATOM     24  C   UNL     1      -2.862   9.774  17.033  0.00  0.00    +0.000 A 
ATOM     25  C   UNL     1      -3.841  10.613  17.551  0.00  0.00    +0.000 A 
ATOM     26  C   UNL     1      -3.489  11.620  18.446  0.00  0.00    +0.000 A 
ATOM     27  C   UNL     1      -2.161  11.759  18.858  0.00  0.00    +0.000 A 
ENDBRANCH  21  22
ENDBRANCH   5  21
TORSDOF 7
ENDMDL
MODEL 5
REMARK VINA RESULT:      -7.4      2.733      8.911
REMARK  Name = 
REMARK  7 active torsions:
REMARK  status: ('A' for Active; 'I' for Inactive)
REMARK    1  A    between atoms: C_2  and  C_3
REMARK    2  A    between atoms: C_6  and  C_7
REMARK    3  A    between atoms: C_7  and  S_8
REMARK    4  A    between atoms: S_8  and  C_9
REMARK    5  A    between atoms: C_12  and  C_13
REMARK    6  A    between atoms: N_18  and  C_19
REMARK    7  A    between atoms: C_19  and  C_20
REMARK                            x       y       z     vdW  Elec       q    Type
REMARK                         _______ _______ _______ _____ _____    ______ ____
ROOT
ATOM      1  C   UNL     1       1.208   9.207  19.863  0.00  0.00    +0.000 A 
ATOM      2  N   UNL     1       1.341   8.724  21.075  0.00  0.00    +0.000 NA
ATOM      3  N   UNL     1       0.732   9.600  21.950  0.00  0.00    +0.000 NA
ATOM      4  C   UNL     1       0.251  10.631  21.272  0.00  0.00    +0.000 A 
ATOM      5  N   UNL     1       0.509  10.400  19.928  0.00  0.00    +0.000 N 
ENDROOT
BRANCH   4   6
ATOM      6  C   UNL     1      -0.365  11.792  21.898  0.00  0.00    +0.000 A 
ATOM      7  C   UNL     1      -0.043  13.139  21.812  0.00  0.00    +0.000 A 
ATOM      8  C   UNL     1      -0.812  13.979  22.672  0.00  0.00    +0.000 A 
ATOM      9  C   UNL     1      -1.742  13.261  23.380  0.00  0.00    +0.000 A 
ATOM     10  S   UNL     1      -1.686  11.594  22.998  0.00  0.00    +0.000 S 
ENDBRANCH   4   6
BRANCH   1  11
ATOM     11  S   UNL     1       1.834   8.483  18.398  0.00  0.00    +0.000 S 
BRANCH  11  12
ATOM     12  C   UNL     1       2.637   6.927  18.971  0.00  0.00    +0.000 C 
BRANCH  12  16
ATOM     13  C   UNL     1       5.098   4.956  15.920  0.00  0.00    +0.000 A 
ATOM     14  C   UNL     1       5.148   6.333  16.093  0.00  0.00    +0.000 A 
ATOM     15  C   UNL     1       4.364   6.969  17.073  0.00  0.00    +0.000 A 
ATOM     16  C   UNL     1       3.490   6.234  17.898  0.00  0.00    +0.000 A 
ATOM     17  C   UNL     1       3.479   4.838  17.733  0.00  0.00    +0.000 A 
ATOM     18  C   UNL     1       4.269   4.201  16.754  0.00  0.00    +0.000 A 
BRANCH  13  20
ATOM     19  N   UNL     1       6.509   3.790  14.060  0.00  0.00    +0.000 NA
ATOM     20  C   UNL     1       5.882   4.313  14.894  0.00  0.00    +0.000 C 
ENDBRANCH  13  20
ENDBRANCH  12  16
ENDBRANCH  11  12
ENDBRANCH   1  11
BRANCH   5  21
ATOM     21  C   UNL     1       0.110  11.260  18.827  0.00  0.00    +0.000 C 
BRANCH  21  22
ATOM     22  C   UNL     1      -1.322  11.054  18.369  0.00  0.00    +0.000 A 
ATOM     23  C   UNL     1      -2.399  11.821  18.846  0.00  0.00    +0.000 A 
ATOM     24  C   UNL     1      -3.694  11.618  18.367  0.00  0.00    +0.000 A 
ATOM     25  C   UNL     1      -3.937  10.645  17.406  0.00  0.00    +0.000 A 
ATOM     26  C   UNL     1      -2.894   9.837  16.958  0.00  0.00    +0.000 A 
ATOM     27  C   UNL     1      -1.597  10.034  17.441  0.00  0.00    +0.000 A 
ENDBRANCH  21  22
ENDBRANCH   5  21
TORSDOF 7
ENDMDL
MODEL 6
REMARK VINA RESULT:      -7.4      0.755      1.519
REMARK  Name = 
REMARK  7 active torsions:
REMARK  status: ('A' for Active; 'I' for Inactive)
REMARK    1  A    between atoms: C_2  and  C_3
REMARK    2  A    between atoms: C_6  and  C_7
REMARK    3  A    between atoms: C_7  and  S_8
REMARK    4  A    between atoms: S_8  and  C_9
REMARK    5  A    between atoms: C_12  and  C_13
REMARK    6  A    between atoms: N_18  and  C_19
REMARK    7  A    between atoms: C_19  and  C_20
REMARK                            x       y       z     vdW  Elec       q    Type
REMARK                         _______ _______ _______ _____ _____    ______ ____
ROOT
ATOM      1  C   UNL     1       2.344   7.932  18.637  0.00  0.00    +0.000 A 
ATOM      2  N   UNL     1       2.497   8.542  17.487  0.00  0.00    +0.000 NA
ATOM      3  N   UNL     1       3.495   7.891  16.790  0.00  0.00    +0.000 NA
ATOM      4  C   UNL     1       3.967   6.899  17.529  0.00  0.00    +0.000 A 
ATOM      5  N   UNL     1       3.234   6.874  18.707  0.00  0.00    +0.000 N 
ENDROOT
BRANCH   4   6
ATOM      6  C   UNL     1       5.098   6.070  17.139  0.00  0.00    +0.000 A 
ATOM      7  C   UNL     1       6.461   6.266  17.311  0.00  0.00    +0.000 A 
ATOM      8  C   UNL     1       7.278   5.278  16.683  0.00  0.00    +0.000 A 
ATOM      9  C   UNL     1       6.519   4.314  16.068  0.00  0.00    +0.000 A 
ATOM     10  S   UNL     1       4.844   4.603  16.259  0.00  0.00    +0.000 S 
ENDBRANCH   4   6
BRANCH   1  11
ATOM     11  S   UNL     1       1.220   8.390  19.898  0.00  0.00    +0.000 S 
BRANCH  11  12
ATOM     12  C   UNL     1       0.963  10.196  19.639  0.00  0.00    +0.000 C 
BRANCH  12  16
ATOM     13  C   UNL     1      -2.934  11.235  17.911  0.00  0.00    +0.000 A 
ATOM     14  C   UNL     1      -2.471  11.872  19.055  0.00  0.00    +0.000 A 
ATOM     15  C   UNL     1      -1.219  11.545  19.610  0.00  0.00    +0.000 A 
ATOM     16  C   UNL     1      -0.404  10.550  19.036  0.00  0.00    +0.000 A 
ATOM     17  C   UNL     1      -0.873   9.941  17.859  0.00  0.00    +0.000 A 
ATOM     18  C   UNL     1      -2.125  10.273  17.300  0.00  0.00    +0.000 A 
BRANCH  13  20
ATOM     19  N   UNL     1      -5.280  11.803  16.918  0.00  0.00    +0.000 NA
ATOM     20  C   UNL     1      -4.229  11.553  17.363  0.00  0.00    +0.000 C 
ENDBRANCH  13  20
ENDBRANCH  12  16
ENDBRANCH  11  12
ENDBRANCH   1  11
BRANCH   5  21
ATOM     21  C   UNL     1       3.392   5.911  19.785  0.00  0.00    +0.000 C 
BRANCH  21  22
ATOM     22  C   UNL     1       2.438   4.734  19.706  0.00  0.00    +0.000 A 
ATOM     23  C   UNL     1       1.945   4.223  18.493  0.00  0.00    +0.000 A 
ATOM     24  C   UNL     1       1.099   3.115  18.470  0.00  0.00    +0.000 A 
ATOM     25  C   UNL     1       0.727   2.497  19.659  0.00  0.00    +0.000 A 
ATOM     26  C   UNL     1       1.160   3.018  20.876  0.00  0.00    +0.000 A 
ATOM     27  C   UNL     1       2.003   4.132  20.901  0.00  0.00    +0.000 A 
ENDBRANCH  21  22
ENDBRANCH   5  21
TORSDOF 7
ENDMDL
MODEL 7
REMARK VINA RESULT:      -7.4      2.051      2.600
REMARK  Name = 
REMARK  7 active torsions:
REMARK  status: ('A' for Active; 'I' for Inactive)
REMARK    1  A    between atoms: C_2  and  C_3
REMARK    2  A    between atoms: C_6  and  C_7
REMARK    3  A    between atoms: C_7  and  S_8
REMARK    4  A    between atoms: S_8  and  C_9
REMARK    5  A    between atoms: C_12  and  C_13
REMARK    6  A    between atoms: N_18  and  C_19
REMARK    7  A    between atoms: C_19  and  C_20
REMARK                            x       y       z     vdW  Elec       q    Type
REMARK                         _______ _______ _______ _____ _____    ______ ____
ROOT
ATOM      1  C   UNL     1       2.501   7.802  18.740  0.00  0.00    +0.000 A 
ATOM      2  N   UNL     1       2.642   8.482  17.628  0.00  0.00    +0.000 NA
ATOM      3  N   UNL     1       3.560   7.818  16.839  0.00  0.00    +0.000 NA
ATOM      4  C   UNL     1       3.996   6.747  17.483  0.00  0.00    +0.000 A 
ATOM      5  N   UNL     1       3.318   6.685  18.692  0.00  0.00    +0.000 N 
ENDROOT
BRANCH   4   6
ATOM      6  C   UNL     1       5.049   5.877  16.981  0.00  0.00    +0.000 A 
ATOM      7  C   UNL     1       5.010   4.877  16.019  0.00  0.00    +0.000 A 
ATOM      8  C   UNL     1       6.233   4.154  15.879  0.00  0.00    +0.000 A 
ATOM      9  C   UNL     1       7.206   4.641  16.714  0.00  0.00    +0.000 A 
ATOM     10  S   UNL     1       6.644   5.960  17.646  0.00  0.00    +0.000 S 
ENDBRANCH   4   6
BRANCH   1  11
ATOM     11  S   UNL     1       1.470   8.241  20.085  0.00  0.00    +0.000 S 
BRANCH  11  12
ATOM     12  C   UNL     1       0.966   9.975  19.719  0.00  0.00    +0.000 C 
BRANCH  12  16
ATOM     13  C   UNL     1      -1.892  11.643  22.601  0.00  0.00    +0.000 A 
ATOM     14  C   UNL     1      -1.033  10.613  22.965  0.00  0.00    +0.000 A 
ATOM     15  C   UNL     1      -0.111  10.078  22.046  0.00  0.00    +0.000 A 
ATOM     16  C   UNL     1      -0.042  10.555  20.722  0.00  0.00    +0.000 A 
ATOM     17  C   UNL     1      -0.893  11.621  20.381  0.00  0.00    +0.000 A 
ATOM     18  C   UNL     1      -1.812  12.160  21.306  0.00  0.00    +0.000 A 
BRANCH  13  20
ATOM     19  N   UNL     1      -3.632  12.584  24.303  0.00  0.00    +0.000 NA
ATOM     20  C   UNL     1      -2.853  12.167  23.539  0.00  0.00    +0.000 C 
ENDBRANCH  13  20
ENDBRANCH  12  16
ENDBRANCH  11  12
ENDBRANCH   1  11
BRANCH   5  21
ATOM     21  C   UNL     1       3.458   5.640  19.692  0.00  0.00    +0.000 C 
BRANCH  21  22
ATOM     22  C   UNL     1       2.497   4.480  19.512  0.00  0.00    +0.000 A 
ATOM     23  C   UNL     1       1.416   4.237  20.376  0.00  0.00    +0.000 A 
ATOM     24  C   UNL     1       0.537   3.177  20.148  0.00  0.00    +0.000 A 
ATOM     25  C   UNL     1       0.725   2.340  19.055  0.00  0.00    +0.000 A 
ATOM     26  C   UNL     1       1.820   2.529  18.216  0.00  0.00    +0.000 A 
ATOM     27  C   UNL     1       2.705   3.586  18.446  0.00  0.00    +0.000 A 
ENDBRANCH  21  22
ENDBRANCH   5  21
TORSDOF 7
ENDMDL
MODEL 8
REMARK VINA RESULT:      -7.3      1.568      3.529
REMARK  Name = 
REMARK  7 active torsions:
REMARK  status: ('A' for Active; 'I' for Inactive)
REMARK    1  A    between atoms: C_2  and  C_3
REMARK    2  A    between atoms: C_6  and  C_7
REMARK    3  A    between atoms: C_7  and  S_8
REMARK    4  A    between atoms: S_8  and  C_9
REMARK    5  A    between atoms: C_12  and  C_13
REMARK    6  A    between atoms: N_18  and  C_19
REMARK    7  A    between atoms: C_19  and  C_20
REMARK                            x       y       z     vdW  Elec       q    Type
REMARK                         _______ _______ _______ _____ _____    ______ ____
ROOT
ATOM      1  C   UNL     1       2.268   7.746  18.918  0.00  0.00    +0.000 A 
ATOM      2  N   UNL     1       1.798   7.414  20.096  0.00  0.00    +0.000 NA
ATOM      3  N   UNL     1       2.095   6.084  20.312  0.00  0.00    +0.000 NA
ATOM      4  C   UNL     1       2.724   5.599  19.252  0.00  0.00    +0.000 A 
ATOM      5  N   UNL     1       2.881   6.642  18.350  0.00  0.00    +0.000 N 
ENDROOT
BRANCH   4   6
ATOM      6  C   UNL     1       3.092   4.199  19.103  0.00  0.00    +0.000 A 
ATOM      7  C   UNL     1       4.141   3.478  19.657  0.00  0.00    +0.000 A 
ATOM      8  C   UNL     1       4.245   2.137  19.178  0.00  0.00    +0.000 A 
ATOM      9  C   UNL     1       3.244   1.840  18.289  0.00  0.00    +0.000 A 
ATOM     10  S   UNL     1       2.192   3.167  18.046  0.00  0.00    +0.000 S 
ENDBRANCH   4   6
BRANCH   1  11
ATOM     11  S   UNL     1       2.125   9.319  18.164  0.00  0.00    +0.000 S 
BRANCH  11  12
ATOM     12  C   UNL     1       1.104  10.295  19.347  0.00  0.00    +0.000 C 
BRANCH  12  16
ATOM     13  C   UNL     1      -2.928  11.209  17.877  0.00  0.00    +0.000 A 
ATOM     14  C   UNL     1      -2.160  10.219  17.277  0.00  0.00    +0.000 A 
ATOM     15  C   UNL     1      -0.868   9.919  17.748  0.00  0.00    +0.000 A 
ATOM     16  C   UNL     1      -0.304  10.624  18.830  0.00  0.00    +0.000 A 
ATOM     17  C   UNL     1      -1.109  11.597  19.447  0.00  0.00    +0.000 A 
ATOM     18  C   UNL     1      -2.406  11.893  18.977  0.00  0.00    +0.000 A 
BRANCH  13  20
ATOM     19  N   UNL     1      -5.303  11.798  16.969  0.00  0.00    +0.000 NA
ATOM     20  C   UNL     1      -4.240  11.531  17.372  0.00  0.00    +0.000 C 
ENDBRANCH  13  20
ENDBRANCH  12  16
ENDBRANCH  11  12
ENDBRANCH   1  11
BRANCH   5  21
ATOM     21  C   UNL     1       3.562   6.561  17.069  0.00  0.00    +0.000 C 
BRANCH  21  22
ATOM     22  C   UNL     1       4.937   5.923  17.138  0.00  0.00    +0.000 A 
ATOM     23  C   UNL     1       5.950   6.372  18.003  0.00  0.00    +0.000 A 
ATOM     24  C   UNL     1       7.187   5.729  18.057  0.00  0.00    +0.000 A 
ATOM     25  C   UNL     1       7.435   4.628  17.247  0.00  0.00    +0.000 A 
ATOM     26  C   UNL     1       6.466   4.197  16.345  0.00  0.00    +0.000 A 
ATOM     27  C   UNL     1       5.228   4.844  16.284  0.00  0.00    +0.000 A 
ENDBRANCH  21  22
ENDBRANCH   5  21
TORSDOF 7
ENDMDL
MODEL 9
REMARK VINA RESULT:      -7.2      1.362      3.574
REMARK  Name = 
REMARK  7 active torsions:
REMARK  status: ('A' for Active; 'I' for Inactive)
REMARK    1  A    between atoms: C_2  and  C_3
REMARK    2  A    between atoms: C_6  and  C_7
REMARK    3  A    between atoms: C_7  and  S_8
REMARK    4  A    between atoms: S_8  and  C_9
REMARK    5  A    between atoms: C_12  and  C_13
REMARK    6  A    between atoms: N_18  and  C_19
REMARK    7  A    between atoms: C_19  and  C_20
REMARK                            x       y       z     vdW  Elec       q    Type
REMARK                         _______ _______ _______ _____ _____    ______ ____
ROOT
ATOM      1  C   UNL     1       2.307   7.746  18.913  0.00  0.00    +0.000 A 
ATOM      2  N   UNL     1       1.793   7.311  20.038  0.00  0.00    +0.000 NA
ATOM      3  N   UNL     1       2.031   5.953  20.116  0.00  0.00    +0.000 NA
ATOM      4  C   UNL     1       2.667   5.558  19.024  0.00  0.00    +0.000 A 
ATOM      5  N   UNL     1       2.890   6.684  18.243  0.00  0.00    +0.000 N 
ENDROOT
BRANCH   4   6
ATOM      6  C   UNL     1       2.982   4.167  18.733  0.00  0.00    +0.000 A 
ATOM      7  C   UNL     1       2.398   3.278  17.841  0.00  0.00    +0.000 A 
ATOM      8  C   UNL     1       2.912   1.948  17.922  0.00  0.00    +0.000 A 
ATOM      9  C   UNL     1       3.913   1.850  18.855  0.00  0.00    +0.000 A 
ATOM     10  S   UNL     1       4.229   3.351  19.612  0.00  0.00    +0.000 S 
ENDBRANCH   4   6
BRANCH   1  11
ATOM     11  S   UNL     1       2.247   9.395  18.330  0.00  0.00    +0.000 S 
BRANCH  11  12
ATOM     12  C   UNL     1       1.123  10.251  19.513  0.00  0.00    +0.000 C 
BRANCH  12  16
ATOM     13  C   UNL     1      -2.824  11.203  17.849  0.00  0.00    +0.000 A 
ATOM     14  C   UNL     1      -2.344  11.871  18.969  0.00  0.00    +0.000 A 
ATOM     15  C   UNL     1      -1.077  11.572  19.503  0.00  0.00    +0.000 A 
ATOM     16  C   UNL     1      -0.262  10.574  18.933  0.00  0.00    +0.000 A 
ATOM     17  C   UNL     1      -0.748   9.934  17.780  0.00  0.00    +0.000 A 
ATOM     18  C   UNL     1      -2.016  10.238  17.243  0.00  0.00    +0.000 A 
BRANCH  13  20
ATOM     19  N   UNL     1      -5.199  11.719  16.898  0.00  0.00    +0.000 NA
ATOM     20  C   UNL     1      -4.135  11.493  17.324  0.00  0.00    +0.000 C 
ENDBRANCH  13  20
ENDBRANCH  12  16
ENDBRANCH  11  12
ENDBRANCH   1  11
BRANCH   5  21
ATOM     21  C   UNL     1       3.600   6.711  16.976  0.00  0.00    +0.000 C 
BRANCH  21  22
ATOM     22  C   UNL     1       4.947   6.013  17.007  0.00  0.00    +0.000 A 
ATOM     23  C   UNL     1       5.979   6.374  17.890  0.00  0.00    +0.000 A 
ATOM     24  C   UNL     1       7.188   5.678  17.906  0.00  0.00    +0.000 A 
ATOM     25  C   UNL     1       7.389   4.611  17.038  0.00  0.00    +0.000 A 
ATOM     26  C   UNL     1       6.401   4.269  16.118  0.00  0.00    +0.000 A 
ATOM     27  C   UNL     1       5.191   4.969  16.096  0.00  0.00    +0.000 A 
ENDBRANCH  21  22
ENDBRANCH   5  21
TORSDOF 7
ENDMDL
