MODEL 1
REMARK VINA RESULT:      -8.6      0.000      0.000
REMARK  Name = 
REMARK  8 active torsions:
REMARK  status: ('A' for Active; 'I' for Inactive)
REMARK    1  A    between atoms: C_1  and  C_2
REMARK    2  A    between atoms: C_4  and  O_5
REMARK    3  A    between atoms: O_5  and  C_6
REMARK    4  A    between atoms: C_6  and  C_7
REMARK    5  A    between atoms: C_17  and  O_18
REMARK    6  A    between atoms: O_18  and  S_19
REMARK    7  A    between atoms: S_19  and  C_22
REMARK    8  A    between atoms: C_26  and  N_27
REMARK                            x       y       z     vdW  Elec       q    Type
REMARK                         _______ _______ _______ _____ _____    ______ ____
ROOT
ATOM      1  C   UNL     1       2.448   2.643  17.597  0.00  0.00    +0.000 C 
ATOM      2  C   UNL     1       3.048   3.875  18.203  0.00  0.00    +0.000 A 
ATOM      3  C   UNL     1       2.289   5.034  18.371  0.00  0.00    +0.000 A 
ATOM      4  C   UNL     1       2.836   6.180  18.954  0.00  0.00    +0.000 A 
ATOM      5  C   UNL     1       4.168   6.188  19.354  0.00  0.00    +0.000 A 
ATOM      6  C   UNL     1       4.948   5.032  19.178  0.00  0.00    +0.000 A 
ATOM      7  C   UNL     1       4.378   3.875  18.631  0.00  0.00    +0.000 A 
ENDROOT
BRANCH   4   8
ATOM      8  O   UNL     1       1.921   7.164  19.160  0.00  0.00    +0.000 OA
BRANCH   8   9
ATOM      9  C   UNL     1       1.738   7.723  20.460  0.00  0.00    +0.000 C 
BRANCH   9  10
ATOM     10  C   UNL     1       1.224   9.144  20.198  0.00  0.00    +0.000 C 
ATOM     11  C   UNL     1       1.255   9.551  18.710  0.00  0.00    +0.000 C 
ATOM     12  C   UNL     1       0.923  11.043  18.587  0.00  0.00    +0.000 C 
ATOM     13  N   UNL     1      -0.385  11.312  19.209  0.00  0.00    +0.000 N 
ATOM     14  C   UNL     1      -1.314  12.123  18.626  0.00  0.00    +0.000 C 
ATOM     15  N   UNL     1      -2.165  12.893  19.206  0.00  0.00    +0.000 NA
ATOM     16  N   UNL     1      -1.376  12.051  17.281  0.00  0.00    +0.000 N 
ATOM     17  C   UNL     1      -0.467  10.917  20.619  0.00  0.00    +0.000 C 
ATOM     18  C   UNL     1      -0.184   9.414  20.735  0.00  0.00    +0.000 C 
ATOM     19  H   UNL     1      -2.007  12.883  20.212  0.00  0.00    +0.000 HD
ATOM     20  H   UNL     1      -1.340  11.098  16.947  0.00  0.00    +0.000 HD
ATOM     21  H   UNL     1      -2.221  12.516  16.968  0.00  0.00    +0.000 HD
ENDBRANCH   9  10
ENDBRANCH   8   9
ENDBRANCH   4   8
BRANCH   6  22
ATOM     22  O   UNL     1       6.254   5.105  19.601  0.00  0.00    +0.000 OA
BRANCH  22  23
ATOM     23  S   UNL     1       7.468   5.423  18.543  0.00  0.00    +0.000 S 
ATOM     24  O   UNL     1       7.988   6.744  18.824  0.00  0.00    +0.000 OA
ATOM     25  O   UNL     1       8.352   4.275  18.457  0.00  0.00    +0.000 OA
BRANCH  23  26
ATOM     26  C   UNL     1       6.637   5.501  16.976  0.00  0.00    +0.000 A 
ATOM     27  C   UNL     1       5.830   6.596  16.649  0.00  0.00    +0.000 A 
ATOM     28  C   UNL     1       5.205   6.618  15.401  0.00  0.00    +0.000 A 
ATOM     29  C   UNL     1       5.400   5.567  14.500  0.00  0.00    +0.000 A 
ATOM     30  C   UNL     1       6.256   4.503  14.806  0.00  0.00    +0.000 A 
ATOM     31  C   UNL     1       6.837   4.455  16.071  0.00  0.00    +0.000 A 
BRANCH  30  32
ATOM     32  N   UNL     1       6.345   3.400  13.951  0.00  0.00    +0.000 N 
ATOM     33  H   UNL     1       6.847   3.588  13.089  0.00  0.00    +0.000 HD
ATOM     34  H   UNL     1       6.675   2.552  14.403  0.00  0.00    +0.000 HD
ENDBRANCH  30  32
ENDBRANCH  23  26
ENDBRANCH  22  23
ENDBRANCH   6  22
TORSDOF 7
ENDMDL
MODEL 2
REMARK VINA RESULT:      -8.5      2.546      3.324
REMARK  Name = 
REMARK  8 active torsions:
REMARK  status: ('A' for Active; 'I' for Inactive)
REMARK    1  A    between atoms: C_1  and  C_2
REMARK    2  A    between atoms: C_4  and  O_5
REMARK    3  A    between atoms: O_5  and  C_6
REMARK    4  A    between atoms: C_6  and  C_7
REMARK    5  A    between atoms: C_17  and  O_18
REMARK    6  A    between atoms: O_18  and  S_19
REMARK    7  A    between atoms: S_19  and  C_22
REMARK    8  A    between atoms: C_26  and  N_27
REMARK                            x       y       z     vdW  Elec       q    Type
REMARK                         _______ _______ _______ _____ _____    ______ ____
ROOT
ATOM      1  C   UNL     1       2.025   3.694  21.402  0.00  0.00    +0.000 C 
ATOM      2  C   UNL     1       2.215   4.791  20.399  0.00  0.00    +0.000 A 
ATOM      3  C   UNL     1       1.835   6.102  20.690  0.00  0.00    +0.000 A 
ATOM      4  C   UNL     1       2.028   7.134  19.768  0.00  0.00    +0.000 A 
ATOM      5  C   UNL     1       2.584   6.859  18.524  0.00  0.00    +0.000 A 
ATOM      6  C   UNL     1       2.960   5.541  18.212  0.00  0.00    +0.000 A 
ATOM      7  C   UNL     1       2.801   4.521  19.159  0.00  0.00    +0.000 A 
ENDROOT
BRANCH   4   8
ATOM      8  O   UNL     1       1.723   8.361  20.267  0.00  0.00    +0.000 OA
BRANCH   8   9
ATOM      9  C   UNL     1       1.123   8.491  21.555  0.00  0.00    +0.000 C 
BRANCH   9  10
ATOM     10  C   UNL     1       0.032   9.553  21.365  0.00  0.00    +0.000 C 
ATOM     11  C   UNL     1      -0.143  10.488  22.579  0.00  0.00    +0.000 C 
ATOM     12  C   UNL     1      -1.383  11.364  22.367  0.00  0.00    +0.000 C 
ATOM     13  N   UNL     1      -1.252  12.111  21.104  0.00  0.00    +0.000 N 
ATOM     14  C   UNL     1      -1.584  13.430  21.003  0.00  0.00    +0.000 C 
ATOM     15  N   UNL     1      -2.073  14.045  19.984  0.00  0.00    +0.000 NA
ATOM     16  N   UNL     1      -1.304  14.179  22.088  0.00  0.00    +0.000 N 
ATOM     17  C   UNL     1      -1.058  11.261  19.925  0.00  0.00    +0.000 C 
ATOM     18  C   UNL     1       0.211  10.421  20.117  0.00  0.00    +0.000 C 
ATOM     19  H   UNL     1      -2.263  13.377  19.239  0.00  0.00    +0.000 HD
ATOM     20  H   UNL     1      -0.391  13.975  22.468  0.00  0.00    +0.000 HD
ATOM     21  H   UNL     1      -1.387  15.159  21.839  0.00  0.00    +0.000 HD
ENDBRANCH   9  10
ENDBRANCH   8   9
ENDBRANCH   4   8
BRANCH   6  22
ATOM     22  O   UNL     1       3.510   5.339  16.968  0.00  0.00    +0.000 OA
BRANCH  22  23
ATOM     23  S   UNL     1       4.864   4.432  16.781  0.00  0.00    +0.000 S 
ATOM     24  O   UNL     1       4.742   3.248  17.606  0.00  0.00    +0.000 OA
ATOM     25  O   UNL     1       5.190   4.328  15.370  0.00  0.00    +0.000 OA
BRANCH  23  26
ATOM     26  C   UNL     1       6.139   5.444  17.489  0.00  0.00    +0.000 A 
ATOM     27  C   UNL     1       6.494   6.663  16.899  0.00  0.00    +0.000 A 
ATOM     28  C   UNL     1       7.495   7.430  17.497  0.00  0.00    +0.000 A 
ATOM     29  C   UNL     1       8.115   6.985  18.668  0.00  0.00    +0.000 A 
ATOM     30  C   UNL     1       7.716   5.796  19.289  0.00  0.00    +0.000 A 
ATOM     31  C   UNL     1       6.754   5.005  18.664  0.00  0.00    +0.000 A 
BRANCH  30  32
ATOM     32  N   UNL     1       8.425   5.300  20.387  0.00  0.00    +0.000 N 
ATOM     33  H   UNL     1       9.225   4.726  20.134  0.00  0.00    +0.000 HD
ATOM     34  H   UNL     1       8.670   6.005  21.075  0.00  0.00    +0.000 HD
ENDBRANCH  30  32
ENDBRANCH  23  26
ENDBRANCH  22  23
ENDBRANCH   6  22
TORSDOF 7
ENDMDL
MODEL 3
REMARK VINA RESULT:      -8.4      2.490      3.059
REMARK  Name = 
REMARK  8 active torsions:
REMARK  status: ('A' for Active; 'I' for Inactive)
REMARK    1  A    between atoms: C_1  and  C_2
REMARK    2  A    between atoms: C_4  and  O_5
REMARK    3  A    between atoms: O_5  and  C_6
REMARK    4  A    between atoms: C_6  and  C_7
REMARK    5  A    between atoms: C_17  and  O_18
REMARK    6  A    between atoms: O_18  and  S_19
REMARK    7  A    between atoms: S_19  and  C_22
REMARK    8  A    between atoms: C_26  and  N_27
REMARK                            x       y       z     vdW  Elec       q    Type
REMARK                         _______ _______ _______ _____ _____    ______ ____
ROOT
ATOM      1  C   UNL     1       2.090   4.109  21.366  0.00  0.00    +0.000 C 
ATOM      2  C   UNL     1       2.301   5.112  20.273  0.00  0.00    +0.000 A 
ATOM      3  C   UNL     1       1.950   6.450  20.451  0.00  0.00    +0.000 A 
ATOM      4  C   UNL     1       2.162   7.396  19.443  0.00  0.00    +0.000 A 
ATOM      5  C   UNL     1       2.710   7.003  18.227  0.00  0.00    +0.000 A 
ATOM      6  C   UNL     1       3.057   5.655  18.029  0.00  0.00    +0.000 A 
ATOM      7  C   UNL     1       2.878   4.724  19.060  0.00  0.00    +0.000 A 
ENDROOT
BRANCH   4   8
ATOM      8  O   UNL     1       1.885   8.668  19.836  0.00  0.00    +0.000 OA
BRANCH   8   9
ATOM      9  C   UNL     1       1.023   8.911  20.946  0.00  0.00    +0.000 C 
BRANCH   9  10
ATOM     10  C   UNL     1       0.284  10.205  20.580  0.00  0.00    +0.000 C 
ATOM     11  C   UNL     1      -0.534  10.106  19.276  0.00  0.00    +0.000 C 
ATOM     12  C   UNL     1      -1.054  11.498  18.898  0.00  0.00    +0.000 C 
ATOM     13  N   UNL     1      -1.847  12.049  20.011  0.00  0.00    +0.000 N 
ATOM     14  C   UNL     1      -3.032  12.693  19.809  0.00  0.00    +0.000 C 
ATOM     15  N   UNL     1      -3.524  13.669  20.485  0.00  0.00    +0.000 NA
ATOM     16  N   UNL     1      -3.795  12.196  18.815  0.00  0.00    +0.000 N 
ATOM     17  C   UNL     1      -1.115  12.138  21.278  0.00  0.00    +0.000 C 
ATOM     18  C   UNL     1      -0.638  10.736  21.680  0.00  0.00    +0.000 C 
ATOM     19  H   UNL     1      -2.853  13.973  21.188  0.00  0.00    +0.000 HD
ATOM     20  H   UNL     1      -3.830  11.186  18.829  0.00  0.00    +0.000 HD
ATOM     21  H   UNL     1      -4.724  12.596  18.885  0.00  0.00    +0.000 HD
ENDBRANCH   9  10
ENDBRANCH   8   9
ENDBRANCH   4   8
BRANCH   6  22
ATOM     22  O   UNL     1       3.599   5.336  16.807  0.00  0.00    +0.000 OA
BRANCH  22  23
ATOM     23  S   UNL     1       4.952   4.414  16.699  0.00  0.00    +0.000 S 
ATOM     24  O   UNL     1       4.786   3.253  17.548  0.00  0.00    +0.000 OA
ATOM     25  O   UNL     1       5.335   4.271  15.306  0.00  0.00    +0.000 OA
BRANCH  23  26
ATOM     26  C   UNL     1       6.206   5.434  17.433  0.00  0.00    +0.000 A 
ATOM     27  C   UNL     1       6.565   6.654  16.850  0.00  0.00    +0.000 A 
ATOM     28  C   UNL     1       7.549   7.428  17.469  0.00  0.00    +0.000 A 
ATOM     29  C   UNL     1       8.147   6.986  18.653  0.00  0.00    +0.000 A 
ATOM     30  C   UNL     1       7.742   5.796  19.266  0.00  0.00    +0.000 A 
ATOM     31  C   UNL     1       6.799   4.999  18.621  0.00  0.00    +0.000 A 
BRANCH  30  32
ATOM     32  N   UNL     1       8.432   5.304  20.379  0.00  0.00    +0.000 N 
ATOM     33  H   UNL     1       9.274   4.787  20.144  0.00  0.00    +0.000 HD
ATOM     34  H   UNL     1       8.603   5.998  21.099  0.00  0.00    +0.000 HD
ENDBRANCH  30  32
ENDBRANCH  23  26
ENDBRANCH  22  23
ENDBRANCH   6  22
TORSDOF 7
ENDMDL
MODEL 4
REMARK VINA RESULT:      -8.4      3.621      9.896
REMARK  Name = 
REMARK  8 active torsions:
REMARK  status: ('A' for Active; 'I' for Inactive)
REMARK    1  A    between atoms: C_1  and  C_2
REMARK    2  A    between atoms: C_4  and  O_5
REMARK    3  A    between atoms: O_5  and  C_6
REMARK    4  A    between atoms: C_6  and  C_7
REMARK    5  A    between atoms: C_17  and  O_18
REMARK    6  A    between atoms: O_18  and  S_19
REMARK    7  A    between atoms: S_19  and  C_22
REMARK    8  A    between atoms: C_26  and  N_27
REMARK                            x       y       z     vdW  Elec       q    Type
REMARK                         _______ _______ _______ _____ _____    ______ ____
ROOT
ATOM      1  C   UNL     1       0.308   8.929  22.369  0.00  0.00    +0.000 C 
ATOM      2  C   UNL     1       0.484   9.191  20.903  0.00  0.00    +0.000 A 
ATOM      3  C   UNL     1       1.454   8.512  20.165  0.00  0.00    +0.000 A 
ATOM      4  C   UNL     1       1.610   8.736  18.794  0.00  0.00    +0.000 A 
ATOM      5  C   UNL     1       0.806   9.668  18.148  0.00  0.00    +0.000 A 
ATOM      6  C   UNL     1      -0.167  10.368  18.881  0.00  0.00    +0.000 A 
ATOM      7  C   UNL     1      -0.342  10.106  20.246  0.00  0.00    +0.000 A 
ENDROOT
BRANCH   4   8
ATOM      8  O   UNL     1       2.508   7.897  18.214  0.00  0.00    +0.000 OA
BRANCH   8   9
ATOM      9  C   UNL     1       2.612   6.539  18.641  0.00  0.00    +0.000 C 
BRANCH   9  10
ATOM     10  C   UNL     1       3.949   6.056  18.062  0.00  0.00    +0.000 C 
ATOM     11  C   UNL     1       3.887   4.640  17.455  0.00  0.00    +0.000 C 
ATOM     12  C   UNL     1       5.306   4.180  17.100  0.00  0.00    +0.000 C 
ATOM     13  N   UNL     1       5.926   5.152  16.183  0.00  0.00    +0.000 N 
ATOM     14  C   UNL     1       6.648   4.763  15.093  0.00  0.00    +0.000 C 
ATOM     15  N   UNL     1       7.666   5.350  14.570  0.00  0.00    +0.000 NA
ATOM     16  N   UNL     1       6.190   3.663  14.462  0.00  0.00    +0.000 N 
ATOM     17  C   UNL     1       5.983   6.519  16.711  0.00  0.00    +0.000 C 
ATOM     18  C   UNL     1       4.558   6.995  17.019  0.00  0.00    +0.000 C 
ATOM     19  H   UNL     1       7.933   6.149  15.142  0.00  0.00    +0.000 HD
ATOM     20  H   UNL     1       5.185   3.675  14.354  0.00  0.00    +0.000 HD
ATOM     21  H   UNL     1       6.654   3.584  13.564  0.00  0.00    +0.000 HD
ENDBRANCH   9  10
ENDBRANCH   8   9
ENDBRANCH   4   8
BRANCH   6  22
ATOM     22  O   UNL     1      -0.931  11.270  18.179  0.00  0.00    +0.000 OA
BRANCH  22  23
ATOM     23  S   UNL     1      -2.312  10.800  17.427  0.00  0.00    +0.000 S 
ATOM     24  O   UNL     1      -2.413  11.507  16.168  0.00  0.00    +0.000 OA
ATOM     25  O   UNL     1      -2.429   9.354  17.483  0.00  0.00    +0.000 OA
BRANCH  23  26
ATOM     26  C   UNL     1      -3.591  11.421  18.489  0.00  0.00    +0.000 A 
ATOM     27  C   UNL     1      -3.280  12.256  19.569  0.00  0.00    +0.000 A 
ATOM     28  C   UNL     1      -4.321  12.728  20.371  0.00  0.00    +0.000 A 
ATOM     29  C   UNL     1      -5.643  12.377  20.084  0.00  0.00    +0.000 A 
ATOM     30  C   UNL     1      -5.956  11.592  18.969  0.00  0.00    +0.000 A 
ATOM     31  C   UNL     1      -4.914  11.077  18.200  0.00  0.00    +0.000 A 
BRANCH  30  32
ATOM     32  N   UNL     1      -7.265  11.145  18.764  0.00  0.00    +0.000 N 
ATOM     33  H   UNL     1      -7.970  11.719  19.217  0.00  0.00    +0.000 HD
ATOM     34  H   UNL     1      -7.493  10.964  17.791  0.00  0.00    +0.000 HD
ENDBRANCH  30  32
ENDBRANCH  23  26
ENDBRANCH  22  23
ENDBRANCH   6  22
TORSDOF 7
ENDMDL
MODEL 5
REMARK VINA RESULT:      -8.3      2.367      3.067
REMARK  Name = 
REMARK  8 active torsions:
REMARK  status: ('A' for Active; 'I' for Inactive)
REMARK    1  A    between atoms: C_1  and  C_2
REMARK    2  A    between atoms: C_4  and  O_5
REMARK    3  A    between atoms: O_5  and  C_6
REMARK    4  A    between atoms: C_6  and  C_7
REMARK    5  A    between atoms: C_17  and  O_18
REMARK    6  A    between atoms: O_18  and  S_19
REMARK    7  A    between atoms: S_19  and  C_22
REMARK    8  A    between atoms: C_26  and  N_27
REMARK                            x       y       z     vdW  Elec       q    Type
REMARK                         _______ _______ _______ _____ _____    ______ ____
ROOT
ATOM      1  C   UNL     1       0.810   2.452  18.753  0.00  0.00    +0.000 C 
ATOM      2  C   UNL     1       1.889   3.443  18.441  0.00  0.00    +0.000 A 
ATOM      3  C   UNL     1       1.768   4.779  18.825  0.00  0.00    +0.000 A 
ATOM      4  C   UNL     1       2.779   5.706  18.555  0.00  0.00    +0.000 A 
ATOM      5  C   UNL     1       3.921   5.306  17.870  0.00  0.00    +0.000 A 
ATOM      6  C   UNL     1       4.051   3.966  17.466  0.00  0.00    +0.000 A 
ATOM      7  C   UNL     1       3.050   3.038  17.778  0.00  0.00    +0.000 A 
ENDROOT
BRANCH   4   8
ATOM      8  O   UNL     1       2.553   6.924  19.115  0.00  0.00    +0.000 OA
BRANCH   8   9
ATOM      9  C   UNL     1       2.482   8.093  18.300  0.00  0.00    +0.000 C 
BRANCH   9  10
ATOM     10  C   UNL     1       1.264   8.858  18.834  0.00  0.00    +0.000 C 
ATOM     11  C   UNL     1       1.191   8.913  20.374  0.00  0.00    +0.000 C 
ATOM     12  C   UNL     1      -0.157   9.511  20.795  0.00  0.00    +0.000 C 
ATOM     13  N   UNL     1      -0.321  10.841  20.183  0.00  0.00    +0.000 N 
ATOM     14  C   UNL     1      -0.810  11.906  20.881  0.00  0.00    +0.000 C 
ATOM     15  N   UNL     1      -1.527  12.877  20.438  0.00  0.00    +0.000 NA
ATOM     16  N   UNL     1      -0.438  11.965  22.176  0.00  0.00    +0.000 N 
ATOM     17  C   UNL     1      -0.234  10.839  18.719  0.00  0.00    +0.000 C 
ATOM     18  C   UNL     1       1.134  10.287  18.301  0.00  0.00    +0.000 C 
ATOM     19  H   UNL     1      -1.764  12.712  19.462  0.00  0.00    +0.000 HD
ATOM     20  H   UNL     1       0.543  11.759  22.301  0.00  0.00    +0.000 HD
ATOM     21  H   UNL     1      -0.669  12.882  22.540  0.00  0.00    +0.000 HD
ENDBRANCH   9  10
ENDBRANCH   8   9
ENDBRANCH   4   8
BRANCH   6  22
ATOM     22  O   UNL     1       5.208   3.638  16.799  0.00  0.00    +0.000 OA
BRANCH  22  23
ATOM     23  S   UNL     1       5.972   4.733  15.846  0.00  0.00    +0.000 S 
ATOM     24  O   UNL     1       6.938   4.033  15.025  0.00  0.00    +0.000 OA
ATOM     25  O   UNL     1       4.996   5.628  15.251  0.00  0.00    +0.000 OA
BRANCH  23  26
ATOM     26  C   UNL     1       6.881   5.724  17.005  0.00  0.00    +0.000 A 
ATOM     27  C   UNL     1       7.127   7.078  16.748  0.00  0.00    +0.000 A 
ATOM     28  C   UNL     1       7.837   7.820  17.694  0.00  0.00    +0.000 A 
ATOM     29  C   UNL     1       8.277   7.215  18.874  0.00  0.00    +0.000 A 
ATOM     30  C   UNL     1       7.977   5.878  19.155  0.00  0.00    +0.000 A 
ATOM     31  C   UNL     1       7.315   5.123  18.189  0.00  0.00    +0.000 A 
BRANCH  30  32
ATOM     32  N   UNL     1       8.528   5.251  20.278  0.00  0.00    +0.000 N 
ATOM     33  H   UNL     1       8.870   5.898  20.982  0.00  0.00    +0.000 HD
ATOM     34  H   UNL     1       7.936   4.531  20.682  0.00  0.00    +0.000 HD
ENDBRANCH  30  32
ENDBRANCH  23  26
ENDBRANCH  22  23
ENDBRANCH   6  22
TORSDOF 7
ENDMDL
MODEL 6
REMARK VINA RESULT:      -8.3      1.709      2.251
REMARK  Name = 
REMARK  8 active torsions:
REMARK  status: ('A' for Active; 'I' for Inactive)
REMARK    1  A    between atoms: C_1  and  C_2
REMARK    2  A    between atoms: C_4  and  O_5
REMARK    3  A    between atoms: O_5  and  C_6
REMARK    4  A    between atoms: C_6  and  C_7
REMARK    5  A    between atoms: C_17  and  O_18
REMARK    6  A    between atoms: O_18  and  S_19
REMARK    7  A    between atoms: S_19  and  C_22
REMARK    8  A    between atoms: C_26  and  N_27
REMARK                            x       y       z     vdW  Elec       q    Type
REMARK                         _______ _______ _______ _____ _____    ______ ____
ROOT
ATOM      1  C   UNL     1       2.306   2.313  17.933  0.00  0.00    +0.000 C 
ATOM      2  C   UNL     1       2.738   3.748  17.942  0.00  0.00    +0.000 A 
ATOM      3  C   UNL     1       2.167   4.662  18.827  0.00  0.00    +0.000 A 
ATOM      4  C   UNL     1       2.579   5.998  18.856  0.00  0.00    +0.000 A 
ATOM      5  C   UNL     1       3.557   6.441  17.973  0.00  0.00    +0.000 A 
ATOM      6  C   UNL     1       4.132   5.534  17.066  0.00  0.00    +0.000 A 
ATOM      7  C   UNL     1       3.741   4.189  17.075  0.00  0.00    +0.000 A 
ENDROOT
BRANCH   4   8
ATOM      8  O   UNL     1       2.013   6.711  19.865  0.00  0.00    +0.000 OA
BRANCH   8   9
ATOM      9  C   UNL     1       2.315   8.096  20.032  0.00  0.00    +0.000 C 
BRANCH   9  10
ATOM     10  C   UNL     1       1.041   8.822  19.580  0.00  0.00    +0.000 C 
ATOM     11  C   UNL     1       0.664  10.025  20.468  0.00  0.00    +0.000 C 
ATOM     12  C   UNL     1      -0.720  10.542  20.058  0.00  0.00    +0.000 C 
ATOM     13  N   UNL     1      -0.714  10.889  18.626  0.00  0.00    +0.000 N 
ATOM     14  C   UNL     1      -1.297  12.027  18.152  0.00  0.00    +0.000 C 
ATOM     15  N   UNL     1      -1.877  12.203  17.018  0.00  0.00    +0.000 NA
ATOM     16  N   UNL     1      -1.189  13.106  18.954  0.00  0.00    +0.000 N 
ATOM     17  C   UNL     1      -0.336   9.779  17.745  0.00  0.00    +0.000 C 
ATOM     18  C   UNL     1       1.069   9.295  18.125  0.00  0.00    +0.000 C 
ATOM     19  H   UNL     1      -1.920  11.320  16.513  0.00  0.00    +0.000 HD
ATOM     20  H   UNL     1      -0.260  13.204  19.339  0.00  0.00    +0.000 HD
ATOM     21  H   UNL     1      -1.458  13.931  18.430  0.00  0.00    +0.000 HD
ENDBRANCH   9  10
ENDBRANCH   8   9
ENDBRANCH   4   8
BRANCH   6  22
ATOM     22  O   UNL     1       5.097   6.037  16.227  0.00  0.00    +0.000 OA
BRANCH  22  23
ATOM     23  S   UNL     1       6.610   5.401  16.204  0.00  0.00    +0.000 S 
ATOM     24  O   UNL     1       7.556   6.456  16.501  0.00  0.00    +0.000 OA
ATOM     25  O   UNL     1       6.626   4.153  16.945  0.00  0.00    +0.000 OA
BRANCH  23  26
ATOM     26  C   UNL     1       6.839   4.945  14.503  0.00  0.00    +0.000 A 
ATOM     27  C   UNL     1       7.749   5.637  13.695  0.00  0.00    +0.000 A 
ATOM     28  C   UNL     1       7.903   5.236  12.367  0.00  0.00    +0.000 A 
ATOM     29  C   UNL     1       7.166   4.157  11.870  0.00  0.00    +0.000 A 
ATOM     30  C   UNL     1       6.304   3.430  12.696  0.00  0.00    +0.000 A 
ATOM     31  C   UNL     1       6.110   3.862  14.006  0.00  0.00    +0.000 A 
BRANCH  30  32
ATOM     32  N   UNL     1       5.481   2.434  12.159  0.00  0.00    +0.000 N 
ATOM     33  H   UNL     1       4.657   2.236  12.719  0.00  0.00    +0.000 HD
ATOM     34  H   UNL     1       5.248   2.574  11.180  0.00  0.00    +0.000 HD
ENDBRANCH  30  32
ENDBRANCH  23  26
ENDBRANCH  22  23
ENDBRANCH   6  22
TORSDOF 7
ENDMDL
MODEL 7
REMARK VINA RESULT:      -8.2      2.260      2.737
REMARK  Name = 
REMARK  8 active torsions:
REMARK  status: ('A' for Active; 'I' for Inactive)
REMARK    1  A    between atoms: C_1  and  C_2
REMARK    2  A    between atoms: C_4  and  O_5
REMARK    3  A    between atoms: O_5  and  C_6
REMARK    4  A    between atoms: C_6  and  C_7
REMARK    5  A    between atoms: C_17  and  O_18
REMARK    6  A    between atoms: O_18  and  S_19
REMARK    7  A    between atoms: S_19  and  C_22
REMARK    8  A    between atoms: C_26  and  N_27
REMARK                            x       y       z     vdW  Elec       q    Type
REMARK                         _______ _______ _______ _____ _____    ______ ____
ROOT
ATOM      1  C   UNL     1       0.726   2.168  18.578  0.00  0.00    +0.000 C 
ATOM      2  C   UNL     1       1.714   3.235  18.216  0.00  0.00    +0.000 A 
ATOM      3  C   UNL     1       1.399   4.586  18.368  0.00  0.00    +0.000 A 
ATOM      4  C   UNL     1       2.322   5.586  18.051  0.00  0.00    +0.000 A 
ATOM      5  C   UNL     1       3.572   5.243  17.550  0.00  0.00    +0.000 A 
ATOM      6  C   UNL     1       3.899   3.886  17.379  0.00  0.00    +0.000 A 
ATOM      7  C   UNL     1       2.981   2.891  17.739  0.00  0.00    +0.000 A 
ENDROOT
BRANCH   4   8
ATOM      8  O   UNL     1       1.896   6.833  18.385  0.00  0.00    +0.000 OA
BRANCH   8   9
ATOM      9  C   UNL     1       2.303   7.433  19.615  0.00  0.00    +0.000 C 
BRANCH   9  10
ATOM     10  C   UNL     1       1.735   8.857  19.553  0.00  0.00    +0.000 C 
ATOM     11  C   UNL     1       1.551   9.390  18.117  0.00  0.00    +0.000 C 
ATOM     12  C   UNL     1       1.181  10.877  18.174  0.00  0.00    +0.000 C 
ATOM     13  N   UNL     1      -0.031  11.055  18.992  0.00  0.00    +0.000 N 
ATOM     14  C   UNL     1      -1.045  11.886  18.616  0.00  0.00    +0.000 C 
ATOM     15  N   UNL     1      -1.819  12.579  19.374  0.00  0.00    +0.000 NA
ATOM     16  N   UNL     1      -1.293  11.928  17.292  0.00  0.00    +0.000 N 
ATOM     17  C   UNL     1       0.091  10.538  20.359  0.00  0.00    +0.000 C 
ATOM     18  C   UNL     1       0.412   9.039  20.300  0.00  0.00    +0.000 C 
ATOM     19  H   UNL     1      -1.522  12.487  20.344  0.00  0.00    +0.000 HD
ATOM     20  H   UNL     1      -1.289  11.009  16.872  0.00  0.00    +0.000 HD
ATOM     21  H   UNL     1      -2.181  12.395  17.140  0.00  0.00    +0.000 HD
ENDBRANCH   9  10
ENDBRANCH   8   9
ENDBRANCH   4   8
BRANCH   6  22
ATOM     22  O   UNL     1       5.153   3.617  16.886  0.00  0.00    +0.000 OA
BRANCH  22  23
ATOM     23  S   UNL     1       5.917   4.679  15.895  0.00  0.00    +0.000 S 
ATOM     24  O   UNL     1       6.870   3.949  15.085  0.00  0.00    +0.000 OA
ATOM     25  O   UNL     1       4.942   5.564  15.285  0.00  0.00    +0.000 OA
BRANCH  23  26
ATOM     26  C   UNL     1       6.844   5.695  17.018  0.00  0.00    +0.000 A 
ATOM     27  C   UNL     1       7.088   7.042  16.726  0.00  0.00    +0.000 A 
ATOM     28  C   UNL     1       7.813   7.805  17.644  0.00  0.00    +0.000 A 
ATOM     29  C   UNL     1       8.269   7.226  18.832  0.00  0.00    +0.000 A 
ATOM     30  C   UNL     1       7.971   5.897  19.148  0.00  0.00    +0.000 A 
ATOM     31  C   UNL     1       7.294   5.121  18.210  0.00  0.00    +0.000 A 
BRANCH  30  32
ATOM     32  N   UNL     1       8.537   5.295  20.277  0.00  0.00    +0.000 N 
ATOM     33  H   UNL     1       9.525   5.081  20.176  0.00  0.00    +0.000 HD
ATOM     34  H   UNL     1       8.342   5.782  21.147  0.00  0.00    +0.000 HD
ENDBRANCH  30  32
ENDBRANCH  23  26
ENDBRANCH  22  23
ENDBRANCH   6  22
TORSDOF 7
ENDMDL
MODEL 8
REMARK VINA RESULT:      -8.2      0.766      1.231
REMARK  Name = 
REMARK  8 active torsions:
REMARK  status: ('A' for Active; 'I' for Inactive)
REMARK    1  A    between atoms: C_1  and  C_2
REMARK    2  A    between atoms: C_4  and  O_5
REMARK    3  A    between atoms: O_5  and  C_6
REMARK    4  A    between atoms: C_6  and  C_7
REMARK    5  A    between atoms: C_17  and  O_18
REMARK    6  A    between atoms: O_18  and  S_19
REMARK    7  A    between atoms: S_19  and  C_22
REMARK    8  A    between atoms: C_26  and  N_27
REMARK                            x       y       z     vdW  Elec       q    Type
REMARK                         _______ _______ _______ _____ _____    ______ ____
ROOT
ATOM      1  C   UNL     1       1.618   2.998  18.118  0.00  0.00    +0.000 C 
ATOM      2  C   UNL     1       2.633   4.030  18.508  0.00  0.00    +0.000 A 
ATOM      3  C   UNL     1       2.262   5.360  18.708  0.00  0.00    +0.000 A 
ATOM      4  C   UNL     1       3.198   6.325  19.091  0.00  0.00    +0.000 A 
ATOM      5  C   UNL     1       4.533   5.970  19.253  0.00  0.00    +0.000 A 
ATOM      6  C   UNL     1       4.923   4.636  19.042  0.00  0.00    +0.000 A 
ATOM      7  C   UNL     1       3.969   3.670  18.700  0.00  0.00    +0.000 A 
ENDROOT
BRANCH   4   8
ATOM      8  O   UNL     1       2.639   7.532  19.369  0.00  0.00    +0.000 OA
BRANCH   8   9
ATOM      9  C   UNL     1       1.782   7.691  20.498  0.00  0.00    +0.000 C 
BRANCH   9  10
ATOM     10  C   UNL     1       0.797   8.791  20.079  0.00  0.00    +0.000 C 
ATOM     11  C   UNL     1       0.793  10.013  21.020  0.00  0.00    +0.000 C 
ATOM     12  C   UNL     1      -0.360  10.945  20.633  0.00  0.00    +0.000 C 
ATOM     13  N   UNL     1      -0.229  11.334  19.218  0.00  0.00    +0.000 N 
ATOM     14  C   UNL     1      -0.430  12.615  18.796  0.00  0.00    +0.000 C 
ATOM     15  N   UNL     1      -0.913  13.009  17.671  0.00  0.00    +0.000 NA
ATOM     16  N   UNL     1      -0.009  13.574  19.646  0.00  0.00    +0.000 N 
ATOM     17  C   UNL     1      -0.196  10.200  18.289  0.00  0.00    +0.000 C 
ATOM     18  C   UNL     1       0.988   9.294  18.647  0.00  0.00    +0.000 C 
ATOM     19  H   UNL     1      -1.216  12.203  17.127  0.00  0.00    +0.000 HD
ATOM     20  H   UNL     1       0.900  13.367  20.035  0.00  0.00    +0.000 HD
ATOM     21  H   UNL     1      -0.005  14.463  19.159  0.00  0.00    +0.000 HD
ENDBRANCH   9  10
ENDBRANCH   8   9
ENDBRANCH   4   8
BRANCH   6  22
ATOM     22  O   UNL     1       6.256   4.352  19.227  0.00  0.00    +0.000 OA
BRANCH  22  23
ATOM     23  S   UNL     1       7.403   5.026  18.267  0.00  0.00    +0.000 S 
ATOM     24  O   UNL     1       7.690   6.357  18.758  0.00  0.00    +0.000 OA
ATOM     25  O   UNL     1       8.470   4.069  18.037  0.00  0.00    +0.000 OA
BRANCH  23  26
ATOM     26  C   UNL     1       6.580   5.202  16.703  0.00  0.00    +0.000 A 
ATOM     27  C   UNL     1       5.805   6.334  16.428  0.00  0.00    +0.000 A 
ATOM     28  C   UNL     1       5.184   6.434  15.182  0.00  0.00    +0.000 A 
ATOM     29  C   UNL     1       5.351   5.422  14.232  0.00  0.00    +0.000 A 
ATOM     30  C   UNL     1       6.176   4.321  14.488  0.00  0.00    +0.000 A 
ATOM     31  C   UNL     1       6.752   4.195  15.750  0.00  0.00    +0.000 A 
BRANCH  30  32
ATOM     32  N   UNL     1       6.236   3.257  13.582  0.00  0.00    +0.000 N 
ATOM     33  H   UNL     1       6.546   2.382  13.996  0.00  0.00    +0.000 HD
ATOM     34  H   UNL     1       5.392   3.135  13.030  0.00  0.00    +0.000 HD
ENDBRANCH  30  32
ENDBRANCH  23  26
ENDBRANCH  22  23
ENDBRANCH   6  22
TORSDOF 7
ENDMDL
MODEL 9
REMARK VINA RESULT:      -8.2      1.715      2.039
REMARK  Name = 
REMARK  8 active torsions:
REMARK  status: ('A' for Active; 'I' for Inactive)
REMARK    1  A    between atoms: C_1  and  C_2
REMARK    2  A    between atoms: C_4  and  O_5
REMARK    3  A    between atoms: O_5  and  C_6
REMARK    4  A    between atoms: C_6  and  C_7
REMARK    5  A    between atoms: C_17  and  O_18
REMARK    6  A    between atoms: O_18  and  S_19
REMARK    7  A    between atoms: S_19  and  C_22
REMARK    8  A    between atoms: C_26  and  N_27
REMARK                            x       y       z     vdW  Elec       q    Type
REMARK                         _______ _______ _______ _____ _____    ______ ____
ROOT
ATOM      1  C   UNL     1       1.175   2.799  19.068  0.00  0.00    +0.000 C 
ATOM      2  C   UNL     1       2.124   3.814  18.507  0.00  0.00    +0.000 A 
ATOM      3  C   UNL     1       1.896   5.180  18.678  0.00  0.00    +0.000 A 
ATOM      4  C   UNL     1       2.788   6.132  18.175  0.00  0.00    +0.000 A 
ATOM      5  C   UNL     1       3.913   5.724  17.467  0.00  0.00    +0.000 A 
ATOM      6  C   UNL     1       4.148   4.352  17.276  0.00  0.00    +0.000 A 
ATOM      7  C   UNL     1       3.271   3.405  17.820  0.00  0.00    +0.000 A 
ENDROOT
BRANCH   4   8
ATOM      8  O   UNL     1       2.479   7.403  18.547  0.00  0.00    +0.000 OA
BRANCH   8   9
ATOM      9  C   UNL     1       1.947   7.669  19.845  0.00  0.00    +0.000 C 
BRANCH   9  10
ATOM     10  C   UNL     1       1.487   9.131  19.777  0.00  0.00    +0.000 C 
ATOM     11  C   UNL     1       1.414   9.694  18.343  0.00  0.00    +0.000 C 
ATOM     12  C   UNL     1       1.151  11.203  18.405  0.00  0.00    +0.000 C 
ATOM     13  N   UNL     1      -0.084  11.459  19.166  0.00  0.00    +0.000 N 
ATOM     14  C   UNL     1      -1.015  12.367  18.754  0.00  0.00    +0.000 C 
ATOM     15  N   UNL     1      -1.773  13.106  19.484  0.00  0.00    +0.000 NA
ATOM     16  N   UNL     1      -1.194  12.443  17.420  0.00  0.00    +0.000 N 
ATOM     17  C   UNL     1      -0.068  10.919  20.529  0.00  0.00    +0.000 C 
ATOM     18  C   UNL     1       0.146   9.401  20.463  0.00  0.00    +0.000 C 
ATOM     19  H   UNL     1      -1.532  12.981  20.466  0.00  0.00    +0.000 HD
ATOM     20  H   UNL     1      -1.235  11.531  16.987  0.00  0.00    +0.000 HD
ATOM     21  H   UNL     1      -2.036  12.975  17.233  0.00  0.00    +0.000 HD
ENDBRANCH   9  10
ENDBRANCH   8   9
ENDBRANCH   4   8
BRANCH   6  22
ATOM     22  O   UNL     1       5.281   4.017  16.574  0.00  0.00    +0.000 OA
BRANCH  22  23
ATOM     23  S   UNL     1       6.390   5.157  16.169  0.00  0.00    +0.000 S 
ATOM     24  O   UNL     1       5.758   6.458  16.236  0.00  0.00    +0.000 OA
ATOM     25  O   UNL     1       7.636   4.895  16.868  0.00  0.00    +0.000 OA
BRANCH  23  26
ATOM     26  C   UNL     1       6.725   4.817  14.459  0.00  0.00    +0.000 A 
ATOM     27  C   UNL     1       7.650   5.588  13.745  0.00  0.00    +0.000 A 
ATOM     28  C   UNL     1       7.888   5.277  12.405  0.00  0.00    +0.000 A 
ATOM     29  C   UNL     1       7.218   4.207  11.804  0.00  0.00    +0.000 A 
ATOM     30  C   UNL     1       6.340   3.401  12.536  0.00  0.00    +0.000 A 
ATOM     31  C   UNL     1       6.063   3.744  13.858  0.00  0.00    +0.000 A 
BRANCH  30  32
ATOM     32  N   UNL     1       5.584   2.415  11.895  0.00  0.00    +0.000 N 
ATOM     33  H   UNL     1       5.659   2.435  10.881  0.00  0.00    +0.000 HD
ATOM     34  H   UNL     1       5.724   1.480  12.265  0.00  0.00    +0.000 HD
ENDBRANCH  30  32
ENDBRANCH  23  26
ENDBRANCH  22  23
ENDBRANCH   6  22
TORSDOF 7
ENDMDL
