MODEL 1
REMARK VINA RESULT:      -8.0      0.000      0.000
REMARK  Name = 
REMARK  5 active torsions:
REMARK  status: ('A' for Active; 'I' for Inactive)
REMARK    1  A    between atoms: C_2  and  C_14
REMARK    2  A    between atoms: N_3  and  N_4
REMARK    3  A    between atoms: C_5  and  C_6
REMARK    4  A    between atoms: C_7  and  C_8
REMARK    5  A    between atoms: C_16  and  C_17
REMARK                            x       y       z     vdW  Elec       q    Type
REMARK                         _______ _______ _______ _____ _____    ______ ____
ROOT
ATOM      1  O   UNL     1       6.758   5.318  19.919  0.00  0.00    +0.000 OA
ATOM      2  C   UNL     1       6.216   5.311  18.815  0.00  0.00    +0.000 C 
ATOM      3  N   UNL     1       6.501   6.215  17.800  0.00  0.00    +0.000 N 
ATOM      4  H   UNL     1       6.013   6.132  16.912  0.00  0.00    +0.000 HD
ENDROOT
BRANCH   2   5
ATOM      5  C   UNL     1       5.196   4.305  18.484  0.00  0.00    +0.000 A 
ATOM      6  C   UNL     1       4.157   3.888  19.360  0.00  0.00    +0.000 A 
ATOM      7  C   UNL     1       3.475   2.912  18.684  0.00  0.00    +0.000 A 
ATOM      8  N   UNL     1       4.089   2.798  17.473  0.00  0.00    +0.000 N 
ATOM      9  N   UNL     1       5.138   3.639  17.310  0.00  0.00    +0.000 NA
ATOM     10  H   UNL     1       3.849   2.168  16.715  0.00  0.00    +0.000 HD
BRANCH   7  11
ATOM     11  C   UNL     1       2.300   2.137  19.241  0.00  0.00    +0.000 C 
ATOM     12  C   UNL     1       1.350   2.812  20.205  0.00  0.00    +0.000 C 
ATOM     13  C   UNL     1       0.904   2.532  18.812  0.00  0.00    +0.000 C 
ENDBRANCH   7  11
ENDBRANCH   2   5
BRANCH   3  14
ATOM     14  N   UNL     1       7.491   7.127  18.011  0.00  0.00    +0.000 NA
ATOM     15  C   UNL     1       7.342   8.330  17.566  0.00  0.00    +0.000 C 
BRANCH  15  16
ATOM     16  C   UNL     1       8.456   9.284  17.767  0.00  0.00    +0.000 C 
ATOM     17  C   UNL     1       8.813   9.763  18.966  0.00  0.00    +0.000 C 
BRANCH  17  18
ATOM     18  C   UNL     1       9.867  10.785  19.132  0.00  0.00    +0.000 A 
ATOM     19  C   UNL     1      10.078  11.339  20.403  0.00  0.00    +0.000 A 
ATOM     20  C   UNL     1      11.028  12.348  20.596  0.00  0.00    +0.000 A 
ATOM     21  C   UNL     1      11.788  12.808  19.524  0.00  0.00    +0.000 A 
ATOM     22  C   UNL     1      11.618  12.243  18.263  0.00  0.00    +0.000 A 
ATOM     23  C   UNL     1      10.671  11.231  18.072  0.00  0.00    +0.000 A 
ENDBRANCH  17  18
ENDBRANCH  15  16
ENDBRANCH   3  14
TORSDOF 5
ENDMDL
MODEL 2
REMARK VINA RESULT:      -8.0      0.415      1.131
REMARK  Name = 
REMARK  5 active torsions:
REMARK  status: ('A' for Active; 'I' for Inactive)
REMARK    1  A    between atoms: C_2  and  C_14
REMARK    2  A    between atoms: N_3  and  N_4
REMARK    3  A    between atoms: C_5  and  C_6
REMARK    4  A    between atoms: C_7  and  C_8
REMARK    5  A    between atoms: C_16  and  C_17
REMARK                            x       y       z     vdW  Elec       q    Type
REMARK                         _______ _______ _______ _____ _____    ______ ____
ROOT
ATOM      1  O   UNL     1       7.015   5.316  19.915  0.00  0.00    +0.000 OA
ATOM      2  C   UNL     1       6.379   5.336  18.861  0.00  0.00    +0.000 C 
ATOM      3  N   UNL     1       6.585   6.256  17.842  0.00  0.00    +0.000 N 
ATOM      4  H   UNL     1       6.021   6.196  16.999  0.00  0.00    +0.000 HD
ENDROOT
BRANCH   2   5
ATOM      5  C   UNL     1       5.322   4.347  18.603  0.00  0.00    +0.000 A 
ATOM      6  C   UNL     1       4.281   4.020  19.513  0.00  0.00    +0.000 A 
ATOM      7  C   UNL     1       3.558   3.028  18.904  0.00  0.00    +0.000 A 
ATOM      8  N   UNL     1       4.154   2.820  17.696  0.00  0.00    +0.000 N 
ATOM      9  N   UNL     1       5.228   3.614  17.472  0.00  0.00    +0.000 NA
ATOM     10  H   UNL     1       3.884   2.154  16.980  0.00  0.00    +0.000 HD
BRANCH   7  11
ATOM     11  C   UNL     1       2.365   2.328  19.519  0.00  0.00    +0.000 C 
ATOM     12  C   UNL     1       1.977   2.632  20.948  0.00  0.00    +0.000 C 
ATOM     13  C   UNL     1       1.131   3.144  19.833  0.00  0.00    +0.000 C 
ENDBRANCH   7  11
ENDBRANCH   2   5
BRANCH   3  14
ATOM     14  N   UNL     1       7.600   7.154  17.983  0.00  0.00    +0.000 NA
ATOM     15  C   UNL     1       7.401   8.385  17.648  0.00  0.00    +0.000 C 
BRANCH  15  16
ATOM     16  C   UNL     1       8.538   9.326  17.764  0.00  0.00    +0.000 C 
ATOM     17  C   UNL     1       8.926   9.879  18.921  0.00  0.00    +0.000 C 
BRANCH  17  18
ATOM     18  C   UNL     1      10.004  10.886  19.000  0.00  0.00    +0.000 A 
ATOM     19  C   UNL     1      10.552  11.385  17.810  0.00  0.00    +0.000 A 
ATOM     20  C   UNL     1      11.612  12.298  17.837  0.00  0.00    +0.000 A 
ATOM     21  C   UNL     1      12.128  12.735  19.054  0.00  0.00    +0.000 A 
ATOM     22  C   UNL     1      11.571  12.279  20.245  0.00  0.00    +0.000 A 
ATOM     23  C   UNL     1      10.509  11.369  20.217  0.00  0.00    +0.000 A 
ENDBRANCH  17  18
ENDBRANCH  15  16
ENDBRANCH   3  14
TORSDOF 5
ENDMDL
MODEL 3
REMARK VINA RESULT:      -7.8      1.409      1.434
REMARK  Name = 
REMARK  5 active torsions:
REMARK  status: ('A' for Active; 'I' for Inactive)
REMARK    1  A    between atoms: C_2  and  C_14
REMARK    2  A    between atoms: N_3  and  N_4
REMARK    3  A    between atoms: C_5  and  C_6
REMARK    4  A    between atoms: C_7  and  C_8
REMARK    5  A    between atoms: C_16  and  C_17
REMARK                            x       y       z     vdW  Elec       q    Type
REMARK                         _______ _______ _______ _____ _____    ______ ____
ROOT
ATOM      1  O   UNL     1       4.350   7.171  17.117  0.00  0.00    +0.000 OA
ATOM      2  C   UNL     1       5.067   6.187  17.302  0.00  0.00    +0.000 C 
ATOM      3  N   UNL     1       6.455   6.222  17.305  0.00  0.00    +0.000 N 
ATOM      4  H   UNL     1       6.970   5.364  17.476  0.00  0.00    +0.000 HD
ENDROOT
BRANCH   2   5
ATOM      5  C   UNL     1       4.476   4.863  17.547  0.00  0.00    +0.000 A 
ATOM      6  C   UNL     1       3.426   4.604  18.470  0.00  0.00    +0.000 A 
ATOM      7  C   UNL     1       3.221   3.251  18.421  0.00  0.00    +0.000 A 
ATOM      8  N   UNL     1       4.100   2.772  17.498  0.00  0.00    +0.000 N 
ATOM      9  N   UNL     1       4.877   3.728  16.934  0.00  0.00    +0.000 NA
ATOM     10  H   UNL     1       4.227   1.809  17.205  0.00  0.00    +0.000 HD
BRANCH   7  11
ATOM     11  C   UNL     1       2.218   2.500  19.272  0.00  0.00    +0.000 C 
ATOM     12  C   UNL     1       1.043   3.240  19.868  0.00  0.00    +0.000 C 
ATOM     13  C   UNL     1       0.819   2.301  18.734  0.00  0.00    +0.000 C 
ENDBRANCH   7  11
ENDBRANCH   2   5
BRANCH   3  14
ATOM     14  N   UNL     1       7.068   7.431  17.161  0.00  0.00    +0.000 NA
ATOM     15  C   UNL     1       7.816   7.873  18.116  0.00  0.00    +0.000 C 
BRANCH  15  16
ATOM     16  C   UNL     1       8.428   9.211  17.952  0.00  0.00    +0.000 C 
ATOM     17  C   UNL     1       9.202   9.790  18.880  0.00  0.00    +0.000 C 
BRANCH  17  18
ATOM     18  C   UNL     1       9.726  11.163  18.734  0.00  0.00    +0.000 A 
ATOM     19  C   UNL     1      10.839  11.547  19.495  0.00  0.00    +0.000 A 
ATOM     20  C   UNL     1      11.336  12.854  19.431  0.00  0.00    +0.000 A 
ATOM     21  C   UNL     1      10.734  13.790  18.593  0.00  0.00    +0.000 A 
ATOM     22  C   UNL     1       9.652  13.416  17.803  0.00  0.00    +0.000 A 
ATOM     23  C   UNL     1       9.159  12.109  17.865  0.00  0.00    +0.000 A 
ENDBRANCH  17  18
ENDBRANCH  15  16
ENDBRANCH   3  14
TORSDOF 5
ENDMDL
MODEL 4
REMARK VINA RESULT:      -7.8      1.380      1.575
REMARK  Name = 
REMARK  5 active torsions:
REMARK  status: ('A' for Active; 'I' for Inactive)
REMARK    1  A    between atoms: C_2  and  C_14
REMARK    2  A    between atoms: N_3  and  N_4
REMARK    3  A    between atoms: C_5  and  C_6
REMARK    4  A    between atoms: C_7  and  C_8
REMARK    5  A    between atoms: C_16  and  C_17
REMARK                            x       y       z     vdW  Elec       q    Type
REMARK                         _______ _______ _______ _____ _____    ______ ____
ROOT
ATOM      1  O   UNL     1       4.157   7.107  17.827  0.00  0.00    +0.000 OA
ATOM      2  C   UNL     1       4.859   6.121  17.602  0.00  0.00    +0.000 C 
ATOM      3  N   UNL     1       6.186   6.184  17.200  0.00  0.00    +0.000 N 
ATOM      4  H   UNL     1       6.697   5.319  17.045  0.00  0.00    +0.000 HD
ENDROOT
BRANCH   2   5
ATOM      5  C   UNL     1       4.318   4.763  17.756  0.00  0.00    +0.000 A 
ATOM      6  C   UNL     1       3.245   4.413  18.620  0.00  0.00    +0.000 A 
ATOM      7  C   UNL     1       3.100   3.057  18.496  0.00  0.00    +0.000 A 
ATOM      8  N   UNL     1       4.036   2.663  17.588  0.00  0.00    +0.000 N 
ATOM      9  N   UNL     1       4.792   3.678  17.106  0.00  0.00    +0.000 NA
ATOM     10  H   UNL     1       4.216   1.722  17.254  0.00  0.00    +0.000 HD
BRANCH   7  11
ATOM     11  C   UNL     1       2.098   2.222  19.266  0.00  0.00    +0.000 C 
ATOM     12  C   UNL     1       1.056   2.908  20.120  0.00  0.00    +0.000 C 
ATOM     13  C   UNL     1       0.647   2.261  18.841  0.00  0.00    +0.000 C 
ENDBRANCH   7  11
ENDBRANCH   2   5
BRANCH   3  14
ATOM     14  N   UNL     1       6.775   7.410  17.112  0.00  0.00    +0.000 NA
ATOM     15  C   UNL     1       7.727   7.710  17.930  0.00  0.00    +0.000 C 
BRANCH  15  16
ATOM     16  C   UNL     1       8.311   9.067  17.843  0.00  0.00    +0.000 C 
ATOM     17  C   UNL     1       9.028   9.629  18.826  0.00  0.00    +0.000 C 
BRANCH  17  18
ATOM     18  C   UNL     1       9.524  11.019  18.755  0.00  0.00    +0.000 A 
ATOM     19  C   UNL     1       8.861  11.932  17.923  0.00  0.00    +0.000 A 
ATOM     20  C   UNL     1       9.328  13.243  17.782  0.00  0.00    +0.000 A 
ATOM     21  C   UNL     1      10.458  13.662  18.481  0.00  0.00    +0.000 A 
ATOM     22  C   UNL     1      11.106  12.780  19.339  0.00  0.00    +0.000 A 
ATOM     23  C   UNL     1      10.635  11.471  19.483  0.00  0.00    +0.000 A 
ENDBRANCH  17  18
ENDBRANCH  15  16
ENDBRANCH   3  14
TORSDOF 5
ENDMDL
MODEL 5
REMARK VINA RESULT:      -7.7      1.581      1.913
REMARK  Name = 
REMARK  5 active torsions:
REMARK  status: ('A' for Active; 'I' for Inactive)
REMARK    1  A    between atoms: C_2  and  C_14
REMARK    2  A    between atoms: N_3  and  N_4
REMARK    3  A    between atoms: C_5  and  C_6
REMARK    4  A    between atoms: C_7  and  C_8
REMARK    5  A    between atoms: C_16  and  C_17
REMARK                            x       y       z     vdW  Elec       q    Type
REMARK                         _______ _______ _______ _____ _____    ______ ____
ROOT
ATOM      1  O   UNL     1       4.955   7.101  17.116  0.00  0.00    +0.000 OA
ATOM      2  C   UNL     1       5.732   6.238  17.523  0.00  0.00    +0.000 C 
ATOM      3  N   UNL     1       7.108   6.402  17.603  0.00  0.00    +0.000 N 
ATOM      4  H   UNL     1       7.677   5.640  17.961  0.00  0.00    +0.000 HD
ENDROOT
BRANCH   2   5
ATOM      5  C   UNL     1       5.234   4.929  17.972  0.00  0.00    +0.000 A 
ATOM      6  C   UNL     1       4.021   4.331  17.532  0.00  0.00    +0.000 A 
ATOM      7  C   UNL     1       3.916   3.158  18.229  0.00  0.00    +0.000 A 
ATOM      8  N   UNL     1       5.029   3.087  19.012  0.00  0.00    +0.000 N 
ATOM      9  N   UNL     1       5.863   4.145  18.874  0.00  0.00    +0.000 NA
ATOM     10  H   UNL     1       5.282   2.350  19.662  0.00  0.00    +0.000 HD
BRANCH   7  11
ATOM     11  C   UNL     1       2.754   2.193  18.124  0.00  0.00    +0.000 C 
ATOM     12  C   UNL     1       2.028   1.759  19.377  0.00  0.00    +0.000 C 
ATOM     13  C   UNL     1       1.363   2.700  18.432  0.00  0.00    +0.000 C 
ENDBRANCH   7  11
ENDBRANCH   2   5
BRANCH   3  14
ATOM     14  N   UNL     1       7.631   7.617  17.276  0.00  0.00    +0.000 NA
ATOM     15  C   UNL     1       8.028   8.404  18.218  0.00  0.00    +0.000 C 
BRANCH  15  16
ATOM     16  C   UNL     1       8.545   9.738  17.834  0.00  0.00    +0.000 C 
ATOM     17  C   UNL     1       9.556  10.350  18.465  0.00  0.00    +0.000 C 
BRANCH  17  18
ATOM     18  C   UNL     1       9.994  11.719  18.124  0.00  0.00    +0.000 A 
ATOM     19  C   UNL     1      11.340  11.938  17.800  0.00  0.00    +0.000 A 
ATOM     20  C   UNL     1      11.811  13.227  17.524  0.00  0.00    +0.000 A 
ATOM     21  C   UNL     1      10.938  14.312  17.556  0.00  0.00    +0.000 A 
ATOM     22  C   UNL     1       9.591  14.107  17.839  0.00  0.00    +0.000 A 
ATOM     23  C   UNL     1       9.121  12.818  18.111  0.00  0.00    +0.000 A 
ENDBRANCH  17  18
ENDBRANCH  15  16
ENDBRANCH   3  14
TORSDOF 5
ENDMDL
MODEL 6
REMARK VINA RESULT:      -7.7      1.829      2.019
REMARK  Name = 
REMARK  5 active torsions:
REMARK  status: ('A' for Active; 'I' for Inactive)
REMARK    1  A    between atoms: C_2  and  C_14
REMARK    2  A    between atoms: N_3  and  N_4
REMARK    3  A    between atoms: C_5  and  C_6
REMARK    4  A    between atoms: C_7  and  C_8
REMARK    5  A    between atoms: C_16  and  C_17
REMARK                            x       y       z     vdW  Elec       q    Type
REMARK                         _______ _______ _______ _____ _____    ______ ____
ROOT
ATOM      1  O   UNL     1       5.121   6.862  15.530  0.00  0.00    +0.000 OA
ATOM      2  C   UNL     1       5.269   6.282  16.606  0.00  0.00    +0.000 C 
ATOM      3  N   UNL     1       6.256   6.595  17.531  0.00  0.00    +0.000 N 
ATOM      4  H   UNL     1       6.301   6.072  18.401  0.00  0.00    +0.000 HD
ENDROOT
BRANCH   2   5
ATOM      5  C   UNL     1       4.373   5.184  16.998  0.00  0.00    +0.000 A 
ATOM      6  C   UNL     1       3.119   5.356  17.645  0.00  0.00    +0.000 A 
ATOM      7  C   UNL     1       2.646   4.091  17.871  0.00  0.00    +0.000 A 
ATOM      8  N   UNL     1       3.582   3.244  17.357  0.00  0.00    +0.000 N 
ATOM      9  N   UNL     1       4.646   3.875  16.806  0.00  0.00    +0.000 NA
ATOM     10  H   UNL     1       3.562   2.230  17.350  0.00  0.00    +0.000 HD
BRANCH   7  11
ATOM     11  C   UNL     1       1.349   3.769  18.582  0.00  0.00    +0.000 C 
ATOM     12  C   UNL     1       1.064   2.347  19.008  0.00  0.00    +0.000 C 
ATOM     13  C   UNL     1       1.403   3.367  20.039  0.00  0.00    +0.000 C 
ENDBRANCH   7  11
ENDBRANCH   2   5
BRANCH   3  14
ATOM     14  N   UNL     1       7.073   7.653  17.267  0.00  0.00    +0.000 NA
ATOM     15  C   UNL     1       7.913   8.038  18.168  0.00  0.00    +0.000 C 
BRANCH  15  16
ATOM     16  C   UNL     1       8.752   9.221  17.871  0.00  0.00    +0.000 C 
ATOM     17  C   UNL     1       8.671  10.375  18.548  0.00  0.00    +0.000 C 
BRANCH  17  18
ATOM     18  C   UNL     1       9.452  11.572  18.176  0.00  0.00    +0.000 A 
ATOM     19  C   UNL     1       8.855  12.835  18.296  0.00  0.00    +0.000 A 
ATOM     20  C   UNL     1       9.538  13.991  17.903  0.00  0.00    +0.000 A 
ATOM     21  C   UNL     1      10.832  13.902  17.397  0.00  0.00    +0.000 A 
ATOM     22  C   UNL     1      11.454  12.660  17.307  0.00  0.00    +0.000 A 
ATOM     23  C   UNL     1      10.772  11.506  17.703  0.00  0.00    +0.000 A 
ENDBRANCH  17  18
ENDBRANCH  15  16
ENDBRANCH   3  14
TORSDOF 5
ENDMDL
MODEL 7
REMARK VINA RESULT:      -7.6      1.641      1.809
REMARK  Name = 
REMARK  5 active torsions:
REMARK  status: ('A' for Active; 'I' for Inactive)
REMARK    1  A    between atoms: C_2  and  C_14
REMARK    2  A    between atoms: N_3  and  N_4
REMARK    3  A    between atoms: C_5  and  C_6
REMARK    4  A    between atoms: C_7  and  C_8
REMARK    5  A    between atoms: C_16  and  C_17
REMARK                            x       y       z     vdW  Elec       q    Type
REMARK                         _______ _______ _______ _____ _____    ______ ____
ROOT
ATOM      1  O   UNL     1       5.053   7.062  16.720  0.00  0.00    +0.000 OA
ATOM      2  C   UNL     1       5.717   6.174  17.255  0.00  0.00    +0.000 C 
ATOM      3  N   UNL     1       7.081   6.261  17.500  0.00  0.00    +0.000 N 
ATOM      4  H   UNL     1       7.552   5.485  17.956  0.00  0.00    +0.000 HD
ENDROOT
BRANCH   2   5
ATOM      5  C   UNL     1       5.085   4.921  17.691  0.00  0.00    +0.000 A 
ATOM      6  C   UNL     1       3.784   4.495  17.306  0.00  0.00    +0.000 A 
ATOM      7  C   UNL     1       3.572   3.316  17.970  0.00  0.00    +0.000 A 
ATOM      8  N   UNL     1       4.709   3.078  18.681  0.00  0.00    +0.000 N 
ATOM      9  N   UNL     1       5.660   4.030  18.528  0.00  0.00    +0.000 NA
ATOM     10  H   UNL     1       4.904   2.291  19.291  0.00  0.00    +0.000 HD
BRANCH   7  11
ATOM     11  C   UNL     1       2.294   2.507  17.903  0.00  0.00    +0.000 C 
ATOM     12  C   UNL     1       1.761   1.849  19.156  0.00  0.00    +0.000 C 
ATOM     13  C   UNL     1       1.063   3.042  18.600  0.00  0.00    +0.000 C 
ENDBRANCH   7  11
ENDBRANCH   2   5
BRANCH   3  14
ATOM     14  N   UNL     1       7.717   7.427  17.191  0.00  0.00    +0.000 NA
ATOM     15  C   UNL     1       7.807   8.349  18.089  0.00  0.00    +0.000 C 
BRANCH  15  16
ATOM     16  C   UNL     1       8.459   9.623  17.709  0.00  0.00    +0.000 C 
ATOM     17  C   UNL     1       9.178  10.369  18.559  0.00  0.00    +0.000 C 
BRANCH  17  18
ATOM     18  C   UNL     1       9.742  11.682  18.183  0.00  0.00    +0.000 A 
ATOM     19  C   UNL     1       8.961  12.831  18.367  0.00  0.00    +0.000 A 
ATOM     20  C   UNL     1       9.434  14.089  17.975  0.00  0.00    +0.000 A 
ATOM     21  C   UNL     1      10.698  14.215  17.405  0.00  0.00    +0.000 A 
ATOM     22  C   UNL     1      11.501  13.089  17.249  0.00  0.00    +0.000 A 
ATOM     23  C   UNL     1      11.030  11.834  17.646  0.00  0.00    +0.000 A 
ENDBRANCH  17  18
ENDBRANCH  15  16
ENDBRANCH   3  14
TORSDOF 5
ENDMDL
MODEL 8
REMARK VINA RESULT:      -7.6      1.786      2.276
REMARK  Name = 
REMARK  5 active torsions:
REMARK  status: ('A' for Active; 'I' for Inactive)
REMARK    1  A    between atoms: C_2  and  C_14
REMARK    2  A    between atoms: N_3  and  N_4
REMARK    3  A    between atoms: C_5  and  C_6
REMARK    4  A    between atoms: C_7  and  C_8
REMARK    5  A    between atoms: C_16  and  C_17
REMARK                            x       y       z     vdW  Elec       q    Type
REMARK                         _______ _______ _______ _____ _____    ______ ____
ROOT
ATOM      1  O   UNL     1       8.262   6.318  18.960  0.00  0.00    +0.000 OA
ATOM      2  C   UNL     1       7.283   6.380  18.216  0.00  0.00    +0.000 C 
ATOM      3  N   UNL     1       7.047   7.418  17.324  0.00  0.00    +0.000 N 
ATOM      4  H   UNL     1       6.218   7.386  16.737  0.00  0.00    +0.000 HD
ENDROOT
BRANCH   2   5
ATOM      5  C   UNL     1       6.267   5.318  18.220  0.00  0.00    +0.000 A 
ATOM      6  C   UNL     1       5.180   5.236  17.307  0.00  0.00    +0.000 A 
ATOM      7  C   UNL     1       4.458   4.139  17.693  0.00  0.00    +0.000 A 
ATOM      8  N   UNL     1       5.119   3.614  18.763  0.00  0.00    +0.000 N 
ATOM      9  N   UNL     1       6.234   4.301  19.108  0.00  0.00    +0.000 NA
ATOM     10  H   UNL     1       4.865   2.795  19.306  0.00  0.00    +0.000 HD
BRANCH   7  11
ATOM     11  C   UNL     1       3.175   3.675  17.036  0.00  0.00    +0.000 C 
ATOM     12  C   UNL     1       2.320   2.633  17.720  0.00  0.00    +0.000 C 
ATOM     13  C   UNL     1       1.858   4.048  17.678  0.00  0.00    +0.000 C 
ENDBRANCH   7  11
ENDBRANCH   2   5
BRANCH   3  14
ATOM     14  N   UNL     1       7.988   8.397  17.213  0.00  0.00    +0.000 NA
ATOM     15  C   UNL     1       8.186   9.194  18.209  0.00  0.00    +0.000 C 
BRANCH  15  16
ATOM     16  C   UNL     1       9.178  10.279  18.041  0.00  0.00    +0.000 C 
ATOM     17  C   UNL     1       8.859  11.580  18.034  0.00  0.00    +0.000 C 
BRANCH  17  18
ATOM     18  C   UNL     1       9.852  12.642  17.772  0.00  0.00    +0.000 A 
ATOM     19  C   UNL     1       9.470  13.981  17.935  0.00  0.00    +0.000 A 
ATOM     20  C   UNL     1      10.361  15.021  17.645  0.00  0.00    +0.000 A 
ATOM     21  C   UNL     1      11.650  14.735  17.203  0.00  0.00    +0.000 A 
ATOM     22  C   UNL     1      12.058  13.411  17.072  0.00  0.00    +0.000 A 
ATOM     23  C   UNL     1      11.168  12.373  17.365  0.00  0.00    +0.000 A 
ENDBRANCH  17  18
ENDBRANCH  15  16
ENDBRANCH   3  14
TORSDOF 5
ENDMDL
MODEL 9
REMARK VINA RESULT:      -7.6      1.681      1.840
REMARK  Name = 
REMARK  5 active torsions:
REMARK  status: ('A' for Active; 'I' for Inactive)
REMARK    1  A    between atoms: C_2  and  C_14
REMARK    2  A    between atoms: N_3  and  N_4
REMARK    3  A    between atoms: C_5  and  C_6
REMARK    4  A    between atoms: C_7  and  C_8
REMARK    5  A    between atoms: C_16  and  C_17
REMARK                            x       y       z     vdW  Elec       q    Type
REMARK                         _______ _______ _______ _____ _____    ______ ____
ROOT
ATOM      1  O   UNL     1       4.102   7.171  16.981  0.00  0.00    +0.000 OA
ATOM      2  C   UNL     1       4.756   6.235  17.440  0.00  0.00    +0.000 C 
ATOM      3  N   UNL     1       6.137   6.245  17.584  0.00  0.00    +0.000 N 
ATOM      4  H   UNL     1       6.599   5.432  17.982  0.00  0.00    +0.000 HD
ENDROOT
BRANCH   2   5
ATOM      5  C   UNL     1       4.092   5.002  17.886  0.00  0.00    +0.000 A 
ATOM      6  C   UNL     1       3.717   4.726  19.229  0.00  0.00    +0.000 A 
ATOM      7  C   UNL     1       3.184   3.465  19.210  0.00  0.00    +0.000 A 
ATOM      8  N   UNL     1       3.238   3.056  17.912  0.00  0.00    +0.000 N 
ATOM      9  N   UNL     1       3.777   3.971  17.071  0.00  0.00    +0.000 NA
ATOM     10  H   UNL     1       2.929   2.168  17.529  0.00  0.00    +0.000 HD
BRANCH   7  11
ATOM     11  C   UNL     1       2.681   2.722  20.430  0.00  0.00    +0.000 C 
ATOM     12  C   UNL     1       2.233   3.502  21.646  0.00  0.00    +0.000 C 
ATOM     13  C   UNL     1       1.216   2.831  20.789  0.00  0.00    +0.000 C 
ENDBRANCH   7  11
ENDBRANCH   2   5
BRANCH   3  14
ATOM     14  N   UNL     1       6.809   7.386  17.262  0.00  0.00    +0.000 NA
ATOM     15  C   UNL     1       7.769   7.787  18.027  0.00  0.00    +0.000 C 
BRANCH  15  16
ATOM     16  C   UNL     1       8.447   9.056  17.679  0.00  0.00    +0.000 C 
ATOM     17  C   UNL     1       8.928   9.912  18.590  0.00  0.00    +0.000 C 
BRANCH  17  18
ATOM     18  C   UNL     1       9.519  11.216  18.223  0.00  0.00    +0.000 A 
ATOM     19  C   UNL     1       8.704  12.356  18.239  0.00  0.00    +0.000 A 
ATOM     20  C   UNL     1       9.206  13.602  17.846  0.00  0.00    +0.000 A 
ATOM     21  C   UNL     1      10.533  13.726  17.444  0.00  0.00    +0.000 A 
ATOM     22  C   UNL     1      11.366  12.611  17.457  0.00  0.00    +0.000 A 
ATOM     23  C   UNL     1      10.864  11.368  17.854  0.00  0.00    +0.000 A 
ENDBRANCH  17  18
ENDBRANCH  15  16
ENDBRANCH   3  14
TORSDOF 5
ENDMDL
