MODEL 1
REMARK VINA RESULT:      -8.2      0.000      0.000
REMARK  Name = 
REMARK  12 active torsions:
REMARK  status: ('A' for Active; 'I' for Inactive)
REMARK    1  A    between atoms: C_1  and  O_2
REMARK    2  A    between atoms: O_2  and  C_3
REMARK    3  A    between atoms: C_6  and  C_7
REMARK    4  A    between atoms: C_7  and  N_8
REMARK    5  A    between atoms: N_8  and  C_9
REMARK    6  A    between atoms: C_9  and  C_10
REMARK    7  A    between atoms: C_10  and  C_11
REMARK    8  A    between atoms: C_11  and  C_12
REMARK    9  A    between atoms: C_11  and  C_19
REMARK   10  A    between atoms: C_23  and  C_24
REMARK   11  A    between atoms: C_23  and  C_25
REMARK   12  A    between atoms: C_27  and  C_29
REMARK                            x       y       z     vdW  Elec       q    Type
REMARK                         _______ _______ _______ _____ _____    ______ ____
ROOT
ATOM      1  C   UNL     1       4.958   6.196  16.303  0.00  0.00    +0.000 C 
ENDROOT
BRANCH   1   2
ATOM      2  N   UNL     1       6.312   5.822  16.707  0.00  0.00    +0.000 N 
ATOM      3  C   UNL     1       7.107   4.868  16.030  0.00  0.00    +0.000 C 
ATOM      4  O   UNL     1       8.081   4.362  16.597  0.00  0.00    +0.000 OA
BRANCH   3   5
ATOM      5  C   UNL     1       6.708   4.398  14.711  0.00  0.00    +0.000 A 
ATOM      6  C   UNL     1       5.672   3.558  14.333  0.00  0.00    +0.000 A 
ATOM      7  C   UNL     1       5.671   3.514  12.916  0.00  0.00    +0.000 A 
ATOM      8  C   UNL     1       6.739   4.280  12.513  0.00  0.00    +0.000 A 
ATOM      9  O   UNL     1       7.382   4.812  13.589  0.00  0.00    +0.000 OA
ENDBRANCH   3   5
BRANCH   2  10
ATOM     10  C   UNL     1       6.785   6.309  18.019  0.00  0.00    +0.000 C 
BRANCH  10  14
ATOM     11  C   UNL     1       8.788  10.108  18.436  0.00  0.00    +0.000 A 
ATOM     12  C   UNL     1       9.165   9.015  19.211  0.00  0.00    +0.000 A 
ATOM     13  C   UNL     1       8.544   7.780  19.027  0.00  0.00    +0.000 A 
ATOM     14  C   UNL     1       7.521   7.626  18.071  0.00  0.00    +0.000 A 
ATOM     15  C   UNL     1       7.226   8.696  17.228  0.00  0.00    +0.000 A 
ATOM     16  C   UNL     1       7.836   9.938  17.429  0.00  0.00    +0.000 A 
BRANCH  11  18
ATOM     17  C   UNL     1      10.184  11.277  19.957  0.00  0.00    +0.000 C 
ATOM     18  O   UNL     1       9.416  11.278  18.762  0.00  0.00    +0.000 OA
ENDBRANCH  11  18
ENDBRANCH  10  14
ENDBRANCH   2  10
ENDBRANCH   1   2
BRANCH   1  19
ATOM     19  C   UNL     1       4.089   6.979  17.283  0.00  0.00    +0.000 C 
BRANCH  19  20
ATOM     20  C   UNL     1       3.181   6.296  18.317  0.00  0.00    +0.000 C 
BRANCH  20  21
ATOM     21  C   UNL     1       2.218   5.065  18.040  0.00  0.00    +0.000 C 
ATOM     22  C   UNL     1       2.401   3.866  17.088  0.00  0.00    +0.000 C 
ATOM     23  C   UNL     1       3.088   2.583  17.600  0.00  0.00    +0.000 C 
ATOM     24  O   UNL     1       2.768   2.257  18.949  0.00  0.00    +0.000 OA
ATOM     25  C   UNL     1       2.915   3.370  19.846  0.00  0.00    +0.000 C 
ATOM     26  C   UNL     1       2.516   2.966  21.268  0.00  0.00    +0.000 C 
ATOM     27  C   UNL     1       4.402   3.769  19.887  0.00  0.00    +0.000 C 
ATOM     28  C   UNL     1       1.881   4.415  19.395  0.00  0.00    +0.000 C 
ENDBRANCH  20  21
BRANCH  20  29
ATOM     29  C   UNL     1       2.284   7.484  18.817  0.00  0.00    +0.000 A 
ATOM     30  C   UNL     1       1.913   7.597  20.175  0.00  0.00    +0.000 A 
ATOM     31  C   UNL     1       1.219   8.712  20.644  0.00  0.00    +0.000 A 
ATOM     32  C   UNL     1       0.834   9.696  19.738  0.00  0.00    +0.000 A 
ATOM     33  F   UNL     1       0.174  10.771  20.186  0.00  0.00    +0.000 F 
ATOM     34  C   UNL     1       1.129   9.582  18.387  0.00  0.00    +0.000 A 
ATOM     35  C   UNL     1       1.854   8.472  17.922  0.00  0.00    +0.000 A 
ENDBRANCH  20  29
ENDBRANCH  19  20
ENDBRANCH   1  19
TORSDOF 9
ENDMDL
MODEL 2
REMARK VINA RESULT:      -8.1      0.641      1.127
REMARK  Name = 
REMARK  12 active torsions:
REMARK  status: ('A' for Active; 'I' for Inactive)
REMARK    1  A    between atoms: C_1  and  O_2
REMARK    2  A    between atoms: O_2  and  C_3
REMARK    3  A    between atoms: C_6  and  C_7
REMARK    4  A    between atoms: C_7  and  N_8
REMARK    5  A    between atoms: N_8  and  C_9
REMARK    6  A    between atoms: C_9  and  C_10
REMARK    7  A    between atoms: C_10  and  C_11
REMARK    8  A    between atoms: C_11  and  C_12
REMARK    9  A    between atoms: C_11  and  C_19
REMARK   10  A    between atoms: C_23  and  C_24
REMARK   11  A    between atoms: C_23  and  C_25
REMARK   12  A    between atoms: C_27  and  C_29
REMARK                            x       y       z     vdW  Elec       q    Type
REMARK                         _______ _______ _______ _____ _____    ______ ____
ROOT
ATOM      1  C   UNL     1       4.806   5.949  16.273  0.00  0.00    +0.000 C 
ENDROOT
BRANCH   1   2
ATOM      2  N   UNL     1       6.193   5.639  16.614  0.00  0.00    +0.000 N 
ATOM      3  C   UNL     1       7.026   4.789  15.850  0.00  0.00    +0.000 C 
ATOM      4  O   UNL     1       8.049   4.311  16.353  0.00  0.00    +0.000 OA
BRANCH   3   5
ATOM      5  C   UNL     1       6.618   4.385  14.512  0.00  0.00    +0.000 A 
ATOM      6  C   UNL     1       7.214   4.620  13.282  0.00  0.00    +0.000 A 
ATOM      7  C   UNL     1       6.456   3.914  12.313  0.00  0.00    +0.000 A 
ATOM      8  C   UNL     1       5.411   3.338  12.996  0.00  0.00    +0.000 A 
ATOM      9  O   UNL     1       5.490   3.624  14.325  0.00  0.00    +0.000 OA
ENDBRANCH   3   5
BRANCH   2  10
ATOM     10  C   UNL     1       6.674   6.065  17.943  0.00  0.00    +0.000 C 
BRANCH  10  14
ATOM     11  C   UNL     1       8.773   9.794  18.497  0.00  0.00    +0.000 A 
ATOM     12  C   UNL     1       9.085   8.680  19.270  0.00  0.00    +0.000 A 
ATOM     13  C   UNL     1       8.435   7.467  19.043  0.00  0.00    +0.000 A 
ATOM     14  C   UNL     1       7.448   7.358  18.044  0.00  0.00    +0.000 A 
ATOM     15  C   UNL     1       7.220   8.447  17.206  0.00  0.00    +0.000 A 
ATOM     16  C   UNL     1       7.859   9.668  17.449  0.00  0.00    +0.000 A 
BRANCH  11  18
ATOM     17  C   UNL     1       9.066  12.126  18.169  0.00  0.00    +0.000 C 
ATOM     18  O   UNL     1       9.423  10.940  18.865  0.00  0.00    +0.000 OA
ENDBRANCH  11  18
ENDBRANCH  10  14
ENDBRANCH   2  10
ENDBRANCH   1   2
BRANCH   1  19
ATOM     19  C   UNL     1       3.998   6.835  17.217  0.00  0.00    +0.000 C 
BRANCH  19  20
ATOM     20  C   UNL     1       3.091   6.266  18.319  0.00  0.00    +0.000 C 
BRANCH  20  21
ATOM     21  C   UNL     1       2.040   5.090  18.143  0.00  0.00    +0.000 C 
ATOM     22  C   UNL     1       2.045   3.904  17.158  0.00  0.00    +0.000 C 
ATOM     23  C   UNL     1       2.723   2.578  17.562  0.00  0.00    +0.000 C 
ATOM     24  O   UNL     1       2.553   2.240  18.935  0.00  0.00    +0.000 OA
ATOM     25  C   UNL     1       2.864   3.324  19.824  0.00  0.00    +0.000 C 
ATOM     26  C   UNL     1       2.621   2.910  21.278  0.00  0.00    +0.000 C 
ATOM     27  C   UNL     1       4.364   3.649  19.689  0.00  0.00    +0.000 C 
ATOM     28  C   UNL     1       1.837   4.428  19.519  0.00  0.00    +0.000 C 
ENDBRANCH  20  21
BRANCH  20  29
ATOM     29  C   UNL     1       2.294   7.535  18.790  0.00  0.00    +0.000 A 
ATOM     30  C   UNL     1       1.888   8.525  17.868  0.00  0.00    +0.000 A 
ATOM     31  C   UNL     1       1.078   9.589  18.261  0.00  0.00    +0.000 A 
ATOM     32  C   UNL     1       0.721   9.705  19.602  0.00  0.00    +0.000 A 
ATOM     33  F   UNL     1      -0.063  10.722  19.981  0.00  0.00    +0.000 F 
ATOM     34  C   UNL     1       1.157   8.782  20.542  0.00  0.00    +0.000 A 
ATOM     35  C   UNL     1       1.949   7.694  20.137  0.00  0.00    +0.000 A 
ENDBRANCH  20  29
ENDBRANCH  19  20
ENDBRANCH   1  19
TORSDOF 9
ENDMDL
MODEL 3
REMARK VINA RESULT:      -7.7      1.018      1.570
REMARK  Name = 
REMARK  12 active torsions:
REMARK  status: ('A' for Active; 'I' for Inactive)
REMARK    1  A    between atoms: C_1  and  O_2
REMARK    2  A    between atoms: O_2  and  C_3
REMARK    3  A    between atoms: C_6  and  C_7
REMARK    4  A    between atoms: C_7  and  N_8
REMARK    5  A    between atoms: N_8  and  C_9
REMARK    6  A    between atoms: C_9  and  C_10
REMARK    7  A    between atoms: C_10  and  C_11
REMARK    8  A    between atoms: C_11  and  C_12
REMARK    9  A    between atoms: C_11  and  C_19
REMARK   10  A    between atoms: C_23  and  C_24
REMARK   11  A    between atoms: C_23  and  C_25
REMARK   12  A    between atoms: C_27  and  C_29
REMARK                            x       y       z     vdW  Elec       q    Type
REMARK                         _______ _______ _______ _____ _____    ______ ____
ROOT
ATOM      1  C   UNL     1       4.699   4.534  16.922  0.00  0.00    +0.000 C 
ENDROOT
BRANCH   1   2
ATOM      2  N   UNL     1       6.136   4.769  16.793  0.00  0.00    +0.000 N 
ATOM      3  C   UNL     1       6.891   4.453  15.639  0.00  0.00    +0.000 C 
ATOM      4  O   UNL     1       8.121   4.364  15.712  0.00  0.00    +0.000 OA
BRANCH   3   5
ATOM      5  C   UNL     1       6.209   4.118  14.397  0.00  0.00    +0.000 A 
ATOM      6  C   UNL     1       4.915   4.391  13.982  0.00  0.00    +0.000 A 
ATOM      7  C   UNL     1       4.803   3.929  12.645  0.00  0.00    +0.000 A 
ATOM      8  C   UNL     1       6.013   3.353  12.341  0.00  0.00    +0.000 A 
ATOM      9  O   UNL     1       6.870   3.450  13.396  0.00  0.00    +0.000 OA
ENDBRANCH   3   5
BRANCH   2  10
ATOM     10  C   UNL     1       6.870   5.154  18.015  0.00  0.00    +0.000 C 
BRANCH  10  14
ATOM     11  C   UNL     1       8.301   9.224  18.124  0.00  0.00    +0.000 A 
ATOM     12  C   UNL     1       7.251   8.860  17.286  0.00  0.00    +0.000 A 
ATOM     13  C   UNL     1       6.765   7.553  17.301  0.00  0.00    +0.000 A 
ATOM     14  C   UNL     1       7.337   6.584  18.149  0.00  0.00    +0.000 A 
ATOM     15  C   UNL     1       8.313   6.983  19.059  0.00  0.00    +0.000 A 
ATOM     16  C   UNL     1       8.813   8.289  19.026  0.00  0.00    +0.000 A 
BRANCH  11  18
ATOM     17  C   UNL     1       9.788  10.938  18.816  0.00  0.00    +0.000 C 
ATOM     18  O   UNL     1       8.737  10.510  17.962  0.00  0.00    +0.000 OA
ENDBRANCH  11  18
ENDBRANCH  10  14
ENDBRANCH   2  10
ENDBRANCH   1   2
BRANCH   1  19
ATOM     19  C   UNL     1       3.808   5.677  17.401  0.00  0.00    +0.000 C 
BRANCH  19  20
ATOM     20  C   UNL     1       2.905   5.565  18.638  0.00  0.00    +0.000 C 
BRANCH  20  21
ATOM     21  C   UNL     1       1.635   4.623  18.780  0.00  0.00    +0.000 C 
ATOM     22  C   UNL     1       1.197   3.425  17.915  0.00  0.00    +0.000 C 
ATOM     23  C   UNL     1       1.680   2.005  18.278  0.00  0.00    +0.000 C 
ATOM     24  O   UNL     1       1.754   1.761  19.678  0.00  0.00    +0.000 OA
ATOM     25  C   UNL     1       2.455   2.792  20.392  0.00  0.00    +0.000 C 
ATOM     26  C   UNL     1       2.462   2.492  21.894  0.00  0.00    +0.000 C 
ATOM     27  C   UNL     1       3.922   2.798  19.923  0.00  0.00    +0.000 C 
ATOM     28  C   UNL     1       1.617   4.070  20.217  0.00  0.00    +0.000 C 
ENDBRANCH  20  21
BRANCH  20  29
ATOM     29  C   UNL     1       2.411   7.043  18.831  0.00  0.00    +0.000 A 
ATOM     30  C   UNL     1       2.522   7.992  17.791  0.00  0.00    +0.000 A 
ATOM     31  C   UNL     1       1.976   9.268  17.915  0.00  0.00    +0.000 A 
ATOM     32  C   UNL     1       1.368   9.627  19.114  0.00  0.00    +0.000 A 
ATOM     33  F   UNL     1       0.836  10.850  19.235  0.00  0.00    +0.000 F 
ATOM     34  C   UNL     1       1.299   8.737  20.177  0.00  0.00    +0.000 A 
ATOM     35  C   UNL     1       1.824   7.441  20.038  0.00  0.00    +0.000 A 
ENDBRANCH  20  29
ENDBRANCH  19  20
ENDBRANCH   1  19
TORSDOF 9
ENDMDL
MODEL 4
REMARK VINA RESULT:      -7.5      2.075      5.670
REMARK  Name = 
REMARK  12 active torsions:
REMARK  status: ('A' for Active; 'I' for Inactive)
REMARK    1  A    between atoms: C_1  and  O_2
REMARK    2  A    between atoms: O_2  and  C_3
REMARK    3  A    between atoms: C_6  and  C_7
REMARK    4  A    between atoms: C_7  and  N_8
REMARK    5  A    between atoms: N_8  and  C_9
REMARK    6  A    between atoms: C_9  and  C_10
REMARK    7  A    between atoms: C_10  and  C_11
REMARK    8  A    between atoms: C_11  and  C_12
REMARK    9  A    between atoms: C_11  and  C_19
REMARK   10  A    between atoms: C_23  and  C_24
REMARK   11  A    between atoms: C_23  and  C_25
REMARK   12  A    between atoms: C_27  and  C_29
REMARK                            x       y       z     vdW  Elec       q    Type
REMARK                         _______ _______ _______ _____ _____    ______ ____
ROOT
ATOM      1  C   UNL     1       4.490   4.870  16.218  0.00  0.00    +0.000 C 
ENDROOT
BRANCH   1   2
ATOM      2  N   UNL     1       5.537   5.160  15.239  0.00  0.00    +0.000 N 
ATOM      3  C   UNL     1       6.847   5.569  15.578  0.00  0.00    +0.000 C 
ATOM      4  O   UNL     1       7.564   6.109  14.729  0.00  0.00    +0.000 OA
BRANCH   3   5
ATOM      5  C   UNL     1       7.308   5.459  16.955  0.00  0.00    +0.000 A 
ATOM      6  C   UNL     1       7.768   4.359  17.662  0.00  0.00    +0.000 A 
ATOM      7  C   UNL     1       8.184   4.829  18.934  0.00  0.00    +0.000 A 
ATOM      8  C   UNL     1       7.903   6.174  18.950  0.00  0.00    +0.000 A 
ATOM      9  O   UNL     1       7.362   6.567  17.764  0.00  0.00    +0.000 OA
ENDBRANCH   3   5
BRANCH   2  10
ATOM     10  C   UNL     1       5.132   5.240  13.821  0.00  0.00    +0.000 C 
BRANCH  10  14
ATOM     11  C   UNL     1       6.080   1.824  11.360  0.00  0.00    +0.000 A 
ATOM     12  C   UNL     1       4.780   2.318  11.423  0.00  0.00    +0.000 A 
ATOM     13  C   UNL     1       4.500   3.455  12.181  0.00  0.00    +0.000 A 
ATOM     14  C   UNL     1       5.520   4.106  12.902  0.00  0.00    +0.000 A 
ATOM     15  C   UNL     1       6.834   3.669  12.747  0.00  0.00    +0.000 A 
ATOM     16  C   UNL     1       7.108   2.516  12.003  0.00  0.00    +0.000 A 
BRANCH  11  18
ATOM     17  C   UNL     1       6.138  -0.548  11.386  0.00  0.00    +0.000 C 
ATOM     18  O   UNL     1       6.212   0.664  10.648  0.00  0.00    +0.000 OA
ENDBRANCH  11  18
ENDBRANCH  10  14
ENDBRANCH   2  10
ENDBRANCH   1   2
BRANCH   1  19
ATOM     19  C   UNL     1       4.060   5.972  17.182  0.00  0.00    +0.000 C 
BRANCH  19  20
ATOM     20  C   UNL     1       3.128   5.715  18.376  0.00  0.00    +0.000 C 
BRANCH  20  21
ATOM     21  C   UNL     1       1.918   4.688  18.406  0.00  0.00    +0.000 C 
ATOM     22  C   UNL     1       1.673   3.429  17.552  0.00  0.00    +0.000 C 
ATOM     23  C   UNL     1       2.202   2.063  18.035  0.00  0.00    +0.000 C 
ATOM     24  O   UNL     1       2.118   1.878  19.444  0.00  0.00    +0.000 OA
ATOM     25  C   UNL     1       2.653   2.984  20.189  0.00  0.00    +0.000 C 
ATOM     26  C   UNL     1       2.494   2.742  21.693  0.00  0.00    +0.000 C 
ATOM     27  C   UNL     1       4.163   3.079  19.902  0.00  0.00    +0.000 C 
ATOM     28  C   UNL     1       1.758   4.190  19.855  0.00  0.00    +0.000 C 
ENDBRANCH  20  21
BRANCH  20  29
ATOM     29  C   UNL     1       2.535   7.141  18.655  0.00  0.00    +0.000 A 
ATOM     30  C   UNL     1       2.547   8.144  17.661  0.00  0.00    +0.000 A 
ATOM     31  C   UNL     1       1.914   9.370  17.864  0.00  0.00    +0.000 A 
ATOM     32  C   UNL     1       1.318   9.625  19.095  0.00  0.00    +0.000 A 
ATOM     33  F   UNL     1       0.703  10.798  19.290  0.00  0.00    +0.000 F 
ATOM     34  C   UNL     1       1.344   8.682  20.114  0.00  0.00    +0.000 A 
ATOM     35  C   UNL     1       1.956   7.436  19.896  0.00  0.00    +0.000 A 
ENDBRANCH  20  29
ENDBRANCH  19  20
ENDBRANCH   1  19
TORSDOF 9
ENDMDL
MODEL 5
REMARK VINA RESULT:      -7.3      1.979      5.319
REMARK  Name = 
REMARK  12 active torsions:
REMARK  status: ('A' for Active; 'I' for Inactive)
REMARK    1  A    between atoms: C_1  and  O_2
REMARK    2  A    between atoms: O_2  and  C_3
REMARK    3  A    between atoms: C_6  and  C_7
REMARK    4  A    between atoms: C_7  and  N_8
REMARK    5  A    between atoms: N_8  and  C_9
REMARK    6  A    between atoms: C_9  and  C_10
REMARK    7  A    between atoms: C_10  and  C_11
REMARK    8  A    between atoms: C_11  and  C_12
REMARK    9  A    between atoms: C_11  and  C_19
REMARK   10  A    between atoms: C_23  and  C_24
REMARK   11  A    between atoms: C_23  and  C_25
REMARK   12  A    between atoms: C_27  and  C_29
REMARK                            x       y       z     vdW  Elec       q    Type
REMARK                         _______ _______ _______ _____ _____    ______ ____
ROOT
ATOM      1  C   UNL     1       4.751   5.157  17.018  0.00  0.00    +0.000 C 
ENDROOT
BRANCH   1   2
ATOM      2  N   UNL     1       5.774   5.534  16.043  0.00  0.00    +0.000 N 
ATOM      3  C   UNL     1       7.091   5.918  16.385  0.00  0.00    +0.000 C 
ATOM      4  O   UNL     1       7.787   6.531  15.569  0.00  0.00    +0.000 OA
BRANCH   3   5
ATOM      5  C   UNL     1       7.584   5.693  17.737  0.00  0.00    +0.000 A 
ATOM      6  C   UNL     1       7.816   6.591  18.768  0.00  0.00    +0.000 A 
ATOM      7  C   UNL     1       8.194   5.828  19.903  0.00  0.00    +0.000 A 
ATOM      8  C   UNL     1       8.226   4.519  19.485  0.00  0.00    +0.000 A 
ATOM      9  O   UNL     1       7.871   4.424  18.174  0.00  0.00    +0.000 OA
ENDBRANCH   3   5
BRANCH   2  10
ATOM     10  C   UNL     1       5.336   5.732  14.647  0.00  0.00    +0.000 C 
BRANCH  10  14
ATOM     11  C   UNL     1       6.768   2.775  11.849  0.00  0.00    +0.000 A 
ATOM     12  C   UNL     1       5.489   2.683  12.392  0.00  0.00    +0.000 A 
ATOM     13  C   UNL     1       5.022   3.674  13.253  0.00  0.00    +0.000 A 
ATOM     14  C   UNL     1       5.838   4.770  13.596  0.00  0.00    +0.000 A 
ATOM     15  C   UNL     1       7.072   4.909  12.966  0.00  0.00    +0.000 A 
ATOM     16  C   UNL     1       7.547   3.902  12.119  0.00  0.00    +0.000 A 
BRANCH  11  18
ATOM     17  C   UNL     1       6.188   0.656  10.953  0.00  0.00    +0.000 C 
ATOM     18  O   UNL     1       7.137   1.705  11.081  0.00  0.00    +0.000 OA
ENDBRANCH  11  18
ENDBRANCH  10  14
ENDBRANCH   2  10
ENDBRANCH   1   2
BRANCH   1  19
ATOM     19  C   UNL     1       4.052   6.257  17.811  0.00  0.00    +0.000 C 
BRANCH  19  20
ATOM     20  C   UNL     1       2.924   5.971  18.813  0.00  0.00    +0.000 C 
BRANCH  20  21
ATOM     21  C   UNL     1       1.748   4.923  18.615  0.00  0.00    +0.000 C 
ATOM     22  C   UNL     1       1.613   3.777  17.593  0.00  0.00    +0.000 C 
ATOM     23  C   UNL     1       2.145   2.373  17.945  0.00  0.00    +0.000 C 
ATOM     24  O   UNL     1       1.955   2.009  19.308  0.00  0.00    +0.000 OA
ATOM     25  C   UNL     1       2.394   3.023  20.226  0.00  0.00    +0.000 C 
ATOM     26  C   UNL     1       2.123   2.588  21.670  0.00  0.00    +0.000 C 
ATOM     27  C   UNL     1       3.918   3.186  20.080  0.00  0.00    +0.000 C 
ATOM     28  C   UNL     1       1.490   4.241  19.972  0.00  0.00    +0.000 C 
ENDBRANCH  20  21
BRANCH  20  29
ATOM     29  C   UNL     1       2.261   7.384  18.990  0.00  0.00    +0.000 A 
ATOM     30  C   UNL     1       2.104   8.258  17.893  0.00  0.00    +0.000 A 
ATOM     31  C   UNL     1       1.409   9.460  18.021  0.00  0.00    +0.000 A 
ATOM     32  C   UNL     1       0.921   9.827  19.272  0.00  0.00    +0.000 A 
ATOM     33  F   UNL     1       0.247  10.977  19.396  0.00  0.00    +0.000 F 
ATOM     34  C   UNL     1       1.115   9.017  20.382  0.00  0.00    +0.000 A 
ATOM     35  C   UNL     1       1.789   7.792  20.244  0.00  0.00    +0.000 A 
ENDBRANCH  20  29
ENDBRANCH  19  20
ENDBRANCH   1  19
TORSDOF 9
ENDMDL
MODEL 6
REMARK VINA RESULT:      -7.2      1.968      5.404
REMARK  Name = 
REMARK  12 active torsions:
REMARK  status: ('A' for Active; 'I' for Inactive)
REMARK    1  A    between atoms: C_1  and  O_2
REMARK    2  A    between atoms: O_2  and  C_3
REMARK    3  A    between atoms: C_6  and  C_7
REMARK    4  A    between atoms: C_7  and  N_8
REMARK    5  A    between atoms: N_8  and  C_9
REMARK    6  A    between atoms: C_9  and  C_10
REMARK    7  A    between atoms: C_10  and  C_11
REMARK    8  A    between atoms: C_11  and  C_12
REMARK    9  A    between atoms: C_11  and  C_19
REMARK   10  A    between atoms: C_23  and  C_24
REMARK   11  A    between atoms: C_23  and  C_25
REMARK   12  A    between atoms: C_27  and  C_29
REMARK                            x       y       z     vdW  Elec       q    Type
REMARK                         _______ _______ _______ _____ _____    ______ ____
ROOT
ATOM      1  C   UNL     1       4.678   5.131  16.818  0.00  0.00    +0.000 C 
ENDROOT
BRANCH   1   2
ATOM      2  N   UNL     1       5.758   5.484  15.899  0.00  0.00    +0.000 N 
ATOM      3  C   UNL     1       7.048   5.893  16.310  0.00  0.00    +0.000 C 
ATOM      4  O   UNL     1       7.789   6.485  15.519  0.00  0.00    +0.000 OA
BRANCH   3   5
ATOM      5  C   UNL     1       7.455   5.719  17.697  0.00  0.00    +0.000 A 
ATOM      6  C   UNL     1       7.917   6.645  18.620  0.00  0.00    +0.000 A 
ATOM      7  C   UNL     1       8.069   5.961  19.853  0.00  0.00    +0.000 A 
ATOM      8  C   UNL     1       7.746   4.649  19.600  0.00  0.00    +0.000 A 
ATOM      9  O   UNL     1       7.384   4.486  18.297  0.00  0.00    +0.000 OA
ENDBRANCH   3   5
BRANCH   2  10
ATOM     10  C   UNL     1       5.409   5.631  14.471  0.00  0.00    +0.000 C 
BRANCH  10  14
ATOM     11  C   UNL     1       6.076   2.388  11.703  0.00  0.00    +0.000 A 
ATOM     12  C   UNL     1       7.133   2.942  12.420  0.00  0.00    +0.000 A 
ATOM     13  C   UNL     1       6.894   3.953  13.349  0.00  0.00    +0.000 A 
ATOM     14  C   UNL     1       5.588   4.436  13.564  0.00  0.00    +0.000 A 
ATOM     15  C   UNL     1       4.526   3.803  12.923  0.00  0.00    +0.000 A 
ATOM     16  C   UNL     1       4.771   2.803  11.976  0.00  0.00    +0.000 A 
BRANCH  11  18
ATOM     17  C   UNL     1       6.172   0.101  11.078  0.00  0.00    +0.000 C 
ATOM     18  O   UNL     1       6.448   1.460  10.770  0.00  0.00    +0.000 OA
ENDBRANCH  11  18
ENDBRANCH  10  14
ENDBRANCH   2  10
ENDBRANCH   1   2
BRANCH   1  19
ATOM     19  C   UNL     1       3.927   6.249  17.534  0.00  0.00    +0.000 C 
BRANCH  19  20
ATOM     20  C   UNL     1       2.911   5.984  18.656  0.00  0.00    +0.000 C 
BRANCH  20  21
ATOM     21  C   UNL     1       1.744   4.909  18.617  0.00  0.00    +0.000 C 
ATOM     22  C   UNL     1       1.516   3.738  17.641  0.00  0.00    +0.000 C 
ATOM     23  C   UNL     1       2.116   2.352  17.958  0.00  0.00    +0.000 C 
ATOM     24  O   UNL     1       2.093   2.017  19.341  0.00  0.00    +0.000 OA
ATOM     25  C   UNL     1       2.613   3.059  20.181  0.00  0.00    +0.000 C 
ATOM     26  C   UNL     1       2.520   2.653  21.655  0.00  0.00    +0.000 C 
ATOM     27  C   UNL     1       4.106   3.249  19.855  0.00  0.00    +0.000 C 
ATOM     28  C   UNL     1       1.659   4.254  20.009  0.00  0.00    +0.000 C 
ENDBRANCH  20  21
BRANCH  20  29
ATOM     29  C   UNL     1       2.241   7.391  18.845  0.00  0.00    +0.000 A 
ATOM     30  C   UNL     1       1.734   7.795  20.099  0.00  0.00    +0.000 A 
ATOM     31  C   UNL     1       1.248   9.086  20.301  0.00  0.00    +0.000 A 
ATOM     32  C   UNL     1       1.206   9.966  19.223  0.00  0.00    +0.000 A 
ATOM     33  F   UNL     1       0.748  11.209  19.415  0.00  0.00    +0.000 F 
ATOM     34  C   UNL     1       1.639   9.578  17.963  0.00  0.00    +0.000 A 
ATOM     35  C   UNL     1       2.156   8.285  17.771  0.00  0.00    +0.000 A 
ENDBRANCH  20  29
ENDBRANCH  19  20
ENDBRANCH   1  19
TORSDOF 9
ENDMDL
MODEL 7
REMARK VINA RESULT:      -7.1      4.239      8.773
REMARK  Name = 
REMARK  12 active torsions:
REMARK  status: ('A' for Active; 'I' for Inactive)
REMARK    1  A    between atoms: C_1  and  O_2
REMARK    2  A    between atoms: O_2  and  C_3
REMARK    3  A    between atoms: C_6  and  C_7
REMARK    4  A    between atoms: C_7  and  N_8
REMARK    5  A    between atoms: N_8  and  C_9
REMARK    6  A    between atoms: C_9  and  C_10
REMARK    7  A    between atoms: C_10  and  C_11
REMARK    8  A    between atoms: C_11  and  C_12
REMARK    9  A    between atoms: C_11  and  C_19
REMARK   10  A    between atoms: C_23  and  C_24
REMARK   11  A    between atoms: C_23  and  C_25
REMARK   12  A    between atoms: C_27  and  C_29
REMARK                            x       y       z     vdW  Elec       q    Type
REMARK                         _______ _______ _______ _____ _____    ______ ____
ROOT
ATOM      1  C   UNL     1       1.564   9.900  18.758  0.00  0.00    +0.000 C 
ENDROOT
BRANCH   1   2
ATOM      2  N   UNL     1       1.946   8.516  19.034  0.00  0.00    +0.000 N 
ATOM      3  C   UNL     1       1.795   7.887  20.291  0.00  0.00    +0.000 C 
ATOM      4  O   UNL     1       2.427   6.856  20.546  0.00  0.00    +0.000 OA
BRANCH   3   5
ATOM      5  C   UNL     1       0.985   8.518  21.324  0.00  0.00    +0.000 A 
ATOM      6  C   UNL     1      -0.391   8.561  21.484  0.00  0.00    +0.000 A 
ATOM      7  C   UNL     1      -0.645   9.218  22.715  0.00  0.00    +0.000 A 
ATOM      8  C   UNL     1       0.585   9.586  23.207  0.00  0.00    +0.000 A 
ATOM      9  O   UNL     1       1.579   9.179  22.370  0.00  0.00    +0.000 OA
ENDBRANCH   3   5
BRANCH   2  10
ATOM     10  C   UNL     1       2.732   7.813  17.999  0.00  0.00    +0.000 C 
BRANCH  10  14
ATOM     11  C   UNL     1       2.773   3.511  17.678  0.00  0.00    +0.000 A 
ATOM     12  C   UNL     1       3.954   4.222  17.866  0.00  0.00    +0.000 A 
ATOM     13  C   UNL     1       3.919   5.607  18.022  0.00  0.00    +0.000 A 
ATOM     14  C   UNL     1       2.695   6.304  17.975  0.00  0.00    +0.000 A 
ATOM     15  C   UNL     1       1.512   5.574  17.894  0.00  0.00    +0.000 A 
ATOM     16  C   UNL     1       1.552   4.187  17.718  0.00  0.00    +0.000 A 
BRANCH  11  18
ATOM     17  C   UNL     1       3.516   1.424  18.528  0.00  0.00    +0.000 C 
ATOM     18  O   UNL     1       2.945   2.171  17.464  0.00  0.00    +0.000 OA
ENDBRANCH  11  18
ENDBRANCH  10  14
ENDBRANCH   2  10
ENDBRANCH   1   2
BRANCH   1  19
ATOM     19  C   UNL     1       0.111  10.206  18.409  0.00  0.00    +0.000 C 
BRANCH  19  20
ATOM     20  C   UNL     1      -0.517  11.594  18.601  0.00  0.00    +0.000 C 
BRANCH  20  21
ATOM     21  C   UNL     1      -0.361  12.515  19.885  0.00  0.00    +0.000 C 
ATOM     22  C   UNL     1       0.625  12.401  21.064  0.00  0.00    +0.000 C 
ATOM     23  C   UNL     1       1.990  13.116  20.990  0.00  0.00    +0.000 C 
ATOM     24  O   UNL     1       1.942  14.385  20.347  0.00  0.00    +0.000 OA
ATOM     25  C   UNL     1       1.257  14.349  19.084  0.00  0.00    +0.000 C 
ATOM     26  C   UNL     1       1.204  15.750  18.466  0.00  0.00    +0.000 C 
ATOM     27  C   UNL     1       2.061  13.457  18.120  0.00  0.00    +0.000 C 
ATOM     28  C   UNL     1      -0.198  13.970  19.405  0.00  0.00    +0.000 C 
ENDBRANCH  20  21
BRANCH  20  29
ATOM     29  C   UNL     1      -2.049  11.301  18.423  0.00  0.00    +0.000 A 
ATOM     30  C   UNL     1      -3.021  12.040  19.133  0.00  0.00    +0.000 A 
ATOM     31  C   UNL     1      -4.382  11.866  18.889  0.00  0.00    +0.000 A 
ATOM     32  C   UNL     1      -4.784  10.898  17.973  0.00  0.00    +0.000 A 
ATOM     33  F   UNL     1      -6.090  10.733  17.730  0.00  0.00    +0.000 F 
ATOM     34  C   UNL     1      -3.854  10.113  17.306  0.00  0.00    +0.000 A 
ATOM     35  C   UNL     1      -2.481  10.311  17.532  0.00  0.00    +0.000 A 
ENDBRANCH  20  29
ENDBRANCH  19  20
ENDBRANCH   1  19
TORSDOF 9
ENDMDL
MODEL 8
REMARK VINA RESULT:      -7.1      1.045      1.507
REMARK  Name = 
REMARK  12 active torsions:
REMARK  status: ('A' for Active; 'I' for Inactive)
REMARK    1  A    between atoms: C_1  and  O_2
REMARK    2  A    between atoms: O_2  and  C_3
REMARK    3  A    between atoms: C_6  and  C_7
REMARK    4  A    between atoms: C_7  and  N_8
REMARK    5  A    between atoms: N_8  and  C_9
REMARK    6  A    between atoms: C_9  and  C_10
REMARK    7  A    between atoms: C_10  and  C_11
REMARK    8  A    between atoms: C_11  and  C_12
REMARK    9  A    between atoms: C_11  and  C_19
REMARK   10  A    between atoms: C_23  and  C_24
REMARK   11  A    between atoms: C_23  and  C_25
REMARK   12  A    between atoms: C_27  and  C_29
REMARK                            x       y       z     vdW  Elec       q    Type
REMARK                         _______ _______ _______ _____ _____    ______ ____
ROOT
ATOM      1  C   UNL     1       5.695   7.007  17.265  0.00  0.00    +0.000 C 
ENDROOT
BRANCH   1   2
ATOM      2  N   UNL     1       6.973   6.340  17.504  0.00  0.00    +0.000 N 
ATOM      3  C   UNL     1       7.360   5.124  16.895  0.00  0.00    +0.000 C 
ATOM      4  O   UNL     1       8.280   4.456  17.379  0.00  0.00    +0.000 OA
BRANCH   3   5
ATOM      5  C   UNL     1       6.598   4.603  15.769  0.00  0.00    +0.000 A 
ATOM      6  C   UNL     1       6.623   4.957  14.428  0.00  0.00    +0.000 A 
ATOM      7  C   UNL     1       5.756   4.064  13.748  0.00  0.00    +0.000 A 
ATOM      8  C   UNL     1       5.211   3.255  14.717  0.00  0.00    +0.000 A 
ATOM      9  O   UNL     1       5.702   3.578  15.945  0.00  0.00    +0.000 OA
ENDBRANCH   3   5
BRANCH   2  10
ATOM     10  C   UNL     1       7.808   6.856  18.608  0.00  0.00    +0.000 C 
BRANCH  10  14
ATOM     11  C   UNL     1       9.113  10.956  18.279  0.00  0.00    +0.000 A 
ATOM     12  C   UNL     1       8.234  10.410  17.347  0.00  0.00    +0.000 A 
ATOM     13  C   UNL     1       7.780   9.101  17.497  0.00  0.00    +0.000 A 
ATOM     14  C   UNL     1       8.214   8.310  18.579  0.00  0.00    +0.000 A 
ATOM     15  C   UNL     1       9.007   8.898  19.563  0.00  0.00    +0.000 A 
ATOM     16  C   UNL     1       9.477  10.205  19.398  0.00  0.00    +0.000 A 
BRANCH  11  18
ATOM     17  C   UNL     1       8.552  13.235  17.936  0.00  0.00    +0.000 C 
ATOM     18  O   UNL     1       9.544  12.219  17.981  0.00  0.00    +0.000 OA
ENDBRANCH  11  18
ENDBRANCH  10  14
ENDBRANCH   2  10
ENDBRANCH   1   2
BRANCH   1  19
ATOM     19  C   UNL     1       4.462   6.153  16.983  0.00  0.00    +0.000 C 
BRANCH  19  20
ATOM     20  C   UNL     1       3.501   5.691  18.088  0.00  0.00    +0.000 C 
BRANCH  20  21
ATOM     21  C   UNL     1       2.418   4.537  17.957  0.00  0.00    +0.000 C 
ATOM     22  C   UNL     1       2.466   3.231  17.139  0.00  0.00    +0.000 C 
ATOM     23  C   UNL     1       3.037   1.950  17.781  0.00  0.00    +0.000 C 
ATOM     24  O   UNL     1       2.716   1.803  19.160  0.00  0.00    +0.000 OA
ATOM     25  C   UNL     1       2.988   2.986  19.929  0.00  0.00    +0.000 C 
ATOM     26  C   UNL     1       2.582   2.777  21.392  0.00  0.00    +0.000 C 
ATOM     27  C   UNL     1       4.507   3.240  19.911  0.00  0.00    +0.000 C 
ATOM     28  C   UNL     1       2.049   4.072  19.378  0.00  0.00    +0.000 C 
ENDBRANCH  20  21
BRANCH  20  29
ATOM     29  C   UNL     1       2.729   7.013  18.441  0.00  0.00    +0.000 A 
ATOM     30  C   UNL     1       2.261   7.258  19.750  0.00  0.00    +0.000 A 
ATOM     31  C   UNL     1       1.684   8.479  20.095  0.00  0.00    +0.000 A 
ATOM     32  C   UNL     1       1.512   9.445  19.108  0.00  0.00    +0.000 A 
ATOM     33  F   UNL     1       0.965  10.622  19.437  0.00  0.00    +0.000 F 
ATOM     34  C   UNL     1       1.905   9.210  17.798  0.00  0.00    +0.000 A 
ATOM     35  C   UNL     1       2.514   7.989  17.460  0.00  0.00    +0.000 A 
ENDBRANCH  20  29
ENDBRANCH  19  20
ENDBRANCH   1  19
TORSDOF 9
ENDMDL
MODEL 9
REMARK VINA RESULT:      -7.0      5.361      9.832
REMARK  Name = 
REMARK  12 active torsions:
REMARK  status: ('A' for Active; 'I' for Inactive)
REMARK    1  A    between atoms: C_1  and  O_2
REMARK    2  A    between atoms: O_2  and  C_3
REMARK    3  A    between atoms: C_6  and  C_7
REMARK    4  A    between atoms: C_7  and  N_8
REMARK    5  A    between atoms: N_8  and  C_9
REMARK    6  A    between atoms: C_9  and  C_10
REMARK    7  A    between atoms: C_10  and  C_11
REMARK    8  A    between atoms: C_11  and  C_12
REMARK    9  A    between atoms: C_11  and  C_19
REMARK   10  A    between atoms: C_23  and  C_24
REMARK   11  A    between atoms: C_23  and  C_25
REMARK   12  A    between atoms: C_27  and  C_29
REMARK                            x       y       z     vdW  Elec       q    Type
REMARK                         _______ _______ _______ _____ _____    ______ ____
ROOT
ATOM      1  C   UNL     1       0.359  11.592  20.578  0.00  0.00    +0.000 C 
ENDROOT
BRANCH   1   2
ATOM      2  N   UNL     1       1.250  11.515  19.422  0.00  0.00    +0.000 N 
ATOM      3  C   UNL     1       2.135  12.547  19.032  0.00  0.00    +0.000 C 
ATOM      4  O   UNL     1       2.602  12.560  17.888  0.00  0.00    +0.000 OA
BRANCH   3   5
ATOM      5  C   UNL     1       2.401  13.655  19.938  0.00  0.00    +0.000 A 
ATOM      6  C   UNL     1       2.009  14.983  19.871  0.00  0.00    +0.000 A 
ATOM      7  C   UNL     1       2.453  15.607  21.065  0.00  0.00    +0.000 A 
ATOM      8  C   UNL     1       3.136  14.640  21.765  0.00  0.00    +0.000 A 
ATOM      9  O   UNL     1       3.123  13.458  21.089  0.00  0.00    +0.000 OA
ENDBRANCH   3   5
BRANCH   2  10
ATOM     10  C   UNL     1       1.053  10.385  18.491  0.00  0.00    +0.000 C 
BRANCH  10  14
ATOM     11  C   UNL     1       2.752   6.487  19.227  0.00  0.00    +0.000 A 
ATOM     12  C   UNL     1       3.002   7.160  18.035  0.00  0.00    +0.000 A 
ATOM     13  C   UNL     1       2.489   8.441  17.834  0.00  0.00    +0.000 A 
ATOM     14  C   UNL     1       1.703   9.063  18.823  0.00  0.00    +0.000 A 
ATOM     15  C   UNL     1       1.549   8.427  20.053  0.00  0.00    +0.000 A 
ATOM     16  C   UNL     1       2.046   7.134  20.244  0.00  0.00    +0.000 A 
BRANCH  11  18
ATOM     17  C   UNL     1       3.469   4.571  18.025  0.00  0.00    +0.000 C 
ATOM     18  O   UNL     1       3.243   5.212  19.273  0.00  0.00    +0.000 OA
ENDBRANCH  11  18
ENDBRANCH  10  14
ENDBRANCH   2  10
ENDBRANCH   1   2
BRANCH   1  19
ATOM     19  C   UNL     1      -1.119  11.264  20.389  0.00  0.00    +0.000 C 
BRANCH  19  20
ATOM     20  C   UNL     1      -2.161  12.320  19.991  0.00  0.00    +0.000 C 
BRANCH  20  21
ATOM     21  C   UNL     1      -3.369  12.821  20.891  0.00  0.00    +0.000 C 
ATOM     22  C   UNL     1      -3.692  12.511  22.366  0.00  0.00    +0.000 C 
ATOM     23  C   UNL     1      -3.129  13.420  23.478  0.00  0.00    +0.000 C 
ATOM     24  O   UNL     1      -3.093  14.800  23.131  0.00  0.00    +0.000 OA
ATOM     25  C   UNL     1      -2.491  15.042  21.849  0.00  0.00    +0.000 C 
ATOM     26  C   UNL     1      -2.523  16.537  21.518  0.00  0.00    +0.000 C 
ATOM     27  C   UNL     1      -1.011  14.623  21.920  0.00  0.00    +0.000 C 
ATOM     28  C   UNL     1      -3.406  14.359  20.818  0.00  0.00    +0.000 C 
ENDBRANCH  20  21
BRANCH  20  29
ATOM     29  C   UNL     1      -2.779  11.709  18.683  0.00  0.00    +0.000 A 
ATOM     30  C   UNL     1      -4.107  11.998  18.299  0.00  0.00    +0.000 A 
ATOM     31  C   UNL     1      -4.619  11.557  17.079  0.00  0.00    +0.000 A 
ATOM     32  C   UNL     1      -3.820  10.763  16.261  0.00  0.00    +0.000 A 
ATOM     33  F   UNL     1      -4.306  10.344  15.086  0.00  0.00    +0.000 F 
ATOM     34  C   UNL     1      -2.532  10.411  16.640  0.00  0.00    +0.000 A 
ATOM     35  C   UNL     1      -2.009  10.882  17.856  0.00  0.00    +0.000 A 
ENDBRANCH  20  29
ENDBRANCH  19  20
ENDBRANCH   1  19
TORSDOF 9
ENDMDL
