MODEL 1
REMARK VINA RESULT:      -6.4      0.000      0.000
REMARK  Name = 
REMARK  8 active torsions:
REMARK  status: ('A' for Active; 'I' for Inactive)
REMARK    1  A    between atoms: C_1  and  C_2
REMARK    2  A    between atoms: C_2  and  C_3
REMARK    3  A    between atoms: C_2  and  N_4
REMARK    4  A    between atoms: N_10  and  C_11
REMARK    5  A    between atoms: C_11  and  C_12
REMARK    6  A    between atoms: C_19  and  C_20
REMARK    7  A    between atoms: C_19  and  C_21
REMARK    8  A    between atoms: C_21  and  O_22
REMARK                            x       y       z     vdW  Elec       q    Type
REMARK                         _______ _______ _______ _____ _____    ______ ____
ROOT
ATOM      1  N   UNL     1       6.660   6.053  16.845  0.00  0.00    +0.000 NA
ATOM      2  C   UNL     1       6.154   4.803  16.235  0.00  0.00    +0.000 C 
ATOM      3  C   UNL     1       4.907   4.182  16.917  0.00  0.00    +0.000 C 
ATOM      4  N   UNL     1       3.855   5.120  17.315  0.00  0.00    +0.000 NA
ATOM      5  C   UNL     1       4.315   6.464  17.730  0.00  0.00    +0.000 C 
ATOM      6  C   UNL     1       3.122   7.469  17.673  0.00  0.00    +0.000 C 
ATOM      7  N   UNL     1       1.948   7.077  18.495  0.00  0.00    +0.000 NA
ATOM      8  C   UNL     1       1.619   5.659  18.212  0.00  0.00    +0.000 C 
ATOM      9  C   UNL     1       2.774   4.594  18.201  0.00  0.00    +0.000 C 
ATOM     10  C   UNL     1       3.272   4.294  19.637  0.00  0.00    +0.000 C 
ATOM     11  C   UNL     1       5.502   6.982  16.874  0.00  0.00    +0.000 C 
ENDROOT
BRANCH   1  13
ATOM     12  C   UNL     1       8.178   4.563  18.152  0.00  0.00    +0.000 C 
ATOM     13  C   UNL     1       7.297   5.823  18.169  0.00  0.00    +0.000 C 
ATOM     14  C   UNL     1       8.197   6.990  18.613  0.00  0.00    +0.000 C 
ENDBRANCH   1  13
BRANCH   7  15
ATOM     15  C   UNL     1       2.153   7.444  19.905  0.00  0.00    +0.000 C 
BRANCH  15  16
ATOM     16  C   UNL     1       1.281   8.530  20.497  0.00  0.00    +0.000 A 
ATOM     17  C   UNL     1       1.087   8.555  21.892  0.00  0.00    +0.000 A 
ATOM     18  C   UNL     1       0.307   9.546  22.495  0.00  0.00    +0.000 A 
ATOM     19  C   UNL     1      -0.295  10.528  21.706  0.00  0.00    +0.000 A 
ATOM     20  C   UNL     1      -0.092  10.529  20.326  0.00  0.00    +0.000 A 
ATOM     21  C   UNL     1       0.704   9.551  19.733  0.00  0.00    +0.000 A 
ENDBRANCH  15  16
ENDBRANCH   7  15
BRANCH   9  22
ATOM     22  C   UNL     1       2.178   3.263  17.637  0.00  0.00    +0.000 C 
BRANCH  22  23
ATOM     23  O   UNL     1       0.912   2.921  18.206  0.00  0.00    +0.000 OA
ATOM     24  H   UNL     1       0.904   3.225  19.128  0.00  0.00    +0.000 HD
ENDBRANCH  22  23
ENDBRANCH   9  22
TORSDOF 5
ENDMDL
MODEL 2
REMARK VINA RESULT:      -6.4      3.233      6.326
REMARK  Name = 
REMARK  8 active torsions:
REMARK  status: ('A' for Active; 'I' for Inactive)
REMARK    1  A    between atoms: C_1  and  C_2
REMARK    2  A    between atoms: C_2  and  C_3
REMARK    3  A    between atoms: C_2  and  N_4
REMARK    4  A    between atoms: N_10  and  C_11
REMARK    5  A    between atoms: C_11  and  C_12
REMARK    6  A    between atoms: C_19  and  C_20
REMARK    7  A    between atoms: C_19  and  C_21
REMARK    8  A    between atoms: C_21  and  O_22
REMARK                            x       y       z     vdW  Elec       q    Type
REMARK                         _______ _______ _______ _____ _____    ______ ____
ROOT
ATOM      1  N   UNL     1       3.827   4.064  19.235  0.00  0.00    +0.000 NA
ATOM      2  C   UNL     1       4.040   3.129  18.107  0.00  0.00    +0.000 C 
ATOM      3  C   UNL     1       4.677   3.748  16.836  0.00  0.00    +0.000 C 
ATOM      4  N   UNL     1       5.786   4.679  17.057  0.00  0.00    +0.000 NA
ATOM      5  C   UNL     1       5.713   5.484  18.296  0.00  0.00    +0.000 C 
ATOM      6  C   UNL     1       7.124   6.059  18.634  0.00  0.00    +0.000 C 
ATOM      7  N   UNL     1       7.729   6.879  17.552  0.00  0.00    +0.000 NA
ATOM      8  C   UNL     1       7.617   6.138  16.272  0.00  0.00    +0.000 C 
ATOM      9  C   UNL     1       6.241   5.485  15.885  0.00  0.00    +0.000 C 
ATOM     10  C   UNL     1       5.209   6.563  15.466  0.00  0.00    +0.000 C 
ATOM     11  C   UNL     1       5.152   4.680  19.500  0.00  0.00    +0.000 C 
ENDROOT
BRANCH   1  13
ATOM     12  C   UNL     1       1.603   4.399  18.152  0.00  0.00    +0.000 C 
ATOM     13  C   UNL     1       2.738   5.040  18.968  0.00  0.00    +0.000 C 
ATOM     14  C   UNL     1       2.102   5.598  20.254  0.00  0.00    +0.000 C 
ENDBRANCH   1  13
BRANCH   7  15
ATOM     15  C   UNL     1       7.195   8.249  17.577  0.00  0.00    +0.000 C 
BRANCH  15  16
ATOM     16  C   UNL     1       8.098   9.361  18.064  0.00  0.00    +0.000 A 
ATOM     17  C   UNL     1       8.018  10.621  17.439  0.00  0.00    +0.000 A 
ATOM     18  C   UNL     1       8.815  11.689  17.859  0.00  0.00    +0.000 A 
ATOM     19  C   UNL     1       9.710  11.510  18.916  0.00  0.00    +0.000 A 
ATOM     20  C   UNL     1       9.784  10.274  19.560  0.00  0.00    +0.000 A 
ATOM     21  C   UNL     1       8.972   9.219  19.150  0.00  0.00    +0.000 A 
ENDBRANCH  15  16
ENDBRANCH   7  15
BRANCH   9  22
ATOM     22  C   UNL     1       6.488   4.578  14.636  0.00  0.00    +0.000 C 
BRANCH  22  23
ATOM     23  O   UNL     1       7.359   5.169  13.668  0.00  0.00    +0.000 OA
ATOM     24  H   UNL     1       8.143   5.503  14.132  0.00  0.00    +0.000 HD
ENDBRANCH  22  23
ENDBRANCH   9  22
TORSDOF 5
ENDMDL
MODEL 3
REMARK VINA RESULT:      -6.3      0.367      1.069
REMARK  Name = 
REMARK  8 active torsions:
REMARK  status: ('A' for Active; 'I' for Inactive)
REMARK    1  A    between atoms: C_1  and  C_2
REMARK    2  A    between atoms: C_2  and  C_3
REMARK    3  A    between atoms: C_2  and  N_4
REMARK    4  A    between atoms: N_10  and  C_11
REMARK    5  A    between atoms: C_11  and  C_12
REMARK    6  A    between atoms: C_19  and  C_20
REMARK    7  A    between atoms: C_19  and  C_21
REMARK    8  A    between atoms: C_21  and  O_22
REMARK                            x       y       z     vdW  Elec       q    Type
REMARK                         _______ _______ _______ _____ _____    ______ ____
ROOT
ATOM      1  N   UNL     1       6.658   5.984  16.806  0.00  0.00    +0.000 NA
ATOM      2  C   UNL     1       6.139   4.741  16.193  0.00  0.00    +0.000 C 
ATOM      3  C   UNL     1       4.894   4.124  16.883  0.00  0.00    +0.000 C 
ATOM      4  N   UNL     1       3.851   5.065  17.295  0.00  0.00    +0.000 NA
ATOM      5  C   UNL     1       4.323   6.405  17.713  0.00  0.00    +0.000 C 
ATOM      6  C   UNL     1       3.135   7.417  17.672  0.00  0.00    +0.000 C 
ATOM      7  N   UNL     1       1.966   7.028  18.503  0.00  0.00    +0.000 NA
ATOM      8  C   UNL     1       1.626   5.612  18.215  0.00  0.00    +0.000 C 
ATOM      9  C   UNL     1       2.775   4.541  18.188  0.00  0.00    +0.000 C 
ATOM     10  C   UNL     1       3.284   4.231  19.618  0.00  0.00    +0.000 C 
ATOM     11  C   UNL     1       5.505   6.920  16.850  0.00  0.00    +0.000 C 
ENDROOT
BRANCH   1  13
ATOM     12  C   UNL     1       8.218   4.508  18.077  0.00  0.00    +0.000 C 
ATOM     13  C   UNL     1       7.305   5.744  18.123  0.00  0.00    +0.000 C 
ATOM     14  C   UNL     1       8.175   6.925  18.589  0.00  0.00    +0.000 C 
ENDBRANCH   1  13
BRANCH   7  15
ATOM     15  C   UNL     1       2.186   7.386  19.912  0.00  0.00    +0.000 C 
BRANCH  15  16
ATOM     16  C   UNL     1       1.350   8.497  20.508  0.00  0.00    +0.000 A 
ATOM     17  C   UNL     1       0.825   9.483  19.651  0.00  0.00    +0.000 A 
ATOM     18  C   UNL     1       0.031  10.522  20.144  0.00  0.00    +0.000 A 
ATOM     19  C   UNL     1      -0.250  10.589  21.510  0.00  0.00    +0.000 A 
ATOM     20  C   UNL     1       0.244   9.606  22.368  0.00  0.00    +0.000 A 
ATOM     21  C   UNL     1       1.018   8.561  21.867  0.00  0.00    +0.000 A 
ENDBRANCH  15  16
ENDBRANCH   7  15
BRANCH   9  22
ATOM     22  C   UNL     1       2.166   3.217  17.622  0.00  0.00    +0.000 C 
BRANCH  22  23
ATOM     23  O   UNL     1       2.360   2.090  18.480  0.00  0.00    +0.000 OA
ATOM     24  H   UNL     1       2.959   1.470  18.033  0.00  0.00    +0.000 HD
ENDBRANCH  22  23
ENDBRANCH   9  22
TORSDOF 5
ENDMDL
MODEL 4
REMARK VINA RESULT:      -6.2      3.302      6.262
REMARK  Name = 
REMARK  8 active torsions:
REMARK  status: ('A' for Active; 'I' for Inactive)
REMARK    1  A    between atoms: C_1  and  C_2
REMARK    2  A    between atoms: C_2  and  C_3
REMARK    3  A    between atoms: C_2  and  N_4
REMARK    4  A    between atoms: N_10  and  C_11
REMARK    5  A    between atoms: C_11  and  C_12
REMARK    6  A    between atoms: C_19  and  C_20
REMARK    7  A    between atoms: C_19  and  C_21
REMARK    8  A    between atoms: C_21  and  O_22
REMARK                            x       y       z     vdW  Elec       q    Type
REMARK                         _______ _______ _______ _____ _____    ______ ____
ROOT
ATOM      1  N   UNL     1       3.850   3.987  19.177  0.00  0.00    +0.000 NA
ATOM      2  C   UNL     1       4.109   3.090  18.028  0.00  0.00    +0.000 C 
ATOM      3  C   UNL     1       4.744   3.763  16.784  0.00  0.00    +0.000 C 
ATOM      4  N   UNL     1       5.820   4.722  17.047  0.00  0.00    +0.000 NA
ATOM      5  C   UNL     1       5.703   5.489  18.306  0.00  0.00    +0.000 C 
ATOM      6  C   UNL     1       7.091   6.099  18.681  0.00  0.00    +0.000 C 
ATOM      7  N   UNL     1       7.685   6.966  17.632  0.00  0.00    +0.000 NA
ATOM      8  C   UNL     1       7.615   6.257  16.330  0.00  0.00    +0.000 C 
ATOM      9  C   UNL     1       6.267   5.573  15.904  0.00  0.00    +0.000 C 
ATOM     10  C   UNL     1       5.208   6.629  15.498  0.00  0.00    +0.000 C 
ATOM     11  C   UNL     1       5.151   4.637  19.479  0.00  0.00    +0.000 C 
ENDROOT
BRANCH   1  13
ATOM     12  C   UNL     1       1.612   4.269  18.107  0.00  0.00    +0.000 C 
ATOM     13  C   UNL     1       2.735   4.936  18.919  0.00  0.00    +0.000 C 
ATOM     14  C   UNL     1       2.092   5.472  20.211  0.00  0.00    +0.000 C 
ENDBRANCH   1  13
BRANCH   7  15
ATOM     15  C   UNL     1       7.109   8.318  17.685  0.00  0.00    +0.000 C 
BRANCH  15  16
ATOM     16  C   UNL     1       8.010   9.467  18.084  0.00  0.00    +0.000 A 
ATOM     17  C   UNL     1       8.960   9.259  19.101  0.00  0.00    +0.000 A 
ATOM     18  C   UNL     1       9.831  10.278  19.497  0.00  0.00    +0.000 A 
ATOM     19  C   UNL     1       9.760  11.527  18.878  0.00  0.00    +0.000 A 
ATOM     20  C   UNL     1       8.838  11.741  17.852  0.00  0.00    +0.000 A 
ATOM     21  C   UNL     1       7.988  10.714  17.448  0.00  0.00    +0.000 A 
ENDBRANCH  15  16
ENDBRANCH   7  15
BRANCH   9  22
ATOM     22  C   UNL     1       6.561   4.709  14.635  0.00  0.00    +0.000 C 
BRANCH  22  23
ATOM     23  O   UNL     1       7.654   5.198  13.855  0.00  0.00    +0.000 OA
ATOM     24  H   UNL     1       8.021   5.976  14.305  0.00  0.00    +0.000 HD
ENDBRANCH  22  23
ENDBRANCH   9  22
TORSDOF 5
ENDMDL
MODEL 5
REMARK VINA RESULT:      -6.2      3.832      7.756
REMARK  Name = 
REMARK  8 active torsions:
REMARK  status: ('A' for Active; 'I' for Inactive)
REMARK    1  A    between atoms: C_1  and  C_2
REMARK    2  A    between atoms: C_2  and  C_3
REMARK    3  A    between atoms: C_2  and  N_4
REMARK    4  A    between atoms: N_10  and  C_11
REMARK    5  A    between atoms: C_11  and  C_12
REMARK    6  A    between atoms: C_19  and  C_20
REMARK    7  A    between atoms: C_19  and  C_21
REMARK    8  A    between atoms: C_21  and  O_22
REMARK                            x       y       z     vdW  Elec       q    Type
REMARK                         _______ _______ _______ _____ _____    ______ ____
ROOT
ATOM      1  N   UNL     1       3.278   4.168  18.848  0.00  0.00    +0.000 NA
ATOM      2  C   UNL     1       3.924   5.187  19.707  0.00  0.00    +0.000 C 
ATOM      3  C   UNL     1       5.382   5.554  19.329  0.00  0.00    +0.000 C 
ATOM      4  N   UNL     1       5.657   5.718  17.900  0.00  0.00    +0.000 NA
ATOM      5  C   UNL     1       4.867   4.859  16.990  0.00  0.00    +0.000 C 
ATOM      6  C   UNL     1       4.911   5.444  15.544  0.00  0.00    +0.000 C 
ATOM      7  N   UNL     1       6.279   5.615  14.990  0.00  0.00    +0.000 NA
ATOM      8  C   UNL     1       7.119   6.308  15.999  0.00  0.00    +0.000 C 
ATOM      9  C   UNL     1       7.090   5.809  17.488  0.00  0.00    +0.000 C 
ATOM     10  C   UNL     1       7.842   4.463  17.642  0.00  0.00    +0.000 C 
ATOM     11  C   UNL     1       3.398   4.681  17.459  0.00  0.00    +0.000 C 
ENDROOT
BRANCH   1  13
ATOM     12  C   UNL     1       3.667   2.343  20.506  0.00  0.00    +0.000 C 
ATOM     13  C   UNL     1       3.845   2.809  19.051  0.00  0.00    +0.000 C 
ATOM     14  C   UNL     1       3.187   1.743  18.158  0.00  0.00    +0.000 C 
ENDBRANCH   1  13
BRANCH   7  15
ATOM     15  C   UNL     1       6.790   4.342  14.460  0.00  0.00    +0.000 C 
BRANCH  15  16
ATOM     16  C   UNL     1       6.108   3.746  13.248  0.00  0.00    +0.000 A 
ATOM     17  C   UNL     1       6.816   2.816  12.462  0.00  0.00    +0.000 A 
ATOM     18  C   UNL     1       6.230   2.220  11.343  0.00  0.00    +0.000 A 
ATOM     19  C   UNL     1       4.920   2.548  10.992  0.00  0.00    +0.000 A 
ATOM     20  C   UNL     1       4.197   3.450  11.774  0.00  0.00    +0.000 A 
ATOM     21  C   UNL     1       4.780   4.025  12.901  0.00  0.00    +0.000 A 
ENDBRANCH  15  16
ENDBRANCH   7  15
BRANCH   9  22
ATOM     22  C   UNL     1       7.860   6.863  18.349  0.00  0.00    +0.000 C 
BRANCH  22  23
ATOM     23  O   UNL     1       7.885   8.167  17.763  0.00  0.00    +0.000 OA
ATOM     24  H   UNL     1       8.188   8.795  18.438  0.00  0.00    +0.000 HD
ENDBRANCH  22  23
ENDBRANCH   9  22
TORSDOF 5
ENDMDL
MODEL 6
REMARK VINA RESULT:      -6.1      3.776      7.767
REMARK  Name = 
REMARK  8 active torsions:
REMARK  status: ('A' for Active; 'I' for Inactive)
REMARK    1  A    between atoms: C_1  and  C_2
REMARK    2  A    between atoms: C_2  and  C_3
REMARK    3  A    between atoms: C_2  and  N_4
REMARK    4  A    between atoms: N_10  and  C_11
REMARK    5  A    between atoms: C_11  and  C_12
REMARK    6  A    between atoms: C_19  and  C_20
REMARK    7  A    between atoms: C_19  and  C_21
REMARK    8  A    between atoms: C_21  and  O_22
REMARK                            x       y       z     vdW  Elec       q    Type
REMARK                         _______ _______ _______ _____ _____    ______ ____
ROOT
ATOM      1  N   UNL     1       3.200   4.138  18.818  0.00  0.00    +0.000 NA
ATOM      2  C   UNL     1       3.813   5.191  19.659  0.00  0.00    +0.000 C 
ATOM      3  C   UNL     1       5.272   5.573  19.296  0.00  0.00    +0.000 C 
ATOM      4  N   UNL     1       5.570   5.701  17.868  0.00  0.00    +0.000 NA
ATOM      5  C   UNL     1       4.810   4.804  16.970  0.00  0.00    +0.000 C 
ATOM      6  C   UNL     1       4.871   5.350  15.508  0.00  0.00    +0.000 C 
ATOM      7  N   UNL     1       6.246   5.529  14.974  0.00  0.00    +0.000 NA
ATOM      8  C   UNL     1       7.055   6.263  15.978  0.00  0.00    +0.000 C 
ATOM      9  C   UNL     1       7.009   5.806  17.480  0.00  0.00    +0.000 C 
ATOM     10  C   UNL     1       7.779   4.477  17.685  0.00  0.00    +0.000 C 
ATOM     11  C   UNL     1       3.337   4.614  17.418  0.00  0.00    +0.000 C 
ENDROOT
BRANCH   1  13
ATOM     12  C   UNL     1       3.596   2.371  20.535  0.00  0.00    +0.000 C 
ATOM     13  C   UNL     1       3.786   2.795  19.070  0.00  0.00    +0.000 C 
ATOM     14  C   UNL     1       3.156   1.692  18.201  0.00  0.00    +0.000 C 
ENDBRANCH   1  13
BRANCH   7  15
ATOM     15  C   UNL     1       6.787   4.250  14.489  0.00  0.00    +0.000 C 
BRANCH  15  16
ATOM     16  C   UNL     1       6.160   3.626  13.262  0.00  0.00    +0.000 A 
ATOM     17  C   UNL     1       4.829   3.955  12.940  0.00  0.00    +0.000 A 
ATOM     18  C   UNL     1       4.206   3.423  11.808  0.00  0.00    +0.000 A 
ATOM     19  C   UNL     1       4.910   2.548  10.978  0.00  0.00    +0.000 A 
ATOM     20  C   UNL     1       6.237   2.231  11.271  0.00  0.00    +0.000 A 
ATOM     21  C   UNL     1       6.859   2.782  12.390  0.00  0.00    +0.000 A 
ENDBRANCH  15  16
ENDBRANCH   7  15
BRANCH   9  22
ATOM     22  C   UNL     1       7.745   6.896  18.324  0.00  0.00    +0.000 C 
BRANCH  22  23
ATOM     23  O   UNL     1       8.483   6.361  19.425  0.00  0.00    +0.000 OA
ATOM     24  H   UNL     1       8.644   5.419  19.250  0.00  0.00    +0.000 HD
ENDBRANCH  22  23
ENDBRANCH   9  22
TORSDOF 5
ENDMDL
MODEL 7
REMARK VINA RESULT:      -5.9      0.858      1.034
REMARK  Name = 
REMARK  8 active torsions:
REMARK  status: ('A' for Active; 'I' for Inactive)
REMARK    1  A    between atoms: C_1  and  C_2
REMARK    2  A    between atoms: C_2  and  C_3
REMARK    3  A    between atoms: C_2  and  N_4
REMARK    4  A    between atoms: N_10  and  C_11
REMARK    5  A    between atoms: C_11  and  C_12
REMARK    6  A    between atoms: C_19  and  C_20
REMARK    7  A    between atoms: C_19  and  C_21
REMARK    8  A    between atoms: C_21  and  O_22
REMARK                            x       y       z     vdW  Elec       q    Type
REMARK                         _______ _______ _______ _____ _____    ______ ____
ROOT
ATOM      1  N   UNL     1       6.933   6.098  17.089  0.00  0.00    +0.000 NA
ATOM      2  C   UNL     1       6.541   4.689  16.861  0.00  0.00    +0.000 C 
ATOM      3  C   UNL     1       5.265   4.220  17.608  0.00  0.00    +0.000 C 
ATOM      4  N   UNL     1       4.141   5.157  17.617  0.00  0.00    +0.000 NA
ATOM      5  C   UNL     1       4.500   6.593  17.627  0.00  0.00    +0.000 C 
ATOM      6  C   UNL     1       3.274   7.446  17.173  0.00  0.00    +0.000 C 
ATOM      7  N   UNL     1       2.048   7.242  17.988  0.00  0.00    +0.000 NA
ATOM      8  C   UNL     1       1.810   5.785  18.135  0.00  0.00    +0.000 C 
ATOM      9  C   UNL     1       3.007   4.851  18.540  0.00  0.00    +0.000 C 
ATOM     10  C   UNL     1       3.384   5.041  20.030  0.00  0.00    +0.000 C 
ATOM     11  C   UNL     1       5.737   6.907  16.743  0.00  0.00    +0.000 C 
ENDROOT
BRANCH   1  13
ATOM     12  C   UNL     1       8.318   5.148  18.936  0.00  0.00    +0.000 C 
ATOM     13  C   UNL     1       7.455   6.329  18.462  0.00  0.00    +0.000 C 
ATOM     14  C   UNL     1       8.329   7.591  18.567  0.00  0.00    +0.000 C 
ENDBRANCH   1  13
BRANCH   7  15
ATOM     15  C   UNL     1       2.106   8.035  19.225  0.00  0.00    +0.000 C 
BRANCH  15  16
ATOM     16  C   UNL     1       1.061   9.107  19.438  0.00  0.00    +0.000 A 
ATOM     17  C   UNL     1       0.625   9.377  20.750  0.00  0.00    +0.000 A 
ATOM     18  C   UNL     1      -0.324  10.369  21.008  0.00  0.00    +0.000 A 
ATOM     19  C   UNL     1      -0.856  11.109  19.950  0.00  0.00    +0.000 A 
ATOM     20  C   UNL     1      -0.417  10.869  18.647  0.00  0.00    +0.000 A 
ATOM     21  C   UNL     1       0.545   9.893  18.399  0.00  0.00    +0.000 A 
ENDBRANCH  15  16
ENDBRANCH   7  15
BRANCH   9  22
ATOM     22  C   UNL     1       2.525   3.374  18.374  0.00  0.00    +0.000 C 
BRANCH  22  23
ATOM     23  O   UNL     1       1.998   3.090  17.076  0.00  0.00    +0.000 OA
ATOM     24  H   UNL     1       2.663   2.580  16.585  0.00  0.00    +0.000 HD
ENDBRANCH  22  23
ENDBRANCH   9  22
TORSDOF 5
ENDMDL
MODEL 8
REMARK VINA RESULT:      -5.8      1.028      1.486
REMARK  Name = 
REMARK  8 active torsions:
REMARK  status: ('A' for Active; 'I' for Inactive)
REMARK    1  A    between atoms: C_1  and  C_2
REMARK    2  A    between atoms: C_2  and  C_3
REMARK    3  A    between atoms: C_2  and  N_4
REMARK    4  A    between atoms: N_10  and  C_11
REMARK    5  A    between atoms: C_11  and  C_12
REMARK    6  A    between atoms: C_19  and  C_20
REMARK    7  A    between atoms: C_19  and  C_21
REMARK    8  A    between atoms: C_21  and  O_22
REMARK                            x       y       z     vdW  Elec       q    Type
REMARK                         _______ _______ _______ _____ _____    ______ ____
ROOT
ATOM      1  N   UNL     1       6.193   6.600  16.556  0.00  0.00    +0.000 NA
ATOM      2  C   UNL     1       6.210   5.192  16.097  0.00  0.00    +0.000 C 
ATOM      3  C   UNL     1       5.454   4.184  17.002  0.00  0.00    +0.000 C 
ATOM      4  N   UNL     1       4.158   4.627  17.520  0.00  0.00    +0.000 NA
ATOM      5  C   UNL     1       4.034   6.077  17.788  0.00  0.00    +0.000 C 
ATOM      6  C   UNL     1       2.526   6.470  17.877  0.00  0.00    +0.000 C 
ATOM      7  N   UNL     1       1.753   5.714  18.897  0.00  0.00    +0.000 NA
ATOM      8  C   UNL     1       2.042   4.268  18.740  0.00  0.00    +0.000 C 
ATOM      9  C   UNL     1       3.534   3.798  18.593  0.00  0.00    +0.000 C 
ATOM     10  C   UNL     1       4.289   3.903  19.942  0.00  0.00    +0.000 C 
ATOM     11  C   UNL     1       4.760   6.948  16.728  0.00  0.00    +0.000 C 
ENDROOT
BRANCH   1  13
ATOM     12  C   UNL     1       7.891   5.579  18.076  0.00  0.00    +0.000 C 
ATOM     13  C   UNL     1       7.027   6.814  17.769  0.00  0.00    +0.000 C 
ATOM     14  C   UNL     1       7.988   8.008  17.634  0.00  0.00    +0.000 C 
ENDBRANCH   1  13
BRANCH   7  15
ATOM     15  C   UNL     1       1.953   6.291  20.235  0.00  0.00    +0.000 C 
BRANCH  15  16
ATOM     16  C   UNL     1       1.480   7.707  20.483  0.00  0.00    +0.000 A 
ATOM     17  C   UNL     1       1.449   8.609  19.401  0.00  0.00    +0.000 A 
ATOM     18  C   UNL     1       1.004   9.923  19.568  0.00  0.00    +0.000 A 
ATOM     19  C   UNL     1       0.584  10.356  20.827  0.00  0.00    +0.000 A 
ATOM     20  C   UNL     1       0.588   9.468  21.903  0.00  0.00    +0.000 A 
ATOM     21  C   UNL     1       1.013   8.153  21.725  0.00  0.00    +0.000 A 
ENDBRANCH  15  16
ENDBRANCH   7  15
BRANCH   9  22
ATOM     22  C   UNL     1       3.512   2.285  18.199  0.00  0.00    +0.000 C 
BRANCH  22  23
ATOM     23  O   UNL     1       2.255   1.854  17.672  0.00  0.00    +0.000 OA
ATOM     24  H   UNL     1       2.233   0.883  17.700  0.00  0.00    +0.000 HD
ENDBRANCH  22  23
ENDBRANCH   9  22
TORSDOF 5
ENDMDL
MODEL 9
REMARK VINA RESULT:      -5.8      1.205      1.439
REMARK  Name = 
REMARK  8 active torsions:
REMARK  status: ('A' for Active; 'I' for Inactive)
REMARK    1  A    between atoms: C_1  and  C_2
REMARK    2  A    between atoms: C_2  and  C_3
REMARK    3  A    between atoms: C_2  and  N_4
REMARK    4  A    between atoms: N_10  and  C_11
REMARK    5  A    between atoms: C_11  and  C_12
REMARK    6  A    between atoms: C_19  and  C_20
REMARK    7  A    between atoms: C_19  and  C_21
REMARK    8  A    between atoms: C_21  and  O_22
REMARK                            x       y       z     vdW  Elec       q    Type
REMARK                         _______ _______ _______ _____ _____    ______ ____
ROOT
ATOM      1  N   UNL     1       6.526   5.827  15.710  0.00  0.00    +0.000 NA
ATOM      2  C   UNL     1       6.221   4.417  15.380  0.00  0.00    +0.000 C 
ATOM      3  C   UNL     1       5.337   3.664  16.408  0.00  0.00    +0.000 C 
ATOM      4  N   UNL     1       4.198   4.410  16.948  0.00  0.00    +0.000 NA
ATOM      5  C   UNL     1       4.395   5.870  17.091  0.00  0.00    +0.000 C 
ATOM      6  C   UNL     1       3.009   6.577  17.219  0.00  0.00    +0.000 C 
ATOM      7  N   UNL     1       2.168   6.083  18.340  0.00  0.00    +0.000 NA
ATOM      8  C   UNL     1       2.141   4.600  18.300  0.00  0.00    +0.000 C 
ATOM      9  C   UNL     1       3.490   3.816  18.121  0.00  0.00    +0.000 C 
ATOM     10  C   UNL     1       4.340   3.864  19.416  0.00  0.00    +0.000 C 
ATOM     11  C   UNL     1       5.210   6.482  15.922  0.00  0.00    +0.000 C 
ENDROOT
BRANCH   1  13
ATOM     12  C   UNL     1       7.015   7.058  17.826  0.00  0.00    +0.000 C 
ATOM     13  C   UNL     1       7.466   5.953  16.856  0.00  0.00    +0.000 C 
ATOM     14  C   UNL     1       7.587   4.658  17.679  0.00  0.00    +0.000 C 
ENDBRANCH   1  13
BRANCH   7  15
ATOM     15  C   UNL     1       2.572   6.707  19.609  0.00  0.00    +0.000 C 
BRANCH  15  16
ATOM     16  C   UNL     1       1.788   7.903  20.102  0.00  0.00    +0.000 A 
ATOM     17  C   UNL     1       1.384   7.939  21.450  0.00  0.00    +0.000 A 
ATOM     18  C   UNL     1       0.674   9.027  21.964  0.00  0.00    +0.000 A 
ATOM     19  C   UNL     1       0.354  10.100  21.130  0.00  0.00    +0.000 A 
ATOM     20  C   UNL     1       0.768  10.089  19.797  0.00  0.00    +0.000 A 
ATOM     21  C   UNL     1       1.494   9.011  19.297  0.00  0.00    +0.000 A 
ENDBRANCH  15  16
ENDBRANCH   7  15
BRANCH   9  22
ATOM     22  C   UNL     1       3.130   2.317  17.866  0.00  0.00    +0.000 C 
BRANCH  22  23
ATOM     23  O   UNL     1       3.960   1.402  18.586  0.00  0.00    +0.000 OA
ATOM     24  H   UNL     1       4.886   1.620  18.393  0.00  0.00    +0.000 HD
ENDBRANCH  22  23
ENDBRANCH   9  22
TORSDOF 5
ENDMDL
