MODEL 1
REMARK VINA RESULT:      -6.8      0.000      0.000
REMARK  Name = 
REMARK  9 active torsions:
REMARK  status: ('A' for Active; 'I' for Inactive)
REMARK    1  A    between atoms: C_1  and  C_2
REMARK    2  A    between atoms: C_2  and  C_3
REMARK    3  A    between atoms: N_7  and  C_8
REMARK    4  A    between atoms: C_8  and  C_9
REMARK    5  A    between atoms: C_9  and  N_10
REMARK    6  A    between atoms: C_11  and  C_13
REMARK    7  A    between atoms: C_13  and  N_14
REMARK    8  A    between atoms: C_16  and  C_17
REMARK    9  A    between atoms: C_19  and  N_20
REMARK                            x       y       z     vdW  Elec       q    Type
REMARK                         _______ _______ _______ _____ _____    ______ ____
ROOT
ATOM      1  N   UNL     1       5.353   3.595  16.682  0.00  0.00    +0.000 N 
ATOM      2  C   UNL     1       5.645   4.876  16.248  0.00  0.00    +0.000 C 
ATOM      3  O   UNL     1       4.842   5.803  16.338  0.00  0.00    +0.000 OA
ATOM      4  H   UNL     1       6.151   2.974  16.823  0.00  0.00    +0.000 HD
ENDROOT
BRANCH   1   5
ATOM      5  C   UNL     1       4.121   3.306  17.409  0.00  0.00    +0.000 C 
BRANCH   5   6
ATOM      6  C   UNL     1       4.247   3.476  18.927  0.00  0.00    +0.000 C 
BRANCH   6  11
ATOM      7  C   UNL     1       2.027   4.039  20.027  0.00  0.00    +0.000 A 
ATOM      8  N   UNL     1       1.415   5.122  20.471  0.00  0.00    +0.000 NA
ATOM      9  C   UNL     1       2.251   6.169  20.207  0.00  0.00    +0.000 A 
ATOM     10  C   UNL     1       3.392   5.731  19.582  0.00  0.00    +0.000 A 
ATOM     11  N   UNL     1       3.245   4.372  19.475  0.00  0.00    +0.000 N 
BRANCH   7  13
ATOM     12  C   UNL     1       0.737   2.265  18.824  0.00  0.00    +0.000 C 
ATOM     13  C   UNL     1       1.457   2.660  20.103  0.00  0.00    +0.000 C 
ENDBRANCH   7  13
ENDBRANCH   6  11
ENDBRANCH   5   6
ENDBRANCH   1   5
BRANCH   2  14
ATOM     14  C   UNL     1       6.978   5.042  15.560  0.00  0.00    +0.000 C 
BRANCH  14  15
ATOM     15  N   UNL     1       6.927   4.598  14.185  0.00  0.00    +0.000 N 
ATOM     16  N   UNL     1       5.993   3.682  13.832  0.00  0.00    +0.000 NA
ATOM     17  C   UNL     1       6.137   3.577  12.504  0.00  0.00    +0.000 A 
ATOM     18  C   UNL     1       5.230   2.717  11.705  0.00  0.00    +0.000 C 
ATOM     19  C   UNL     1       7.201   4.375  12.027  0.00  0.00    +0.000 A 
ATOM     20  C   UNL     1       7.691   5.030  13.130  0.00  0.00    +0.000 A 
BRANCH  20  21
ATOM     21  N   UNL     1       8.690   5.927  13.227  0.00  0.00    +0.000 N 
ATOM     22  H   UNL     1       9.583   5.680  13.646  0.00  0.00    +0.000 HD
ATOM     23  H   UNL     1       8.669   6.864  12.830  0.00  0.00    +0.000 HD
ENDBRANCH  20  21
ENDBRANCH  14  15
ENDBRANCH   2  14
TORSDOF 7
ENDMDL
MODEL 2
REMARK VINA RESULT:      -6.6      0.621      1.819
REMARK  Name = 
REMARK  9 active torsions:
REMARK  status: ('A' for Active; 'I' for Inactive)
REMARK    1  A    between atoms: C_1  and  C_2
REMARK    2  A    between atoms: C_2  and  C_3
REMARK    3  A    between atoms: N_7  and  C_8
REMARK    4  A    between atoms: C_8  and  C_9
REMARK    5  A    between atoms: C_9  and  N_10
REMARK    6  A    between atoms: C_11  and  C_13
REMARK    7  A    between atoms: C_13  and  N_14
REMARK    8  A    between atoms: C_16  and  C_17
REMARK    9  A    between atoms: C_19  and  N_20
REMARK                            x       y       z     vdW  Elec       q    Type
REMARK                         _______ _______ _______ _____ _____    ______ ____
ROOT
ATOM      1  N   UNL     1       5.263   3.597  16.740  0.00  0.00    +0.000 N 
ATOM      2  C   UNL     1       5.592   4.845  16.244  0.00  0.00    +0.000 C 
ATOM      3  O   UNL     1       4.808   5.793  16.267  0.00  0.00    +0.000 OA
ATOM      4  H   UNL     1       6.043   2.967  16.930  0.00  0.00    +0.000 HD
ENDROOT
BRANCH   1   5
ATOM      5  C   UNL     1       4.011   3.374  17.456  0.00  0.00    +0.000 C 
BRANCH   5   6
ATOM      6  C   UNL     1       4.184   3.238  18.973  0.00  0.00    +0.000 C 
BRANCH   6  11
ATOM      7  C   UNL     1       2.399   4.762  19.947  0.00  0.00    +0.000 A 
ATOM      8  N   UNL     1       1.257   4.622  20.597  0.00  0.00    +0.000 NA
ATOM      9  C   UNL     1       1.080   3.279  20.772  0.00  0.00    +0.000 A 
ATOM     10  C   UNL     1       2.129   2.578  20.233  0.00  0.00    +0.000 A 
ATOM     11  N   UNL     1       2.963   3.528  19.704  0.00  0.00    +0.000 N 
BRANCH   7  13
ATOM     12  C   UNL     1       2.095   7.244  19.944  0.00  0.00    +0.000 C 
ATOM     13  C   UNL     1       2.988   6.077  19.556  0.00  0.00    +0.000 C 
ENDBRANCH   7  13
ENDBRANCH   6  11
ENDBRANCH   5   6
ENDBRANCH   1   5
BRANCH   2  14
ATOM     14  C   UNL     1       6.941   4.945  15.575  0.00  0.00    +0.000 C 
BRANCH  14  15
ATOM     15  N   UNL     1       6.880   4.542  14.188  0.00  0.00    +0.000 N 
ATOM     16  N   UNL     1       5.936   3.645  13.812  0.00  0.00    +0.000 NA
ATOM     17  C   UNL     1       6.073   3.579  12.482  0.00  0.00    +0.000 A 
ATOM     18  C   UNL     1       5.154   2.749  11.662  0.00  0.00    +0.000 C 
ATOM     19  C   UNL     1       7.141   4.381  12.022  0.00  0.00    +0.000 A 
ATOM     20  C   UNL     1       7.642   4.999  13.142  0.00  0.00    +0.000 A 
BRANCH  20  21
ATOM     21  N   UNL     1       8.649   5.885  13.260  0.00  0.00    +0.000 N 
ATOM     22  H   UNL     1       9.455   5.692  13.850  0.00  0.00    +0.000 HD
ATOM     23  H   UNL     1       8.728   6.748  12.728  0.00  0.00    +0.000 HD
ENDBRANCH  20  21
ENDBRANCH  14  15
ENDBRANCH   2  14
TORSDOF 7
ENDMDL
MODEL 3
REMARK VINA RESULT:      -6.5      2.669      4.175
REMARK  Name = 
REMARK  9 active torsions:
REMARK  status: ('A' for Active; 'I' for Inactive)
REMARK    1  A    between atoms: C_1  and  C_2
REMARK    2  A    between atoms: C_2  and  C_3
REMARK    3  A    between atoms: N_7  and  C_8
REMARK    4  A    between atoms: C_8  and  C_9
REMARK    5  A    between atoms: C_9  and  N_10
REMARK    6  A    between atoms: C_11  and  C_13
REMARK    7  A    between atoms: C_13  and  N_14
REMARK    8  A    between atoms: C_16  and  C_17
REMARK    9  A    between atoms: C_19  and  N_20
REMARK                            x       y       z     vdW  Elec       q    Type
REMARK                         _______ _______ _______ _____ _____    ______ ____
ROOT
ATOM      1  N   UNL     1       4.115   6.129  17.420  0.00  0.00    +0.000 N 
ATOM      2  C   UNL     1       4.688   5.160  16.617  0.00  0.00    +0.000 C 
ATOM      3  O   UNL     1       4.214   4.031  16.503  0.00  0.00    +0.000 OA
ATOM      4  H   UNL     1       4.404   7.092  17.241  0.00  0.00    +0.000 HD
ENDROOT
BRANCH   1   5
ATOM      5  C   UNL     1       2.826   5.909  18.067  0.00  0.00    +0.000 C 
BRANCH   5   6
ATOM      6  C   UNL     1       2.932   5.610  19.567  0.00  0.00    +0.000 C 
BRANCH   6  11
ATOM      7  C   UNL     1       2.486   3.150  20.019  0.00  0.00    +0.000 A 
ATOM      8  N   UNL     1       3.202   2.053  20.189  0.00  0.00    +0.000 NA
ATOM      9  C   UNL     1       4.511   2.436  20.115  0.00  0.00    +0.000 A 
ATOM     10  C   UNL     1       4.609   3.788  19.906  0.00  0.00    +0.000 A 
ATOM     11  N   UNL     1       3.315   4.237  19.840  0.00  0.00    +0.000 N 
BRANCH   7  13
ATOM     12  C   UNL     1       0.387   2.648  18.755  0.00  0.00    +0.000 C 
ATOM     13  C   UNL     1       0.993   3.192  20.038  0.00  0.00    +0.000 C 
ENDBRANCH   7  13
ENDBRANCH   6  11
ENDBRANCH   5   6
ENDBRANCH   1   5
BRANCH   2  14
ATOM     14  C   UNL     1       5.994   5.544  15.966  0.00  0.00    +0.000 C 
BRANCH  14  15
ATOM     15  N   UNL     1       6.886   6.192  16.901  0.00  0.00    +0.000 N 
ATOM     16  N   UNL     1       7.069   7.531  16.803  0.00  0.00    +0.000 NA
ATOM     17  C   UNL     1       7.839   7.825  17.859  0.00  0.00    +0.000 A 
ATOM     18  C   UNL     1       8.211   9.229  18.165  0.00  0.00    +0.000 C 
ATOM     19  C   UNL     1       8.197   6.667  18.587  0.00  0.00    +0.000 A 
ATOM     20  C   UNL     1       7.563   5.626  17.953  0.00  0.00    +0.000 A 
BRANCH  20  21
ATOM     21  N   UNL     1       7.549   4.314  18.252  0.00  0.00    +0.000 N 
ATOM     22  H   UNL     1       7.421   3.992  19.209  0.00  0.00    +0.000 HD
ATOM     23  H   UNL     1       7.578   3.562  17.567  0.00  0.00    +0.000 HD
ENDBRANCH  20  21
ENDBRANCH  14  15
ENDBRANCH   2  14
TORSDOF 7
ENDMDL
MODEL 4
REMARK VINA RESULT:      -6.5      1.904      2.649
REMARK  Name = 
REMARK  9 active torsions:
REMARK  status: ('A' for Active; 'I' for Inactive)
REMARK    1  A    between atoms: C_1  and  C_2
REMARK    2  A    between atoms: C_2  and  C_3
REMARK    3  A    between atoms: N_7  and  C_8
REMARK    4  A    between atoms: C_8  and  C_9
REMARK    5  A    between atoms: C_9  and  N_10
REMARK    6  A    between atoms: C_11  and  C_13
REMARK    7  A    between atoms: C_13  and  N_14
REMARK    8  A    between atoms: C_16  and  C_17
REMARK    9  A    between atoms: C_19  and  N_20
REMARK                            x       y       z     vdW  Elec       q    Type
REMARK                         _______ _______ _______ _____ _____    ______ ____
ROOT
ATOM      1  N   UNL     1       4.096   5.372  17.633  0.00  0.00    +0.000 N 
ATOM      2  C   UNL     1       5.015   4.979  18.589  0.00  0.00    +0.000 C 
ATOM      3  O   UNL     1       4.885   5.251  19.782  0.00  0.00    +0.000 OA
ATOM      4  H   UNL     1       4.135   4.878  16.741  0.00  0.00    +0.000 HD
ENDROOT
BRANCH   1   5
ATOM      5  C   UNL     1       2.839   6.009  18.010  0.00  0.00    +0.000 C 
BRANCH   5   6
ATOM      6  C   UNL     1       1.651   5.042  18.072  0.00  0.00    +0.000 C 
BRANCH   6  11
ATOM      7  C   UNL     1       1.947   2.867  19.351  0.00  0.00    +0.000 A 
ATOM      8  N   UNL     1       1.916   2.474  20.612  0.00  0.00    +0.000 NA
ATOM      9  C   UNL     1       1.614   3.584  21.350  0.00  0.00    +0.000 A 
ATOM     10  C   UNL     1       1.445   4.675  20.536  0.00  0.00    +0.000 A 
ATOM     11  N   UNL     1       1.664   4.213  19.264  0.00  0.00    +0.000 N 
BRANCH   7  13
ATOM     12  C   UNL     1       3.671   1.475  18.190  0.00  0.00    +0.000 C 
ATOM     13  C   UNL     1       2.232   1.964  18.196  0.00  0.00    +0.000 C 
ENDBRANCH   7  13
ENDBRANCH   6  11
ENDBRANCH   5   6
ENDBRANCH   1   5
BRANCH   2  14
ATOM     14  C   UNL     1       6.244   4.281  18.062  0.00  0.00    +0.000 C 
BRANCH  14  15
ATOM     15  N   UNL     1       6.432   4.527  16.649  0.00  0.00    +0.000 N 
ATOM     16  N   UNL     1       5.928   3.636  15.762  0.00  0.00    +0.000 NA
ATOM     17  C   UNL     1       6.166   4.202  14.572  0.00  0.00    +0.000 A 
ATOM     18  C   UNL     1       5.689   3.570  13.317  0.00  0.00    +0.000 C 
ATOM     19  C   UNL     1       6.877   5.417  14.701  0.00  0.00    +0.000 A 
ATOM     20  C   UNL     1       7.030   5.609  16.052  0.00  0.00    +0.000 A 
BRANCH  20  21
ATOM     21  N   UNL     1       7.613   6.623  16.719  0.00  0.00    +0.000 N 
ATOM     22  H   UNL     1       7.745   7.533  16.285  0.00  0.00    +0.000 HD
ATOM     23  H   UNL     1       7.883   6.593  17.700  0.00  0.00    +0.000 HD
ENDBRANCH  20  21
ENDBRANCH  14  15
ENDBRANCH   2  14
TORSDOF 7
ENDMDL
MODEL 5
REMARK VINA RESULT:      -6.4      1.268      1.660
REMARK  Name = 
REMARK  9 active torsions:
REMARK  status: ('A' for Active; 'I' for Inactive)
REMARK    1  A    between atoms: C_1  and  C_2
REMARK    2  A    between atoms: C_2  and  C_3
REMARK    3  A    between atoms: N_7  and  C_8
REMARK    4  A    between atoms: C_8  and  C_9
REMARK    5  A    between atoms: C_9  and  N_10
REMARK    6  A    between atoms: C_11  and  C_13
REMARK    7  A    between atoms: C_13  and  N_14
REMARK    8  A    between atoms: C_16  and  C_17
REMARK    9  A    between atoms: C_19  and  N_20
REMARK                            x       y       z     vdW  Elec       q    Type
REMARK                         _______ _______ _______ _____ _____    ______ ____
ROOT
ATOM      1  N   UNL     1       4.904   4.826  16.924  0.00  0.00    +0.000 N 
ATOM      2  C   UNL     1       5.662   5.616  16.079  0.00  0.00    +0.000 C 
ATOM      3  O   UNL     1       5.268   6.705  15.662  0.00  0.00    +0.000 OA
ATOM      4  H   UNL     1       5.407   4.095  17.429  0.00  0.00    +0.000 HD
ENDROOT
BRANCH   1   5
ATOM      5  C   UNL     1       3.649   5.310  17.488  0.00  0.00    +0.000 C 
BRANCH   5   6
ATOM      6  C   UNL     1       2.585   4.219  17.654  0.00  0.00    +0.000 C 
BRANCH   6  11
ATOM      7  C   UNL     1       3.079   3.078  19.869  0.00  0.00    +0.000 A 
ATOM      8  N   UNL     1       2.566   3.065  21.086  0.00  0.00    +0.000 NA
ATOM      9  C   UNL     1       1.474   3.885  21.049  0.00  0.00    +0.000 A 
ATOM     10  C   UNL     1       1.302   4.404  19.791  0.00  0.00    +0.000 A 
ATOM     11  N   UNL     1       2.331   3.891  19.045  0.00  0.00    +0.000 N 
BRANCH   7  13
ATOM     12  C   UNL     1       3.942   1.157  18.519  0.00  0.00    +0.000 C 
ATOM     13  C   UNL     1       4.287   2.302  19.458  0.00  0.00    +0.000 C 
ENDBRANCH   7  13
ENDBRANCH   6  11
ENDBRANCH   5   6
ENDBRANCH   1   5
BRANCH   2  14
ATOM     14  C   UNL     1       6.964   5.011  15.615  0.00  0.00    +0.000 C 
BRANCH  14  15
ATOM     15  N   UNL     1       6.891   4.581  14.237  0.00  0.00    +0.000 N 
ATOM     16  N   UNL     1       5.938   3.684  13.885  0.00  0.00    +0.000 NA
ATOM     17  C   UNL     1       6.066   3.589  12.555  0.00  0.00    +0.000 A 
ATOM     18  C   UNL     1       5.137   2.751  11.758  0.00  0.00    +0.000 C 
ATOM     19  C   UNL     1       7.138   4.374  12.073  0.00  0.00    +0.000 A 
ATOM     20  C   UNL     1       7.650   5.011  13.177  0.00  0.00    +0.000 A 
BRANCH  20  21
ATOM     21  N   UNL     1       8.664   5.892  13.271  0.00  0.00    +0.000 N 
ATOM     22  H   UNL     1       8.497   6.865  13.517  0.00  0.00    +0.000 HD
ATOM     23  H   UNL     1       9.650   5.652  13.194  0.00  0.00    +0.000 HD
ENDBRANCH  20  21
ENDBRANCH  14  15
ENDBRANCH   2  14
TORSDOF 7
ENDMDL
MODEL 6
REMARK VINA RESULT:      -6.4      1.769      2.871
REMARK  Name = 
REMARK  9 active torsions:
REMARK  status: ('A' for Active; 'I' for Inactive)
REMARK    1  A    between atoms: C_1  and  C_2
REMARK    2  A    between atoms: C_2  and  C_3
REMARK    3  A    between atoms: N_7  and  C_8
REMARK    4  A    between atoms: C_8  and  C_9
REMARK    5  A    between atoms: C_9  and  N_10
REMARK    6  A    between atoms: C_11  and  C_13
REMARK    7  A    between atoms: C_13  and  N_14
REMARK    8  A    between atoms: C_16  and  C_17
REMARK    9  A    between atoms: C_19  and  N_20
REMARK                            x       y       z     vdW  Elec       q    Type
REMARK                         _______ _______ _______ _____ _____    ______ ____
ROOT
ATOM      1  N   UNL     1       3.578   4.024  17.225  0.00  0.00    +0.000 N 
ATOM      2  C   UNL     1       4.648   3.588  17.985  0.00  0.00    +0.000 C 
ATOM      3  O   UNL     1       4.558   2.649  18.774  0.00  0.00    +0.000 OA
ATOM      4  H   UNL     1       3.806   4.606  16.418  0.00  0.00    +0.000 HD
ENDROOT
BRANCH   1   5
ATOM      5  C   UNL     1       2.315   3.295  17.209  0.00  0.00    +0.000 C 
BRANCH   5   6
ATOM      6  C   UNL     1       1.239   3.904  18.116  0.00  0.00    +0.000 C 
BRANCH   6  11
ATOM      7  C   UNL     1       2.035   4.731  20.383  0.00  0.00    +0.000 A 
ATOM      8  N   UNL     1       2.140   4.246  21.607  0.00  0.00    +0.000 NA
ATOM      9  C   UNL     1       1.714   2.950  21.542  0.00  0.00    +0.000 A 
ATOM     10  C   UNL     1       1.350   2.624  20.260  0.00  0.00    +0.000 A 
ATOM     11  N   UNL     1       1.551   3.765  19.527  0.00  0.00    +0.000 N 
BRANCH   7  13
ATOM     12  C   UNL     1       1.581   7.166  20.731  0.00  0.00    +0.000 C 
ATOM     13  C   UNL     1       2.409   6.124  19.996  0.00  0.00    +0.000 C 
ENDBRANCH   7  13
ENDBRANCH   6  11
ENDBRANCH   5   6
ENDBRANCH   1   5
BRANCH   2  14
ATOM     14  C   UNL     1       5.910   4.406  17.862  0.00  0.00    +0.000 C 
BRANCH  14  15
ATOM     15  N   UNL     1       6.314   4.559  16.482  0.00  0.00    +0.000 N 
ATOM     16  N   UNL     1       5.929   3.620  15.584  0.00  0.00    +0.000 NA
ATOM     17  C   UNL     1       6.356   4.106  14.412  0.00  0.00    +0.000 A 
ATOM     18  C   UNL     1       6.060   3.402  13.140  0.00  0.00    +0.000 C 
ATOM     19  C   UNL     1       7.066   5.318  14.573  0.00  0.00    +0.000 A 
ATOM     20  C   UNL     1       7.018   5.594  15.918  0.00  0.00    +0.000 A 
BRANCH  20  21
ATOM     21  N   UNL     1       7.516   6.640  16.602  0.00  0.00    +0.000 N 
ATOM     22  H   UNL     1       7.633   7.551  16.164  0.00  0.00    +0.000 HD
ATOM     23  H   UNL     1       7.728   6.635  17.597  0.00  0.00    +0.000 HD
ENDBRANCH  20  21
ENDBRANCH  14  15
ENDBRANCH   2  14
TORSDOF 7
ENDMDL
MODEL 7
REMARK VINA RESULT:      -6.4      1.302      1.879
REMARK  Name = 
REMARK  9 active torsions:
REMARK  status: ('A' for Active; 'I' for Inactive)
REMARK    1  A    between atoms: C_1  and  C_2
REMARK    2  A    between atoms: C_2  and  C_3
REMARK    3  A    between atoms: N_7  and  C_8
REMARK    4  A    between atoms: C_8  and  C_9
REMARK    5  A    between atoms: C_9  and  N_10
REMARK    6  A    between atoms: C_11  and  C_13
REMARK    7  A    between atoms: C_13  and  N_14
REMARK    8  A    between atoms: C_16  and  C_17
REMARK    9  A    between atoms: C_19  and  N_20
REMARK                            x       y       z     vdW  Elec       q    Type
REMARK                         _______ _______ _______ _____ _____    ______ ____
ROOT
ATOM      1  N   UNL     1       5.401   4.691  17.271  0.00  0.00    +0.000 N 
ATOM      2  C   UNL     1       6.591   4.839  16.582  0.00  0.00    +0.000 C 
ATOM      3  O   UNL     1       7.650   4.357  16.981  0.00  0.00    +0.000 OA
ATOM      4  H   UNL     1       4.547   4.875  16.742  0.00  0.00    +0.000 HD
ENDROOT
BRANCH   1   5
ATOM      5  C   UNL     1       5.309   3.825  18.442  0.00  0.00    +0.000 C 
BRANCH   5   6
ATOM      6  C   UNL     1       4.053   2.946  18.463  0.00  0.00    +0.000 C 
BRANCH   6  11
ATOM      7  C   UNL     1       2.107   4.341  19.313  0.00  0.00    +0.000 A 
ATOM      8  N   UNL     1       1.377   4.416  20.411  0.00  0.00    +0.000 NA
ATOM      9  C   UNL     1       1.886   3.484  21.271  0.00  0.00    +0.000 A 
ATOM     10  C   UNL     1       2.950   2.831  20.703  0.00  0.00    +0.000 A 
ATOM     11  N   UNL     1       3.083   3.378  19.453  0.00  0.00    +0.000 N 
BRANCH   7  13
ATOM     12  C   UNL     1       2.540   6.570  18.262  0.00  0.00    +0.000 C 
ATOM     13  C   UNL     1       1.902   5.199  18.107  0.00  0.00    +0.000 C 
ENDBRANCH   7  13
ENDBRANCH   6  11
ENDBRANCH   5   6
ENDBRANCH   1   5
BRANCH   2  14
ATOM     14  C   UNL     1       6.528   5.718  15.357  0.00  0.00    +0.000 C 
BRANCH  14  15
ATOM     15  N   UNL     1       6.690   4.952  14.142  0.00  0.00    +0.000 N 
ATOM     16  N   UNL     1       5.756   4.021  13.831  0.00  0.00    +0.000 NA
ATOM     17  C   UNL     1       6.130   3.586  12.621  0.00  0.00    +0.000 A 
ATOM     18  C   UNL     1       5.310   2.597  11.878  0.00  0.00    +0.000 C 
ATOM     19  C   UNL     1       7.333   4.193  12.194  0.00  0.00    +0.000 A 
ATOM     20  C   UNL     1       7.671   5.077  13.189  0.00  0.00    +0.000 A 
BRANCH  20  21
ATOM     21  N   UNL     1       8.712   5.925  13.273  0.00  0.00    +0.000 N 
ATOM     22  H   UNL     1       9.305   6.115  12.468  0.00  0.00    +0.000 HD
ATOM     23  H   UNL     1       8.937   6.490  14.089  0.00  0.00    +0.000 HD
ENDBRANCH  20  21
ENDBRANCH  14  15
ENDBRANCH   2  14
TORSDOF 7
ENDMDL
MODEL 8
REMARK VINA RESULT:      -6.4      2.111      2.999
REMARK  Name = 
REMARK  9 active torsions:
REMARK  status: ('A' for Active; 'I' for Inactive)
REMARK    1  A    between atoms: C_1  and  C_2
REMARK    2  A    between atoms: C_2  and  C_3
REMARK    3  A    between atoms: N_7  and  C_8
REMARK    4  A    between atoms: C_8  and  C_9
REMARK    5  A    between atoms: C_9  and  N_10
REMARK    6  A    between atoms: C_11  and  C_13
REMARK    7  A    between atoms: C_13  and  N_14
REMARK    8  A    between atoms: C_16  and  C_17
REMARK    9  A    between atoms: C_19  and  N_20
REMARK                            x       y       z     vdW  Elec       q    Type
REMARK                         _______ _______ _______ _____ _____    ______ ____
ROOT
ATOM      1  N   UNL     1       6.020   4.167  18.649  0.00  0.00    +0.000 N 
ATOM      2  C   UNL     1       6.945   5.141  18.977  0.00  0.00    +0.000 C 
ATOM      3  O   UNL     1       7.218   5.427  20.142  0.00  0.00    +0.000 OA
ATOM      4  H   UNL     1       6.060   3.810  17.693  0.00  0.00    +0.000 HD
ENDROOT
BRANCH   1   5
ATOM      5  C   UNL     1       5.421   3.317  19.673  0.00  0.00    +0.000 C 
BRANCH   5   6
ATOM      6  C   UNL     1       4.105   2.662  19.239  0.00  0.00    +0.000 C 
BRANCH   6  11
ATOM      7  C   UNL     1       2.064   4.058  19.824  0.00  0.00    +0.000 A 
ATOM      8  N   UNL     1       1.152   4.084  20.778  0.00  0.00    +0.000 NA
ATOM      9  C   UNL     1       1.481   3.084  21.649  0.00  0.00    +0.000 A 
ATOM     10  C   UNL     1       2.617   2.437  21.235  0.00  0.00    +0.000 A 
ATOM     11  N   UNL     1       2.981   3.058  20.069  0.00  0.00    +0.000 N 
BRANCH   7  13
ATOM     12  C   UNL     1       1.447   4.398  17.424  0.00  0.00    +0.000 C 
ATOM     13  C   UNL     1       2.094   4.996  18.663  0.00  0.00    +0.000 C 
ENDBRANCH   7  13
ENDBRANCH   6  11
ENDBRANCH   5   6
ENDBRANCH   1   5
BRANCH   2  14
ATOM     14  C   UNL     1       7.524   5.907  17.813  0.00  0.00    +0.000 C 
BRANCH  14  15
ATOM     15  N   UNL     1       6.765   5.690  16.601  0.00  0.00    +0.000 N 
ATOM     16  N   UNL     1       7.259   4.840  15.668  0.00  0.00    +0.000 NA
ATOM     17  C   UNL     1       6.286   4.776  14.750  0.00  0.00    +0.000 A 
ATOM     18  C   UNL     1       6.402   3.873  13.578  0.00  0.00    +0.000 C 
ATOM     19  C   UNL     1       5.207   5.631  15.067  0.00  0.00    +0.000 A 
ATOM     20  C   UNL     1       5.536   6.205  16.271  0.00  0.00    +0.000 A 
BRANCH  20  21
ATOM     21  N   UNL     1       4.845   7.077  17.029  0.00  0.00    +0.000 N 
ATOM     22  H   UNL     1       5.309   7.850  17.500  0.00  0.00    +0.000 HD
ATOM     23  H   UNL     1       3.832   7.089  17.122  0.00  0.00    +0.000 HD
ENDBRANCH  20  21
ENDBRANCH  14  15
ENDBRANCH   2  14
TORSDOF 7
ENDMDL
MODEL 9
REMARK VINA RESULT:      -6.4      2.227      3.203
REMARK  Name = 
REMARK  9 active torsions:
REMARK  status: ('A' for Active; 'I' for Inactive)
REMARK    1  A    between atoms: C_1  and  C_2
REMARK    2  A    between atoms: C_2  and  C_3
REMARK    3  A    between atoms: N_7  and  C_8
REMARK    4  A    between atoms: C_8  and  C_9
REMARK    5  A    between atoms: C_9  and  N_10
REMARK    6  A    between atoms: C_11  and  C_13
REMARK    7  A    between atoms: C_13  and  N_14
REMARK    8  A    between atoms: C_16  and  C_17
REMARK    9  A    between atoms: C_19  and  N_20
REMARK                            x       y       z     vdW  Elec       q    Type
REMARK                         _______ _______ _______ _____ _____    ______ ____
ROOT
ATOM      1  N   UNL     1       5.572   3.265  19.068  0.00  0.00    +0.000 N 
ATOM      2  C   UNL     1       5.417   4.614  19.329  0.00  0.00    +0.000 C 
ATOM      3  O   UNL     1       4.510   5.050  20.037  0.00  0.00    +0.000 OA
ATOM      4  H   UNL     1       6.485   2.976  18.715  0.00  0.00    +0.000 HD
ENDROOT
BRANCH   1   5
ATOM      5  C   UNL     1       4.750   2.265  19.742  0.00  0.00    +0.000 C 
BRANCH   5   6
ATOM      6  C   UNL     1       3.621   1.704  18.869  0.00  0.00    +0.000 C 
BRANCH   6  11
ATOM      7  C   UNL     1       1.590   3.148  19.360  0.00  0.00    +0.000 A 
ATOM      8  N   UNL     1       0.907   4.097  18.747  0.00  0.00    +0.000 NA
ATOM      9  C   UNL     1       1.498   4.265  17.527  0.00  0.00    +0.000 A 
ATOM     10  C   UNL     1       2.554   3.403  17.378  0.00  0.00    +0.000 A 
ATOM     11  N   UNL     1       2.611   2.697  18.552  0.00  0.00    +0.000 N 
BRANCH   7  13
ATOM     12  C   UNL     1       2.057   3.365  21.808  0.00  0.00    +0.000 C 
ATOM     13  C   UNL     1       1.275   2.636  20.728  0.00  0.00    +0.000 C 
ENDBRANCH   7  13
ENDBRANCH   6  11
ENDBRANCH   5   6
ENDBRANCH   1   5
BRANCH   2  14
ATOM     14  C   UNL     1       6.371   5.531  18.604  0.00  0.00    +0.000 C 
BRANCH  14  15
ATOM     15  N   UNL     1       6.091   5.580  17.187  0.00  0.00    +0.000 N 
ATOM     16  N   UNL     1       6.818   4.798  16.353  0.00  0.00    +0.000 NA
ATOM     17  C   UNL     1       6.245   4.989  15.158  0.00  0.00    +0.000 A 
ATOM     18  C   UNL     1       6.704   4.237  13.963  0.00  0.00    +0.000 C 
ATOM     19  C   UNL     1       5.200   5.938  15.221  0.00  0.00    +0.000 A 
ATOM     20  C   UNL     1       5.114   6.299  16.544  0.00  0.00    +0.000 A 
BRANCH  20  21
ATOM     21  N   UNL     1       4.270   7.154  17.151  0.00  0.00    +0.000 N 
ATOM     22  H   UNL     1       3.781   7.876  16.627  0.00  0.00    +0.000 HD
ATOM     23  H   UNL     1       3.994   7.100  18.129  0.00  0.00    +0.000 HD
ENDBRANCH  20  21
ENDBRANCH  14  15
ENDBRANCH   2  14
TORSDOF 7
ENDMDL
