MODEL 1
REMARK VINA RESULT:      -8.5      0.000      0.000
REMARK  Name = 
REMARK  9 active torsions:
REMARK  status: ('A' for Active; 'I' for Inactive)
REMARK    1  A    between atoms: C_2  and  C_3
REMARK    2  A    between atoms: C_6  and  O_7
REMARK    3  A    between atoms: O_7  and  C_8
REMARK    4  A    between atoms: C_11  and  C_12
REMARK    5  A    between atoms: C_16  and  C_17
REMARK    6  A    between atoms: C_17  and  O_18
REMARK    7  A    between atoms: C_17  and  C_19
REMARK    8  A    between atoms: C_19  and  O_20
REMARK    9  A    between atoms: C_19  and  C_21
REMARK                            x       y       z     vdW  Elec       q    Type
REMARK                         _______ _______ _______ _____ _____    ______ ____
ROOT
ATOM      1  C   UNL     1       2.330   6.450  19.846  0.00  0.00    +0.000 A 
ATOM      2  C   UNL     1       1.719   5.577  20.753  0.00  0.00    +0.000 A 
ATOM      3  C   UNL     1       2.275   4.332  20.986  0.00  0.00    +0.000 A 
ATOM      4  C   UNL     1       3.416   3.958  20.293  0.00  0.00    +0.000 A 
ATOM      5  C   UNL     1       3.965   4.850  19.376  0.00  0.00    +0.000 A 
ATOM      6  N   UNL     1       3.456   6.097  19.174  0.00  0.00    +0.000 NA
ENDROOT
BRANCH   1  10
ATOM      7  C   UNL     1       0.753  10.370  18.990  0.00  0.00    +0.000 A 
ATOM      8  C   UNL     1       1.514   9.685  18.043  0.00  0.00    +0.000 A 
ATOM      9  C   UNL     1       1.977   8.398  18.310  0.00  0.00    +0.000 A 
ATOM     10  C   UNL     1       1.784   7.795  19.564  0.00  0.00    +0.000 A 
ATOM     11  C   UNL     1       1.072   8.531  20.532  0.00  0.00    +0.000 A 
ATOM     12  C   UNL     1       0.559   9.806  20.250  0.00  0.00    +0.000 A 
BRANCH   7  13
ATOM     13  O   UNL     1       0.171  11.595  18.729  0.00  0.00    +0.000 OA
BRANCH  13  17
ATOM     14  C   UNL     1      -3.987  11.510  18.295  0.00  0.00    +0.000 A 
ATOM     15  C   UNL     1      -3.425  12.228  19.353  0.00  0.00    +0.000 A 
ATOM     16  C   UNL     1      -2.040  12.319  19.474  0.00  0.00    +0.000 A 
ATOM     17  C   UNL     1      -1.204  11.625  18.587  0.00  0.00    +0.000 A 
ATOM     18  C   UNL     1      -1.762  10.932  17.512  0.00  0.00    +0.000 A 
ATOM     19  C   UNL     1      -3.154  10.878  17.364  0.00  0.00    +0.000 A 
BRANCH  14  21
ATOM     20  N   UNL     1      -6.566  11.376  18.055  0.00  0.00    +0.000 NA
ATOM     21  C   UNL     1      -5.413  11.436  18.174  0.00  0.00    +0.000 C 
ENDBRANCH  14  21
ENDBRANCH  13  17
ENDBRANCH   7  13
ENDBRANCH   1  10
BRANCH   5  22
ATOM     22  C   UNL     1       5.182   4.433  18.573  0.00  0.00    +0.000 C 
BRANCH  22  23
ATOM     23  O   UNL     1       5.643   3.163  19.070  0.00  0.00    +0.000 OA
ATOM     24  H   UNL     1       6.609   3.243  19.171  0.00  0.00    +0.000 HD
ENDBRANCH  22  23
BRANCH  22  25
ATOM     25  C   UNL     1       6.327   5.465  18.619  0.00  0.00    +0.000 C 
BRANCH  25  26
ATOM     26  C   UNL     1       7.337   5.245  17.492  0.00  0.00    +0.000 C 
ATOM     27  N   UNL     1       7.443   6.285  16.609  0.00  0.00    +0.000 N 
ATOM     28  O   UNL     1       8.071   4.266  17.402  0.00  0.00    +0.000 OA
ATOM     29  H   UNL     1       7.144   7.210  16.891  0.00  0.00    +0.000 HD
ATOM     30  H   UNL     1       8.174   6.215  15.915  0.00  0.00    +0.000 HD
ENDBRANCH  25  26
BRANCH  25  31
ATOM     31  O   UNL     1       7.055   5.387  19.860  0.00  0.00    +0.000 OA
ATOM     32  H   UNL     1       6.626   6.010  20.476  0.00  0.00    +0.000 HD
ENDBRANCH  25  31
ENDBRANCH  22  25
ENDBRANCH   5  22
TORSDOF 9
ENDMDL
MODEL 2
REMARK VINA RESULT:      -8.5      1.126      1.650
REMARK  Name = 
REMARK  9 active torsions:
REMARK  status: ('A' for Active; 'I' for Inactive)
REMARK    1  A    between atoms: C_2  and  C_3
REMARK    2  A    between atoms: C_6  and  O_7
REMARK    3  A    between atoms: O_7  and  C_8
REMARK    4  A    between atoms: C_11  and  C_12
REMARK    5  A    between atoms: C_16  and  C_17
REMARK    6  A    between atoms: C_17  and  O_18
REMARK    7  A    between atoms: C_17  and  C_19
REMARK    8  A    between atoms: C_19  and  O_20
REMARK    9  A    between atoms: C_19  and  C_21
REMARK                            x       y       z     vdW  Elec       q    Type
REMARK                         _______ _______ _______ _____ _____    ______ ____
ROOT
ATOM      1  C   UNL     1       2.806   6.102  19.481  0.00  0.00    +0.000 A 
ATOM      2  C   UNL     1       2.185   5.094  20.227  0.00  0.00    +0.000 A 
ATOM      3  C   UNL     1       2.819   3.874  20.390  0.00  0.00    +0.000 A 
ATOM      4  C   UNL     1       4.048   3.661  19.784  0.00  0.00    +0.000 A 
ATOM      5  C   UNL     1       4.606   4.686  19.024  0.00  0.00    +0.000 A 
ATOM      6  N   UNL     1       4.017   5.907  18.897  0.00  0.00    +0.000 NA
ENDROOT
BRANCH   1  10
ATOM      7  C   UNL     1       0.991   9.963  18.865  0.00  0.00    +0.000 A 
ATOM      8  C   UNL     1       1.719   9.347  17.847  0.00  0.00    +0.000 A 
ATOM      9  C   UNL     1       2.259   8.077  18.039  0.00  0.00    +0.000 A 
ATOM     10  C   UNL     1       2.180   7.426  19.282  0.00  0.00    +0.000 A 
ATOM     11  C   UNL     1       1.500   8.095  20.318  0.00  0.00    +0.000 A 
ATOM     12  C   UNL     1       0.909   9.352  20.115  0.00  0.00    +0.000 A 
BRANCH   7  13
ATOM     13  O   UNL     1       0.337  11.165  18.684  0.00  0.00    +0.000 OA
BRANCH  13  17
ATOM     14  C   UNL     1      -3.821  11.212  18.239  0.00  0.00    +0.000 A 
ATOM     15  C   UNL     1      -3.064  10.311  17.487  0.00  0.00    +0.000 A 
ATOM     16  C   UNL     1      -1.684  10.239  17.671  0.00  0.00    +0.000 A 
ATOM     17  C   UNL     1      -1.039  11.123  18.547  0.00  0.00    +0.000 A 
ATOM     18  C   UNL     1      -1.796  12.004  19.320  0.00  0.00    +0.000 A 
ATOM     19  C   UNL     1      -3.188  12.045  19.169  0.00  0.00    +0.000 A 
BRANCH  14  21
ATOM     20  N   UNL     1      -6.388  11.306  17.877  0.00  0.00    +0.000 NA
ATOM     21  C   UNL     1      -5.241  11.267  18.051  0.00  0.00    +0.000 C 
ENDBRANCH  14  21
ENDBRANCH  13  17
ENDBRANCH   7  13
ENDBRANCH   1  10
BRANCH   5  22
ATOM     22  C   UNL     1       5.924   4.448  18.314  0.00  0.00    +0.000 C 
BRANCH  22  23
ATOM     23  O   UNL     1       6.831   5.508  18.668  0.00  0.00    +0.000 OA
ATOM     24  H   UNL     1       7.327   5.196  19.447  0.00  0.00    +0.000 HD
ENDBRANCH  22  23
BRANCH  22  25
ATOM     25  C   UNL     1       5.784   4.364  16.780  0.00  0.00    +0.000 C 
BRANCH  25  26
ATOM     26  C   UNL     1       6.341   5.609  16.089  0.00  0.00    +0.000 C 
ATOM     27  N   UNL     1       5.478   6.671  16.045  0.00  0.00    +0.000 N 
ATOM     28  O   UNL     1       7.490   5.715  15.672  0.00  0.00    +0.000 OA
ATOM     29  H   UNL     1       4.712   6.718  16.705  0.00  0.00    +0.000 HD
ATOM     30  H   UNL     1       5.851   7.541  15.689  0.00  0.00    +0.000 HD
ENDBRANCH  25  26
BRANCH  25  31
ATOM     31  O   UNL     1       4.404   4.242  16.384  0.00  0.00    +0.000 OA
ATOM     32  H   UNL     1       4.356   4.520  15.450  0.00  0.00    +0.000 HD
ENDBRANCH  25  31
ENDBRANCH  22  25
ENDBRANCH   5  22
TORSDOF 9
ENDMDL
MODEL 3
REMARK VINA RESULT:      -8.4      0.889      1.495
REMARK  Name = 
REMARK  9 active torsions:
REMARK  status: ('A' for Active; 'I' for Inactive)
REMARK    1  A    between atoms: C_2  and  C_3
REMARK    2  A    between atoms: C_6  and  O_7
REMARK    3  A    between atoms: O_7  and  C_8
REMARK    4  A    between atoms: C_11  and  C_12
REMARK    5  A    between atoms: C_16  and  C_17
REMARK    6  A    between atoms: C_17  and  O_18
REMARK    7  A    between atoms: C_17  and  C_19
REMARK    8  A    between atoms: C_19  and  O_20
REMARK    9  A    between atoms: C_19  and  C_21
REMARK                            x       y       z     vdW  Elec       q    Type
REMARK                         _______ _______ _______ _____ _____    ______ ____
ROOT
ATOM      1  C   UNL     1       2.900   6.290  19.174  0.00  0.00    +0.000 A 
ATOM      2  C   UNL     1       2.489   5.292  20.065  0.00  0.00    +0.000 A 
ATOM      3  C   UNL     1       3.164   4.084  20.098  0.00  0.00    +0.000 A 
ATOM      4  C   UNL     1       4.220   3.872  19.225  0.00  0.00    +0.000 A 
ATOM      5  C   UNL     1       4.566   4.885  18.335  0.00  0.00    +0.000 A 
ATOM      6  N   UNL     1       3.942   6.096  18.326  0.00  0.00    +0.000 NA
ENDROOT
BRANCH   1  10
ATOM      7  C   UNL     1       0.934  10.118  18.928  0.00  0.00    +0.000 A 
ATOM      8  C   UNL     1       1.669   9.623  17.850  0.00  0.00    +0.000 A 
ATOM      9  C   UNL     1       2.258   8.363  17.922  0.00  0.00    +0.000 A 
ATOM     10  C   UNL     1       2.222   7.601  19.102  0.00  0.00    +0.000 A 
ATOM     11  C   UNL     1       1.533   8.149  20.202  0.00  0.00    +0.000 A 
ATOM     12  C   UNL     1       0.892   9.396  20.119  0.00  0.00    +0.000 A 
BRANCH   7  13
ATOM     13  O   UNL     1       0.232  11.306  18.863  0.00  0.00    +0.000 OA
BRANCH  13  17
ATOM     14  C   UNL     1      -3.913  11.231  18.319  0.00  0.00    +0.000 A 
ATOM     15  C   UNL     1      -3.113  10.349  17.590  0.00  0.00    +0.000 A 
ATOM     16  C   UNL     1      -1.737  10.317  17.807  0.00  0.00    +0.000 A 
ATOM     17  C   UNL     1      -1.138  11.223  18.693  0.00  0.00    +0.000 A 
ATOM     18  C   UNL     1      -1.938  12.085  19.444  0.00  0.00    +0.000 A 
ATOM     19  C   UNL     1      -3.327  12.086  19.260  0.00  0.00    +0.000 A 
BRANCH  14  21
ATOM     20  N   UNL     1      -6.477  11.272  17.926  0.00  0.00    +0.000 NA
ATOM     21  C   UNL     1      -5.329  11.244  18.096  0.00  0.00    +0.000 C 
ENDBRANCH  14  21
ENDBRANCH  13  17
ENDBRANCH   7  13
ENDBRANCH   1  10
BRANCH   5  22
ATOM     22  C   UNL     1       5.684   4.647  17.339  0.00  0.00    +0.000 C 
BRANCH  22  23
ATOM     23  O   UNL     1       5.568   3.303  16.836  0.00  0.00    +0.000 OA
ATOM     24  H   UNL     1       4.639   3.041  16.967  0.00  0.00    +0.000 HD
ENDBRANCH  22  23
BRANCH  22  25
ATOM     25  C   UNL     1       7.089   4.868  17.935  0.00  0.00    +0.000 C 
BRANCH  25  26
ATOM     26  C   UNL     1       7.496   6.342  17.903  0.00  0.00    +0.000 C 
ATOM     27  N   UNL     1       6.922   7.071  16.896  0.00  0.00    +0.000 N 
ATOM     28  O   UNL     1       8.208   6.882  18.743  0.00  0.00    +0.000 OA
ATOM     29  H   UNL     1       6.069   6.737  16.464  0.00  0.00    +0.000 HD
ATOM     30  H   UNL     1       7.087   8.068  16.910  0.00  0.00    +0.000 HD
ENDBRANCH  25  26
BRANCH  25  31
ATOM     31  O   UNL     1       8.092   4.137  17.201  0.00  0.00    +0.000 OA
ATOM     32  H   UNL     1       7.615   3.524  16.611  0.00  0.00    +0.000 HD
ENDBRANCH  25  31
ENDBRANCH  22  25
ENDBRANCH   5  22
TORSDOF 9
ENDMDL
MODEL 4
REMARK VINA RESULT:      -8.3      1.636      2.321
REMARK  Name = 
REMARK  9 active torsions:
REMARK  status: ('A' for Active; 'I' for Inactive)
REMARK    1  A    between atoms: C_2  and  C_3
REMARK    2  A    between atoms: C_6  and  O_7
REMARK    3  A    between atoms: O_7  and  C_8
REMARK    4  A    between atoms: C_11  and  C_12
REMARK    5  A    between atoms: C_16  and  C_17
REMARK    6  A    between atoms: C_17  and  O_18
REMARK    7  A    between atoms: C_17  and  C_19
REMARK    8  A    between atoms: C_19  and  O_20
REMARK    9  A    between atoms: C_19  and  C_21
REMARK                            x       y       z     vdW  Elec       q    Type
REMARK                         _______ _______ _______ _____ _____    ______ ____
ROOT
ATOM      1  C   UNL     1       3.248   6.061  18.972  0.00  0.00    +0.000 A 
ATOM      2  C   UNL     1       2.898   5.012  19.829  0.00  0.00    +0.000 A 
ATOM      3  C   UNL     1       3.624   3.833  19.801  0.00  0.00    +0.000 A 
ATOM      4  C   UNL     1       4.669   3.701  18.900  0.00  0.00    +0.000 A 
ATOM      5  C   UNL     1       4.954   4.763  18.045  0.00  0.00    +0.000 A 
ATOM      6  N   UNL     1       4.280   5.945  18.096  0.00  0.00    +0.000 NA
ENDROOT
BRANCH   1  10
ATOM      7  C   UNL     1       1.096   9.796  18.989  0.00  0.00    +0.000 A 
ATOM      8  C   UNL     1       1.076   8.956  20.102  0.00  0.00    +0.000 A 
ATOM      9  C   UNL     1       1.815   7.775  20.106  0.00  0.00    +0.000 A 
ATOM     10  C   UNL     1       2.514   7.343  18.965  0.00  0.00    +0.000 A 
ATOM     11  C   UNL     1       2.466   8.172  17.827  0.00  0.00    +0.000 A 
ATOM     12  C   UNL     1       1.765   9.389  17.836  0.00  0.00    +0.000 A 
BRANCH   7  13
ATOM     13  O   UNL     1       0.479  11.031  18.981  0.00  0.00    +0.000 OA
BRANCH  13  17
ATOM     14  C   UNL     1      -3.629  11.284  18.246  0.00  0.00    +0.000 A 
ATOM     15  C   UNL     1      -2.862  10.363  17.529  0.00  0.00    +0.000 A 
ATOM     16  C   UNL     1      -1.505  10.222  17.808  0.00  0.00    +0.000 A 
ATOM     17  C   UNL     1      -0.883  11.057  18.747  0.00  0.00    +0.000 A 
ATOM     18  C   UNL     1      -1.652  11.958  19.485  0.00  0.00    +0.000 A 
ATOM     19  C   UNL     1      -3.027  12.068  19.237  0.00  0.00    +0.000 A 
BRANCH  14  21
ATOM     20  N   UNL     1      -6.160  11.494  17.714  0.00  0.00    +0.000 NA
ATOM     21  C   UNL     1      -5.028  11.410  17.959  0.00  0.00    +0.000 C 
ENDBRANCH  14  21
ENDBRANCH  13  17
ENDBRANCH   7  13
ENDBRANCH   1  10
BRANCH   5  22
ATOM     22  C   UNL     1       6.060   4.611  17.019  0.00  0.00    +0.000 C 
BRANCH  22  23
ATOM     23  O   UNL     1       7.191   5.390  17.450  0.00  0.00    +0.000 OA
ATOM     24  H   UNL     1       7.120   5.465  18.419  0.00  0.00    +0.000 HD
ENDBRANCH  22  23
BRANCH  22  25
ATOM     25  C   UNL     1       5.637   5.037  15.598  0.00  0.00    +0.000 C 
BRANCH  25  26
ATOM     26  C   UNL     1       6.704   4.689  14.559  0.00  0.00    +0.000 C 
ATOM     27  N   UNL     1       6.392   3.626  13.754  0.00  0.00    +0.000 N 
ATOM     28  O   UNL     1       7.728   5.338  14.374  0.00  0.00    +0.000 OA
ATOM     29  H   UNL     1       5.423   3.352  13.645  0.00  0.00    +0.000 HD
ATOM     30  H   UNL     1       7.026   3.437  12.991  0.00  0.00    +0.000 HD
ENDBRANCH  25  26
BRANCH  25  31
ATOM     31  O   UNL     1       5.418   6.459  15.519  0.00  0.00    +0.000 OA
ATOM     32  H   UNL     1       5.235   6.765  16.427  0.00  0.00    +0.000 HD
ENDBRANCH  25  31
ENDBRANCH  22  25
ENDBRANCH   5  22
TORSDOF 9
ENDMDL
MODEL 5
REMARK VINA RESULT:      -8.3      0.931      1.378
REMARK  Name = 
REMARK  9 active torsions:
REMARK  status: ('A' for Active; 'I' for Inactive)
REMARK    1  A    between atoms: C_2  and  C_3
REMARK    2  A    between atoms: C_6  and  O_7
REMARK    3  A    between atoms: O_7  and  C_8
REMARK    4  A    between atoms: C_11  and  C_12
REMARK    5  A    between atoms: C_16  and  C_17
REMARK    6  A    between atoms: C_17  and  O_18
REMARK    7  A    between atoms: C_17  and  C_19
REMARK    8  A    between atoms: C_19  and  O_20
REMARK    9  A    between atoms: C_19  and  C_21
REMARK                            x       y       z     vdW  Elec       q    Type
REMARK                         _______ _______ _______ _____ _____    ______ ____
ROOT
ATOM      1  C   UNL     1       2.555   6.217  19.677  0.00  0.00    +0.000 A 
ATOM      2  C   UNL     1       1.862   5.171  20.296  0.00  0.00    +0.000 A 
ATOM      3  C   UNL     1       2.492   3.955  20.494  0.00  0.00    +0.000 A 
ATOM      4  C   UNL     1       3.793   3.784  20.047  0.00  0.00    +0.000 A 
ATOM      5  C   UNL     1       4.426   4.846  19.406  0.00  0.00    +0.000 A 
ATOM      6  N   UNL     1       3.835   6.063  19.249  0.00  0.00    +0.000 NA
ENDROOT
BRANCH   1  10
ATOM      7  C   UNL     1       0.758  10.072  18.973  0.00  0.00    +0.000 A 
ATOM      8  C   UNL     1       1.480   9.428  17.968  0.00  0.00    +0.000 A 
ATOM      9  C   UNL     1       2.014   8.160  18.189  0.00  0.00    +0.000 A 
ATOM     10  C   UNL     1       1.935   7.539  19.448  0.00  0.00    +0.000 A 
ATOM     11  C   UNL     1       1.261   8.237  20.469  0.00  0.00    +0.000 A 
ATOM     12  C   UNL     1       0.676   9.492  20.237  0.00  0.00    +0.000 A 
BRANCH   7  13
ATOM     13  O   UNL     1       0.109  11.273  18.765  0.00  0.00    +0.000 OA
BRANCH  13  17
ATOM     14  C   UNL     1      -4.045  11.326  18.291  0.00  0.00    +0.000 A 
ATOM     15  C   UNL     1      -3.284  10.424  17.543  0.00  0.00    +0.000 A 
ATOM     16  C   UNL     1      -1.906  10.350  17.737  0.00  0.00    +0.000 A 
ATOM     17  C   UNL     1      -1.266  11.232  18.618  0.00  0.00    +0.000 A 
ATOM     18  C   UNL     1      -2.027  12.114  19.387  0.00  0.00    +0.000 A 
ATOM     19  C   UNL     1      -3.418  12.157  19.226  0.00  0.00    +0.000 A 
BRANCH  14  21
ATOM     20  N   UNL     1      -6.611  11.449  17.926  0.00  0.00    +0.000 NA
ATOM     21  C   UNL     1      -5.464  11.383  18.092  0.00  0.00    +0.000 C 
ENDBRANCH  14  21
ENDBRANCH  13  17
ENDBRANCH   7  13
ENDBRANCH   1  10
BRANCH   5  22
ATOM     22  C   UNL     1       5.829   4.655  18.866  0.00  0.00    +0.000 C 
BRANCH  22  23
ATOM     23  O   UNL     1       6.758   5.256  19.786  0.00  0.00    +0.000 OA
ATOM     24  H   UNL     1       7.493   4.623  19.887  0.00  0.00    +0.000 HD
ENDBRANCH  22  23
BRANCH  22  25
ATOM     25  C   UNL     1       6.026   5.247  17.455  0.00  0.00    +0.000 C 
BRANCH  25  26
ATOM     26  C   UNL     1       7.297   4.718  16.788  0.00  0.00    +0.000 C 
ATOM     27  N   UNL     1       8.206   4.164  17.649  0.00  0.00    +0.000 N 
ATOM     28  O   UNL     1       7.485   4.698  15.576  0.00  0.00    +0.000 OA
ATOM     29  H   UNL     1       7.897   3.836  18.556  0.00  0.00    +0.000 HD
ATOM     30  H   UNL     1       9.007   3.712  17.230  0.00  0.00    +0.000 HD
ENDBRANCH  25  26
BRANCH  25  31
ATOM     31  O   UNL     1       6.139   6.683  17.499  0.00  0.00    +0.000 OA
ATOM     32  H   UNL     1       5.698   7.023  16.698  0.00  0.00    +0.000 HD
ENDBRANCH  25  31
ENDBRANCH  22  25
ENDBRANCH   5  22
TORSDOF 9
ENDMDL
MODEL 6
REMARK VINA RESULT:      -8.3      1.550      2.091
REMARK  Name = 
REMARK  9 active torsions:
REMARK  status: ('A' for Active; 'I' for Inactive)
REMARK    1  A    between atoms: C_2  and  C_3
REMARK    2  A    between atoms: C_6  and  O_7
REMARK    3  A    between atoms: O_7  and  C_8
REMARK    4  A    between atoms: C_11  and  C_12
REMARK    5  A    between atoms: C_16  and  C_17
REMARK    6  A    between atoms: C_17  and  O_18
REMARK    7  A    between atoms: C_17  and  C_19
REMARK    8  A    between atoms: C_19  and  O_20
REMARK    9  A    between atoms: C_19  and  C_21
REMARK                            x       y       z     vdW  Elec       q    Type
REMARK                         _______ _______ _______ _____ _____    ______ ____
ROOT
ATOM      1  C   UNL     1       3.128   5.791  18.515  0.00  0.00    +0.000 A 
ATOM      2  C   UNL     1       2.979   4.741  19.429  0.00  0.00    +0.000 A 
ATOM      3  C   UNL     1       3.583   3.522  19.175  0.00  0.00    +0.000 A 
ATOM      4  C   UNL     1       4.303   3.352  18.003  0.00  0.00    +0.000 A 
ATOM      5  C   UNL     1       4.392   4.418  17.111  0.00  0.00    +0.000 A 
ATOM      6  N   UNL     1       3.845   5.637  17.372  0.00  0.00    +0.000 NA
ENDROOT
BRANCH   1  10
ATOM      7  C   UNL     1       1.343   9.666  19.132  0.00  0.00    +0.000 A 
ATOM      8  C   UNL     1       1.965   9.351  17.923  0.00  0.00    +0.000 A 
ATOM      9  C   UNL     1       2.494   8.080  17.716  0.00  0.00    +0.000 A 
ATOM     10  C   UNL     1       2.513   7.116  18.739  0.00  0.00    +0.000 A 
ATOM     11  C   UNL     1       1.942   7.477  19.975  0.00  0.00    +0.000 A 
ATOM     12  C   UNL     1       1.360   8.739  20.173  0.00  0.00    +0.000 A 
BRANCH   7  13
ATOM     13  O   UNL     1       0.699  10.869  19.342  0.00  0.00    +0.000 OA
BRANCH  13  17
ATOM     14  C   UNL     1      -3.299  11.287  18.190  0.00  0.00    +0.000 A 
ATOM     15  C   UNL     1      -2.495  10.347  17.540  0.00  0.00    +0.000 A 
ATOM     16  C   UNL     1      -1.180  10.152  17.955  0.00  0.00    +0.000 A 
ATOM     17  C   UNL     1      -0.630  10.949  18.968  0.00  0.00    +0.000 A 
ATOM     18  C   UNL     1      -1.438  11.868  19.639  0.00  0.00    +0.000 A 
ATOM     19  C   UNL     1      -2.775  12.034  19.252  0.00  0.00    +0.000 A 
BRANCH  14  21
ATOM     20  N   UNL     1      -5.747  11.636  17.406  0.00  0.00    +0.000 NA
ATOM     21  C   UNL     1      -4.654  11.470  17.761  0.00  0.00    +0.000 C 
ENDBRANCH  14  21
ENDBRANCH  13  17
ENDBRANCH   7  13
ENDBRANCH   1  10
BRANCH   5  22
ATOM     22  C   UNL     1       5.132   4.228  15.802  0.00  0.00    +0.000 C 
BRANCH  22  23
ATOM     23  O   UNL     1       5.871   2.995  15.869  0.00  0.00    +0.000 OA
ATOM     24  H   UNL     1       6.798   3.219  15.669  0.00  0.00    +0.000 HD
ENDBRANCH  22  23
BRANCH  22  25
ATOM     25  C   UNL     1       6.082   5.395  15.463  0.00  0.00    +0.000 C 
BRANCH  25  26
ATOM     26  C   UNL     1       7.068   5.673  16.599  0.00  0.00    +0.000 C 
ATOM     27  N   UNL     1       7.024   6.949  17.094  0.00  0.00    +0.000 N 
ATOM     28  O   UNL     1       7.795   4.826  17.108  0.00  0.00    +0.000 OA
ATOM     29  H   UNL     1       6.192   7.508  16.953  0.00  0.00    +0.000 HD
ATOM     30  H   UNL     1       7.587   7.135  17.912  0.00  0.00    +0.000 HD
ENDBRANCH  25  26
BRANCH  25  31
ATOM     31  O   UNL     1       5.354   6.615  15.228  0.00  0.00    +0.000 OA
ATOM     32  H   UNL     1       5.608   6.926  14.339  0.00  0.00    +0.000 HD
ENDBRANCH  25  31
ENDBRANCH  22  25
ENDBRANCH   5  22
TORSDOF 9
ENDMDL
MODEL 7
REMARK VINA RESULT:      -8.2      1.545      1.841
REMARK  Name = 
REMARK  9 active torsions:
REMARK  status: ('A' for Active; 'I' for Inactive)
REMARK    1  A    between atoms: C_2  and  C_3
REMARK    2  A    between atoms: C_6  and  O_7
REMARK    3  A    between atoms: O_7  and  C_8
REMARK    4  A    between atoms: C_11  and  C_12
REMARK    5  A    between atoms: C_16  and  C_17
REMARK    6  A    between atoms: C_17  and  O_18
REMARK    7  A    between atoms: C_17  and  C_19
REMARK    8  A    between atoms: C_19  and  O_20
REMARK    9  A    between atoms: C_19  and  C_21
REMARK                            x       y       z     vdW  Elec       q    Type
REMARK                         _______ _______ _______ _____ _____    ______ ____
ROOT
ATOM      1  C   UNL     1       2.809   5.913  18.113  0.00  0.00    +0.000 A 
ATOM      2  C   UNL     1       2.028   4.752  18.119  0.00  0.00    +0.000 A 
ATOM      3  C   UNL     1       2.584   3.551  17.712  0.00  0.00    +0.000 A 
ATOM      4  C   UNL     1       3.901   3.525  17.278  0.00  0.00    +0.000 A 
ATOM      5  C   UNL     1       4.623   4.715  17.260  0.00  0.00    +0.000 A 
ATOM      6  N   UNL     1       4.103   5.894  17.703  0.00  0.00    +0.000 NA
ENDROOT
BRANCH   1  10
ATOM      7  C   UNL     1       1.242   9.739  19.335  0.00  0.00    +0.000 A 
ATOM      8  C   UNL     1       1.748   9.553  18.049  0.00  0.00    +0.000 A 
ATOM      9  C   UNL     1       2.206   8.300  17.647  0.00  0.00    +0.000 A 
ATOM     10  C   UNL     1       2.269   7.220  18.544  0.00  0.00    +0.000 A 
ATOM     11  C   UNL     1       1.818   7.446  19.859  0.00  0.00    +0.000 A 
ATOM     12  C   UNL     1       1.307   8.693  20.254  0.00  0.00    +0.000 A 
BRANCH   7  13
ATOM     13  O   UNL     1       0.668  10.927  19.741  0.00  0.00    +0.000 OA
BRANCH  13  17
ATOM     14  C   UNL     1      -3.277  11.521  18.487  0.00  0.00    +0.000 A 
ATOM     15  C   UNL     1      -2.775  12.281  19.546  0.00  0.00    +0.000 A 
ATOM     16  C   UNL     1      -1.444  12.140  19.934  0.00  0.00    +0.000 A 
ATOM     17  C   UNL     1      -0.625  11.181  19.322  0.00  0.00    +0.000 A 
ATOM     18  C   UNL     1      -1.115  10.441  18.244  0.00  0.00    +0.000 A 
ATOM     19  C   UNL     1      -2.440  10.615  17.824  0.00  0.00    +0.000 A 
BRANCH  14  21
ATOM     20  N   UNL     1      -5.748  11.805  17.751  0.00  0.00    +0.000 NA
ATOM     21  C   UNL     1      -4.644  11.686  18.089  0.00  0.00    +0.000 C 
ENDBRANCH  14  21
ENDBRANCH  13  17
ENDBRANCH   7  13
ENDBRANCH   1  10
BRANCH   5  22
ATOM     22  C   UNL     1       6.046   4.711  16.737  0.00  0.00    +0.000 C 
BRANCH  22  23
ATOM     23  O   UNL     1       6.277   3.465  16.054  0.00  0.00    +0.000 OA
ATOM     24  H   UNL     1       5.914   2.766  16.628  0.00  0.00    +0.000 HD
ENDBRANCH  22  23
BRANCH  22  25
ATOM     25  C   UNL     1       7.103   4.910  17.843  0.00  0.00    +0.000 C 
BRANCH  25  26
ATOM     26  C   UNL     1       7.620   6.349  17.883  0.00  0.00    +0.000 C 
ATOM     27  N   UNL     1       8.260   6.694  19.043  0.00  0.00    +0.000 N 
ATOM     28  O   UNL     1       7.561   7.132  16.941  0.00  0.00    +0.000 OA
ATOM     29  H   UNL     1       8.641   5.967  19.635  0.00  0.00    +0.000 HD
ATOM     30  H   UNL     1       8.703   7.601  19.061  0.00  0.00    +0.000 HD
ENDBRANCH  25  26
BRANCH  25  31
ATOM     31  O   UNL     1       8.246   4.056  17.637  0.00  0.00    +0.000 OA
ATOM     32  H   UNL     1       7.908   3.141  17.600  0.00  0.00    +0.000 HD
ENDBRANCH  25  31
ENDBRANCH  22  25
ENDBRANCH   5  22
TORSDOF 9
ENDMDL
MODEL 8
REMARK VINA RESULT:      -8.2      1.691      2.224
REMARK  Name = 
REMARK  9 active torsions:
REMARK  status: ('A' for Active; 'I' for Inactive)
REMARK    1  A    between atoms: C_2  and  C_3
REMARK    2  A    between atoms: C_6  and  O_7
REMARK    3  A    between atoms: O_7  and  C_8
REMARK    4  A    between atoms: C_11  and  C_12
REMARK    5  A    between atoms: C_16  and  C_17
REMARK    6  A    between atoms: C_17  and  O_18
REMARK    7  A    between atoms: C_17  and  C_19
REMARK    8  A    between atoms: C_19  and  O_20
REMARK    9  A    between atoms: C_19  and  C_21
REMARK                            x       y       z     vdW  Elec       q    Type
REMARK                         _______ _______ _______ _____ _____    ______ ____
ROOT
ATOM      1  C   UNL     1       2.903   5.628  18.208  0.00  0.00    +0.000 A 
ATOM      2  C   UNL     1       2.099   4.488  18.321  0.00  0.00    +0.000 A 
ATOM      3  C   UNL     1       2.627   3.246  18.013  0.00  0.00    +0.000 A 
ATOM      4  C   UNL     1       3.937   3.156  17.569  0.00  0.00    +0.000 A 
ATOM      5  C   UNL     1       4.683   4.325  17.442  0.00  0.00    +0.000 A 
ATOM      6  N   UNL     1       4.192   5.547  17.789  0.00  0.00    +0.000 NA
ENDROOT
BRANCH   1  10
ATOM      7  C   UNL     1       1.428   9.576  19.116  0.00  0.00    +0.000 A 
ATOM      8  C   UNL     1       1.968   9.287  17.862  0.00  0.00    +0.000 A 
ATOM      9  C   UNL     1       2.396   7.996  17.562  0.00  0.00    +0.000 A 
ATOM     10  C   UNL     1       2.394   6.978  18.532  0.00  0.00    +0.000 A 
ATOM     11  C   UNL     1       1.909   7.308  19.812  0.00  0.00    +0.000 A 
ATOM     12  C   UNL     1       1.429   8.594  20.105  0.00  0.00    +0.000 A 
BRANCH   7  13
ATOM     13  O   UNL     1       0.882  10.807  19.421  0.00  0.00    +0.000 OA
BRANCH  13  17
ATOM     14  C   UNL     1      -3.142  11.541  18.551  0.00  0.00    +0.000 A 
ATOM     15  C   UNL     1      -2.442  10.596  17.798  0.00  0.00    +0.000 A 
ATOM     16  C   UNL     1      -1.119  10.294  18.117  0.00  0.00    +0.000 A 
ATOM     17  C   UNL     1      -0.459  10.992  19.138  0.00  0.00    +0.000 A 
ATOM     18  C   UNL     1      -1.164  11.916  19.910  0.00  0.00    +0.000 A 
ATOM     19  C   UNL     1      -2.508  12.188  19.619  0.00  0.00    +0.000 A 
BRANCH  14  21
ATOM     20  N   UNL     1      -5.617  12.061  17.972  0.00  0.00    +0.000 NA
ATOM     21  C   UNL     1      -4.506  11.833  18.221  0.00  0.00    +0.000 C 
ENDBRANCH  14  21
ENDBRANCH  13  17
ENDBRANCH   7  13
ENDBRANCH   1  10
BRANCH   5  22
ATOM     22  C   UNL     1       6.099   4.246  16.908  0.00  0.00    +0.000 C 
BRANCH  22  23
ATOM     23  O   UNL     1       7.010   4.278  18.022  0.00  0.00    +0.000 OA
ATOM     24  H   UNL     1       7.777   3.736  17.765  0.00  0.00    +0.000 HD
ENDBRANCH  22  23
BRANCH  22  25
ATOM     25  C   UNL     1       6.441   5.376  15.915  0.00  0.00    +0.000 C 
BRANCH  25  26
ATOM     26  C   UNL     1       6.869   4.827  14.553  0.00  0.00    +0.000 C 
ATOM     27  N   UNL     1       7.910   5.497  13.969  0.00  0.00    +0.000 N 
ATOM     28  O   UNL     1       6.398   3.820  14.034  0.00  0.00    +0.000 OA
ATOM     29  H   UNL     1       8.530   6.052  14.545  0.00  0.00    +0.000 HD
ATOM     30  H   UNL     1       8.284   5.096  13.120  0.00  0.00    +0.000 HD
ENDBRANCH  25  26
BRANCH  25  31
ATOM     31  O   UNL     1       7.525   6.192  16.401  0.00  0.00    +0.000 OA
ATOM     32  H   UNL     1       7.684   6.877  15.724  0.00  0.00    +0.000 HD
ENDBRANCH  25  31
ENDBRANCH  22  25
ENDBRANCH   5  22
TORSDOF 9
ENDMDL
MODEL 9
REMARK VINA RESULT:      -8.1      1.934      3.401
REMARK  Name = 
REMARK  9 active torsions:
REMARK  status: ('A' for Active; 'I' for Inactive)
REMARK    1  A    between atoms: C_2  and  C_3
REMARK    2  A    between atoms: C_6  and  O_7
REMARK    3  A    between atoms: O_7  and  C_8
REMARK    4  A    between atoms: C_11  and  C_12
REMARK    5  A    between atoms: C_16  and  C_17
REMARK    6  A    between atoms: C_17  and  O_18
REMARK    7  A    between atoms: C_17  and  C_19
REMARK    8  A    between atoms: C_19  and  O_20
REMARK    9  A    between atoms: C_19  and  C_21
REMARK                            x       y       z     vdW  Elec       q    Type
REMARK                         _______ _______ _______ _____ _____    ______ ____
ROOT
ATOM      1  C   UNL     1       3.569   6.338  17.584  0.00  0.00    +0.000 A 
ATOM      2  C   UNL     1       4.654   6.633  16.751  0.00  0.00    +0.000 A 
ATOM      3  C   UNL     1       5.367   5.602  16.163  0.00  0.00    +0.000 A 
ATOM      4  C   UNL     1       5.011   4.290  16.435  0.00  0.00    +0.000 A 
ATOM      5  C   UNL     1       3.945   4.050  17.298  0.00  0.00    +0.000 A 
ATOM      6  N   UNL     1       3.205   5.055  17.843  0.00  0.00    +0.000 NA
ENDROOT
BRANCH   1  10
ATOM      7  C   UNL     1       1.236   9.452  19.438  0.00  0.00    +0.000 A 
ATOM      8  C   UNL     1       1.775   9.628  18.163  0.00  0.00    +0.000 A 
ATOM      9  C   UNL     1       2.485   8.597  17.553  0.00  0.00    +0.000 A 
ATOM     10  C   UNL     1       2.768   7.398  18.230  0.00  0.00    +0.000 A 
ATOM     11  C   UNL     1       2.274   7.268  19.543  0.00  0.00    +0.000 A 
ATOM     12  C   UNL     1       1.513   8.283  20.144  0.00  0.00    +0.000 A 
BRANCH   7  13
ATOM     13  O   UNL     1       0.426  10.397  20.036  0.00  0.00    +0.000 OA
BRANCH  13  17
ATOM     14  C   UNL     1      -3.205  11.353  18.195  0.00  0.00    +0.000 A 
ATOM     15  C   UNL     1      -2.468  10.263  17.726  0.00  0.00    +0.000 A 
ATOM     16  C   UNL     1      -1.289   9.893  18.370  0.00  0.00    +0.000 A 
ATOM     17  C   UNL     1      -0.792  10.657  19.435  0.00  0.00    +0.000 A 
ATOM     18  C   UNL     1      -1.541  11.729  19.923  0.00  0.00    +0.000 A 
ATOM     19  C   UNL     1      -2.750  12.074  19.305  0.00  0.00    +0.000 A 
BRANCH  14  21
ATOM     20  N   UNL     1      -5.420  11.995  17.008  0.00  0.00    +0.000 NA
ATOM     21  C   UNL     1      -4.423  11.715  17.532  0.00  0.00    +0.000 C 
ENDBRANCH  14  21
ENDBRANCH  13  17
ENDBRANCH   7  13
ENDBRANCH   1  10
BRANCH   5  22
ATOM     22  C   UNL     1       3.578   2.620  17.644  0.00  0.00    +0.000 C 
BRANCH  22  23
ATOM     23  O   UNL     1       2.187   2.418  17.335  0.00  0.00    +0.000 OA
ATOM     24  H   UNL     1       2.161   1.810  16.574  0.00  0.00    +0.000 HD
ENDBRANCH  22  23
BRANCH  22  25
ATOM     25  C   UNL     1       3.849   2.262  19.120  0.00  0.00    +0.000 C 
BRANCH  25  26
ATOM     26  C   UNL     1       2.671   2.635  20.021  0.00  0.00    +0.000 C 
ATOM     27  N   UNL     1       2.850   3.780  20.750  0.00  0.00    +0.000 N 
ATOM     28  O   UNL     1       1.604   2.031  20.052  0.00  0.00    +0.000 OA
ATOM     29  H   UNL     1       3.532   4.462  20.445  0.00  0.00    +0.000 HD
ATOM     30  H   UNL     1       2.052   4.110  21.275  0.00  0.00    +0.000 HD
ENDBRANCH  25  26
BRANCH  25  31
ATOM     31  O   UNL     1       5.005   2.956  19.626  0.00  0.00    +0.000 OA
ATOM     32  H   UNL     1       4.836   3.909  19.500  0.00  0.00    +0.000 HD
ENDBRANCH  25  31
ENDBRANCH  22  25
ENDBRANCH   5  22
TORSDOF 9
ENDMDL
