MODEL 1
REMARK VINA RESULT:      -7.8      0.000      0.000
REMARK  Name = 
REMARK  4 active torsions:
REMARK  status: ('A' for Active; 'I' for Inactive)
REMARK    1  A    between atoms: C_3  and  C_4
REMARK    2  A    between atoms: N_15  and  C_16
REMARK    3  A    between atoms: C_16  and  C_17
REMARK    4  A    between atoms: C_17  and  C_18
REMARK                            x       y       z     vdW  Elec       q    Type
REMARK                         _______ _______ _______ _____ _____    ______ ____
ROOT
ATOM      1  O   UNL     1       1.589   5.773  20.571  0.00  0.00    +0.000 OA
ATOM      2  C   UNL     1       2.069   6.484  19.708  0.00  0.00    +0.000 C 
ATOM      3  C   UNL     1       1.826   7.893  19.520  0.00  0.00    +0.000 C 
ATOM      4  C   UNL     1       2.516   8.252  18.448  0.00  0.00    +0.000 C 
ATOM      5  O   UNL     1       3.202   7.209  17.921  0.00  0.00    +0.000 OA
ATOM      6  C   UNL     1       3.115   6.085  18.734  0.00  0.00    +0.000 C 
ATOM      7  C   UNL     1       2.755   4.799  17.972  0.00  0.00    +0.000 C 
ATOM      8  C   UNL     1       3.897   4.403  17.023  0.00  0.00    +0.000 C 
ATOM      9  N   UNL     1       5.193   4.277  17.741  0.00  0.00    +0.000 NA
ATOM     10  C   UNL     1       5.529   5.543  18.432  0.00  0.00    +0.000 C 
ATOM     11  C   UNL     1       4.451   5.890  19.454  0.00  0.00    +0.000 C 
ENDROOT
BRANCH   3  12
ATOM     12  C   UNL     1       1.085   8.783  20.425  0.00  0.00    +0.000 A 
ATOM     13  C   UNL     1       0.250   9.787  19.929  0.00  0.00    +0.000 A 
ATOM     14  C   UNL     1      -0.457  10.610  20.812  0.00  0.00    +0.000 A 
ATOM     15  C   UNL     1      -0.337  10.420  22.196  0.00  0.00    +0.000 A 
ATOM     16  C   UNL     1       0.490   9.412  22.695  0.00  0.00    +0.000 A 
ATOM     17  C   UNL     1       1.204   8.595  21.814  0.00  0.00    +0.000 A 
ENDBRANCH   3  12
BRANCH   9  18
ATOM     18  C   UNL     1       6.245   3.895  16.768  0.00  0.00    +0.000 C 
BRANCH  18  19
ATOM     19  C   UNL     1       6.756   5.068  15.902  0.00  0.00    +0.000 C 
BRANCH  19  20
ATOM     20  C   UNL     1       6.805   4.733  14.431  0.00  0.00    +0.000 A 
ATOM     21  C   UNL     1       7.699   5.408  13.582  0.00  0.00    +0.000 A 
ATOM     22  C   UNL     1       7.761   5.086  12.223  0.00  0.00    +0.000 A 
ATOM     23  C   UNL     1       6.932   4.091  11.700  0.00  0.00    +0.000 A 
ATOM     24  C   UNL     1       6.039   3.414  12.536  0.00  0.00    +0.000 A 
ATOM     25  C   UNL     1       5.975   3.730  13.896  0.00  0.00    +0.000 A 
ENDBRANCH  19  20
ENDBRANCH  18  19
ENDBRANCH   9  18
TORSDOF 4
ENDMDL
MODEL 2
REMARK VINA RESULT:      -7.7      0.321      1.401
REMARK  Name = 
REMARK  4 active torsions:
REMARK  status: ('A' for Active; 'I' for Inactive)
REMARK    1  A    between atoms: C_3  and  C_4
REMARK    2  A    between atoms: N_15  and  C_16
REMARK    3  A    between atoms: C_16  and  C_17
REMARK    4  A    between atoms: C_17  and  C_18
REMARK                            x       y       z     vdW  Elec       q    Type
REMARK                         _______ _______ _______ _____ _____    ______ ____
ROOT
ATOM      1  O   UNL     1       1.561   5.913  20.832  0.00  0.00    +0.000 OA
ATOM      2  C   UNL     1       1.940   6.590  19.895  0.00  0.00    +0.000 C 
ATOM      3  C   UNL     1       1.656   7.987  19.672  0.00  0.00    +0.000 C 
ATOM      4  C   UNL     1       2.228   8.306  18.521  0.00  0.00    +0.000 C 
ATOM      5  O   UNL     1       2.874   7.249  17.971  0.00  0.00    +0.000 OA
ATOM      6  C   UNL     1       2.888   6.161  18.837  0.00  0.00    +0.000 C 
ATOM      7  C   UNL     1       2.473   4.839  18.171  0.00  0.00    +0.000 C 
ATOM      8  C   UNL     1       3.520   4.415  17.128  0.00  0.00    +0.000 C 
ATOM      9  N   UNL     1       4.884   4.336  17.714  0.00  0.00    +0.000 NA
ATOM     10  C   UNL     1       5.267   5.635  18.313  0.00  0.00    +0.000 C 
ATOM     11  C   UNL     1       4.293   6.014  19.424  0.00  0.00    +0.000 C 
ENDROOT
BRANCH   3  12
ATOM     12  C   UNL     1       0.996   8.906  20.610  0.00  0.00    +0.000 A 
ATOM     13  C   UNL     1       0.986   8.654  21.984  0.00  0.00    +0.000 A 
ATOM     14  C   UNL     1       0.365   9.553  22.856  0.00  0.00    +0.000 A 
ATOM     15  C   UNL     1      -0.238  10.715  22.354  0.00  0.00    +0.000 A 
ATOM     16  C   UNL     1      -0.223  10.974  20.982  0.00  0.00    +0.000 A 
ATOM     17  C   UNL     1       0.390  10.073  20.109  0.00  0.00    +0.000 A 
ENDBRANCH   3  12
BRANCH   9  18
ATOM     18  C   UNL     1       5.837   3.924  16.656  0.00  0.00    +0.000 C 
BRANCH  18  19
ATOM     19  C   UNL     1       6.305   5.081  15.746  0.00  0.00    +0.000 C 
BRANCH  19  20
ATOM     20  C   UNL     1       6.511   4.655  14.313  0.00  0.00    +0.000 A 
ATOM     21  C   UNL     1       5.651   3.711  13.726  0.00  0.00    +0.000 A 
ATOM     22  C   UNL     1       5.827   3.329  12.393  0.00  0.00    +0.000 A 
ATOM     23  C   UNL     1       6.861   3.883  11.635  0.00  0.00    +0.000 A 
ATOM     24  C   UNL     1       7.722   4.823  12.209  0.00  0.00    +0.000 A 
ATOM     25  C   UNL     1       7.549   5.210  13.542  0.00  0.00    +0.000 A 
ENDBRANCH  19  20
ENDBRANCH  18  19
ENDBRANCH   9  18
TORSDOF 4
ENDMDL
MODEL 3
REMARK VINA RESULT:      -7.5      1.627      8.421
REMARK  Name = 
REMARK  4 active torsions:
REMARK  status: ('A' for Active; 'I' for Inactive)
REMARK    1  A    between atoms: C_3  and  C_4
REMARK    2  A    between atoms: N_15  and  C_16
REMARK    3  A    between atoms: C_16  and  C_17
REMARK    4  A    between atoms: C_17  and  C_18
REMARK                            x       y       z     vdW  Elec       q    Type
REMARK                         _______ _______ _______ _____ _____    ______ ____
ROOT
ATOM      1  O   UNL     1       5.399   2.966  16.638  0.00  0.00    +0.000 OA
ATOM      2  C   UNL     1       5.135   4.152  16.559  0.00  0.00    +0.000 C 
ATOM      3  C   UNL     1       5.485   5.042  15.480  0.00  0.00    +0.000 C 
ATOM      4  C   UNL     1       5.038   6.240  15.822  0.00  0.00    +0.000 C 
ATOM      5  O   UNL     1       4.413   6.217  17.026  0.00  0.00    +0.000 OA
ATOM      6  C   UNL     1       4.280   4.918  17.500  0.00  0.00    +0.000 C 
ATOM      7  C   UNL     1       4.713   4.749  18.965  0.00  0.00    +0.000 C 
ATOM      8  C   UNL     1       3.759   5.514  19.896  0.00  0.00    +0.000 C 
ATOM      9  N   UNL     1       2.342   5.112  19.687  0.00  0.00    +0.000 NA
ATOM     10  C   UNL     1       1.947   5.322  18.275  0.00  0.00    +0.000 C 
ATOM     11  C   UNL     1       2.821   4.483  17.350  0.00  0.00    +0.000 C 
ENDROOT
BRANCH   3  12
ATOM     12  C   UNL     1       6.082   4.663  14.191  0.00  0.00    +0.000 A 
ATOM     13  C   UNL     1       7.303   5.198  13.775  0.00  0.00    +0.000 A 
ATOM     14  C   UNL     1       7.857   4.809  12.551  0.00  0.00    +0.000 A 
ATOM     15  C   UNL     1       7.192   3.872  11.745  0.00  0.00    +0.000 A 
ATOM     16  C   UNL     1       5.975   3.330  12.163  0.00  0.00    +0.000 A 
ATOM     17  C   UNL     1       5.417   3.725  13.381  0.00  0.00    +0.000 A 
ENDBRANCH   3  12
BRANCH   9  18
ATOM     18  C   UNL     1       1.482   5.887  20.613  0.00  0.00    +0.000 C 
BRANCH  18  19
ATOM     19  C   UNL     1       2.029   7.292  20.951  0.00  0.00    +0.000 C 
BRANCH  19  20
ATOM     20  C   UNL     1       1.321   8.393  20.200  0.00  0.00    +0.000 A 
ATOM     21  C   UNL     1       1.703   8.711  18.886  0.00  0.00    +0.000 A 
ATOM     22  C   UNL     1       1.035   9.716  18.180  0.00  0.00    +0.000 A 
ATOM     23  C   UNL     1      -0.016  10.413  18.779  0.00  0.00    +0.000 A 
ATOM     24  C   UNL     1      -0.404  10.106  20.086  0.00  0.00    +0.000 A 
ATOM     25  C   UNL     1       0.259   9.099  20.795  0.00  0.00    +0.000 A 
ENDBRANCH  19  20
ENDBRANCH  18  19
ENDBRANCH   9  18
TORSDOF 4
ENDMDL
MODEL 4
REMARK VINA RESULT:      -7.5      1.539      9.102
REMARK  Name = 
REMARK  4 active torsions:
REMARK  status: ('A' for Active; 'I' for Inactive)
REMARK    1  A    between atoms: C_3  and  C_4
REMARK    2  A    between atoms: N_15  and  C_16
REMARK    3  A    between atoms: C_16  and  C_17
REMARK    4  A    between atoms: C_17  and  C_18
REMARK                            x       y       z     vdW  Elec       q    Type
REMARK                         _______ _______ _______ _____ _____    ______ ____
ROOT
ATOM      1  O   UNL     1       4.946   3.058  16.703  0.00  0.00    +0.000 OA
ATOM      2  C   UNL     1       4.908   4.272  16.625  0.00  0.00    +0.000 C 
ATOM      3  C   UNL     1       5.429   5.083  15.551  0.00  0.00    +0.000 C 
ATOM      4  C   UNL     1       5.209   6.343  15.893  0.00  0.00    +0.000 C 
ATOM      5  O   UNL     1       4.578   6.436  17.089  0.00  0.00    +0.000 OA
ATOM      6  C   UNL     1       4.200   5.183  17.558  0.00  0.00    +0.000 C 
ATOM      7  C   UNL     1       4.578   4.936  19.028  0.00  0.00    +0.000 C 
ATOM      8  C   UNL     1       3.773   5.865  19.950  0.00  0.00    +0.000 C 
ATOM      9  N   UNL     1       2.309   5.733  19.726  0.00  0.00    +0.000 NA
ATOM     10  C   UNL     1       1.975   6.015  18.310  0.00  0.00    +0.000 C 
ATOM     11  C   UNL     1       2.688   5.028  17.392  0.00  0.00    +0.000 C 
ENDROOT
BRANCH   3  12
ATOM     12  C   UNL     1       5.959   4.601  14.268  0.00  0.00    +0.000 A 
ATOM     13  C   UNL     1       5.238   3.698  13.482  0.00  0.00    +0.000 A 
ATOM     14  C   UNL     1       5.758   3.267  12.257  0.00  0.00    +0.000 A 
ATOM     15  C   UNL     1       6.996   3.749  11.811  0.00  0.00    +0.000 A 
ATOM     16  C   UNL     1       7.715   4.658  12.590  0.00  0.00    +0.000 A 
ATOM     17  C   UNL     1       7.201   5.083  13.818  0.00  0.00    +0.000 A 
ENDBRANCH   3  12
BRANCH   9  18
ATOM     18  C   UNL     1       1.598   6.654  20.645  0.00  0.00    +0.000 C 
BRANCH  18  19
ATOM     19  C   UNL     1       1.704   8.144  20.248  0.00  0.00    +0.000 C 
BRANCH  19  20
ATOM     20  C   UNL     1       0.811   9.036  21.075  0.00  0.00    +0.000 A 
ATOM     21  C   UNL     1       0.671   8.812  22.455  0.00  0.00    +0.000 A 
ATOM     22  C   UNL     1      -0.139   9.650  23.227  0.00  0.00    +0.000 A 
ATOM     23  C   UNL     1      -0.817  10.715  22.630  0.00  0.00    +0.000 A 
ATOM     24  C   UNL     1      -0.684  10.947  21.258  0.00  0.00    +0.000 A 
ATOM     25  C   UNL     1       0.127  10.114  20.482  0.00  0.00    +0.000 A 
ENDBRANCH  19  20
ENDBRANCH  18  19
ENDBRANCH   9  18
TORSDOF 4
ENDMDL
MODEL 5
REMARK VINA RESULT:      -7.1      4.539      7.177
REMARK  Name = 
REMARK  4 active torsions:
REMARK  status: ('A' for Active; 'I' for Inactive)
REMARK    1  A    between atoms: C_3  and  C_4
REMARK    2  A    between atoms: N_15  and  C_16
REMARK    3  A    between atoms: C_16  and  C_17
REMARK    4  A    between atoms: C_17  and  C_18
REMARK                            x       y       z     vdW  Elec       q    Type
REMARK                         _______ _______ _______ _____ _____    ______ ____
ROOT
ATOM      1  O   UNL     1      -1.448  12.420  18.271  0.00  0.00    +0.000 OA
ATOM      2  C   UNL     1      -0.424  12.558  18.914  0.00  0.00    +0.000 C 
ATOM      3  C   UNL     1       0.114  13.796  19.422  0.00  0.00    +0.000 C 
ATOM      4  C   UNL     1       1.253  13.491  20.023  0.00  0.00    +0.000 C 
ATOM      5  O   UNL     1       1.508  12.161  19.969  0.00  0.00    +0.000 OA
ATOM      6  C   UNL     1       0.434  11.463  19.431  0.00  0.00    +0.000 C 
ATOM      7  C   UNL     1       0.836  10.459  18.338  0.00  0.00    +0.000 C 
ATOM      8  C   UNL     1       1.672   9.319  18.941  0.00  0.00    +0.000 C 
ATOM      9  N   UNL     1       0.967   8.655  20.070  0.00  0.00    +0.000 NA
ATOM     10  C   UNL     1       0.628   9.642  21.121  0.00  0.00    +0.000 C 
ATOM     11  C   UNL     1      -0.289  10.721  20.557  0.00  0.00    +0.000 C 
ENDROOT
BRANCH   3  12
ATOM     12  C   UNL     1      -0.547  15.109  19.407  0.00  0.00    +0.000 A 
ATOM     13  C   UNL     1      -1.536  15.431  20.339  0.00  0.00    +0.000 A 
ATOM     14  C   UNL     1      -2.138  16.693  20.313  0.00  0.00    +0.000 A 
ATOM     15  C   UNL     1      -1.741  17.641  19.358  0.00  0.00    +0.000 A 
ATOM     16  C   UNL     1      -0.747  17.324  18.430  0.00  0.00    +0.000 A 
ATOM     17  C   UNL     1      -0.151  16.061  18.450  0.00  0.00    +0.000 A 
ENDBRANCH   3  12
BRANCH   9  18
ATOM     18  C   UNL     1       1.828   7.571  20.601  0.00  0.00    +0.000 C 
BRANCH  18  19
ATOM     19  C   UNL     1       2.522   6.727  19.508  0.00  0.00    +0.000 C 
BRANCH  19  20
ATOM     20  C   UNL     1       1.976   5.323  19.416  0.00  0.00    +0.000 A 
ATOM     21  C   UNL     1       1.970   4.647  18.185  0.00  0.00    +0.000 A 
ATOM     22  C   UNL     1       1.484   3.338  18.100  0.00  0.00    +0.000 A 
ATOM     23  C   UNL     1       0.998   2.696  19.242  0.00  0.00    +0.000 A 
ATOM     24  C   UNL     1       1.000   3.360  20.471  0.00  0.00    +0.000 A 
ATOM     25  C   UNL     1       1.488   4.667  20.562  0.00  0.00    +0.000 A 
ENDBRANCH  19  20
ENDBRANCH  18  19
ENDBRANCH   9  18
TORSDOF 4
ENDMDL
MODEL 6
REMARK VINA RESULT:      -7.1      0.976      1.754
REMARK  Name = 
REMARK  4 active torsions:
REMARK  status: ('A' for Active; 'I' for Inactive)
REMARK    1  A    between atoms: C_3  and  C_4
REMARK    2  A    between atoms: N_15  and  C_16
REMARK    3  A    between atoms: C_16  and  C_17
REMARK    4  A    between atoms: C_17  and  C_18
REMARK                            x       y       z     vdW  Elec       q    Type
REMARK                         _______ _______ _______ _____ _____    ______ ____
ROOT
ATOM      1  O   UNL     1       2.538   5.572  20.218  0.00  0.00    +0.000 OA
ATOM      2  C   UNL     1       2.763   6.278  19.253  0.00  0.00    +0.000 C 
ATOM      3  C   UNL     1       2.275   7.618  19.034  0.00  0.00    +0.000 C 
ATOM      4  C   UNL     1       2.727   7.993  17.848  0.00  0.00    +0.000 C 
ATOM      5  O   UNL     1       3.480   7.025  17.269  0.00  0.00    +0.000 OA
ATOM      6  C   UNL     1       3.696   5.965  18.142  0.00  0.00    +0.000 C 
ATOM      7  C   UNL     1       3.431   4.586  17.516  0.00  0.00    +0.000 C 
ATOM      8  C   UNL     1       4.462   4.293  16.415  0.00  0.00    +0.000 C 
ATOM      9  N   UNL     1       5.857   4.413  16.917  0.00  0.00    +0.000 NA
ATOM     10  C   UNL     1       6.090   5.764  17.479  0.00  0.00    +0.000 C 
ATOM     11  C   UNL     1       5.141   6.024  18.644  0.00  0.00    +0.000 C 
ENDROOT
BRANCH   3  12
ATOM     12  C   UNL     1       1.550   8.454  20.002  0.00  0.00    +0.000 A 
ATOM     13  C   UNL     1       1.562   8.156  21.367  0.00  0.00    +0.000 A 
ATOM     14  C   UNL     1       0.878   8.977  22.268  0.00  0.00    +0.000 A 
ATOM     15  C   UNL     1       0.188  10.107  21.805  0.00  0.00    +0.000 A 
ATOM     16  C   UNL     1       0.181  10.412  20.443  0.00  0.00    +0.000 A 
ATOM     17  C   UNL     1       0.858   9.588  19.540  0.00  0.00    +0.000 A 
ENDBRANCH   3  12
BRANCH   9  18
ATOM     18  C   UNL     1       6.794   4.118  15.806  0.00  0.00    +0.000 C 
BRANCH  18  19
ATOM     19  C   UNL     1       6.508   4.916  14.515  0.00  0.00    +0.000 C 
BRANCH  19  20
ATOM     20  C   UNL     1       6.199   4.029  13.334  0.00  0.00    +0.000 A 
ATOM     21  C   UNL     1       4.871   3.848  12.914  0.00  0.00    +0.000 A 
ATOM     22  C   UNL     1       4.583   3.044  11.807  0.00  0.00    +0.000 A 
ATOM     23  C   UNL     1       5.617   2.412  11.112  0.00  0.00    +0.000 A 
ATOM     24  C   UNL     1       6.942   2.585  11.522  0.00  0.00    +0.000 A 
ATOM     25  C   UNL     1       7.235   3.391  12.626  0.00  0.00    +0.000 A 
ENDBRANCH  19  20
ENDBRANCH  18  19
ENDBRANCH   9  18
TORSDOF 4
ENDMDL
MODEL 7
REMARK VINA RESULT:      -7.1      3.975      6.109
REMARK  Name = 
REMARK  4 active torsions:
REMARK  status: ('A' for Active; 'I' for Inactive)
REMARK    1  A    between atoms: C_3  and  C_4
REMARK    2  A    between atoms: N_15  and  C_16
REMARK    3  A    between atoms: C_16  and  C_17
REMARK    4  A    between atoms: C_17  and  C_18
REMARK                            x       y       z     vdW  Elec       q    Type
REMARK                         _______ _______ _______ _____ _____    ______ ____
ROOT
ATOM      1  O   UNL     1      -1.840  10.630  19.345  0.00  0.00    +0.000 OA
ATOM      2  C   UNL     1      -0.727  10.940  19.729  0.00  0.00    +0.000 C 
ATOM      3  C   UNL     1      -0.389  12.051  20.584  0.00  0.00    +0.000 C 
ATOM      4  C   UNL     1       0.929  12.037  20.713  0.00  0.00    +0.000 C 
ATOM      5  O   UNL     1       1.489  11.009  20.030  0.00  0.00    +0.000 OA
ATOM      6  C   UNL     1       0.518  10.163  19.506  0.00  0.00    +0.000 C 
ATOM      7  C   UNL     1       0.740   9.812  18.026  0.00  0.00    +0.000 C 
ATOM      8  C   UNL     1       2.009   8.960  17.864  0.00  0.00    +0.000 C 
ATOM      9  N   UNL     1       1.973   7.746  18.722  0.00  0.00    +0.000 NA
ATOM     10  C   UNL     1       1.796   8.121  20.144  0.00  0.00    +0.000 C 
ATOM     11  C   UNL     1       0.484   8.876  20.332  0.00  0.00    +0.000 C 
ENDROOT
BRANCH   3  12
ATOM     12  C   UNL     1      -1.332  12.928  21.293  0.00  0.00    +0.000 A 
ATOM     13  C   UNL     1      -2.098  13.873  20.605  0.00  0.00    +0.000 A 
ATOM     14  C   UNL     1      -2.999  14.684  21.301  0.00  0.00    +0.000 A 
ATOM     15  C   UNL     1      -3.144  14.543  22.688  0.00  0.00    +0.000 A 
ATOM     16  C   UNL     1      -2.385  13.595  23.378  0.00  0.00    +0.000 A 
ATOM     17  C   UNL     1      -1.478  12.789  22.685  0.00  0.00    +0.000 A 
ENDBRANCH   3  12
BRANCH   9  18
ATOM     18  C   UNL     1       3.223   6.976  18.516  0.00  0.00    +0.000 C 
BRANCH  18  19
ATOM     19  C   UNL     1       3.000   5.549  17.965  0.00  0.00    +0.000 C 
BRANCH  19  20
ATOM     20  C   UNL     1       2.375   4.621  18.977  0.00  0.00    +0.000 A 
ATOM     21  C   UNL     1       2.741   4.703  20.331  0.00  0.00    +0.000 A 
ATOM     22  C   UNL     1       2.149   3.858  21.275  0.00  0.00    +0.000 A 
ATOM     23  C   UNL     1       1.189   2.925  20.876  0.00  0.00    +0.000 A 
ATOM     24  C   UNL     1       0.818   2.836  19.532  0.00  0.00    +0.000 A 
ATOM     25  C   UNL     1       1.405   3.680  18.585  0.00  0.00    +0.000 A 
ENDBRANCH  19  20
ENDBRANCH  18  19
ENDBRANCH   9  18
TORSDOF 4
ENDMDL
MODEL 8
REMARK VINA RESULT:      -7.1      3.615     10.673
REMARK  Name = 
REMARK  4 active torsions:
REMARK  status: ('A' for Active; 'I' for Inactive)
REMARK    1  A    between atoms: C_3  and  C_4
REMARK    2  A    between atoms: N_15  and  C_16
REMARK    3  A    between atoms: C_16  and  C_17
REMARK    4  A    between atoms: C_17  and  C_18
REMARK                            x       y       z     vdW  Elec       q    Type
REMARK                         _______ _______ _______ _____ _____    ______ ____
ROOT
ATOM      1  O   UNL     1       1.538   7.783  20.746  0.00  0.00    +0.000 OA
ATOM      2  C   UNL     1       1.571   8.555  19.806  0.00  0.00    +0.000 C 
ATOM      3  C   UNL     1       2.209   8.334  18.532  0.00  0.00    +0.000 C 
ATOM      4  C   UNL     1       2.033   9.441  17.828  0.00  0.00    +0.000 C 
ATOM      5  O   UNL     1       1.326  10.369  18.519  0.00  0.00    +0.000 OA
ATOM      6  C   UNL     1       0.849   9.849  19.716  0.00  0.00    +0.000 C 
ATOM      7  C   UNL     1       1.110  10.758  20.929  0.00  0.00    +0.000 C 
ATOM      8  C   UNL     1       0.293  12.055  20.810  0.00  0.00    +0.000 C 
ATOM      9  N   UNL     1      -1.157  11.780  20.625  0.00  0.00    +0.000 NA
ATOM     10  C   UNL     1      -1.376  10.935  19.429  0.00  0.00    +0.000 C 
ATOM     11  C   UNL     1      -0.654   9.600  19.585  0.00  0.00    +0.000 C 
ENDROOT
BRANCH   3  12
ATOM     12  C   UNL     1       2.800   7.075  18.056  0.00  0.00    +0.000 A 
ATOM     13  C   UNL     1       4.064   7.049  17.463  0.00  0.00    +0.000 A 
ATOM     14  C   UNL     1       4.611   5.836  17.033  0.00  0.00    +0.000 A 
ATOM     15  C   UNL     1       3.896   4.642  17.208  0.00  0.00    +0.000 A 
ATOM     16  C   UNL     1       2.635   4.664  17.808  0.00  0.00    +0.000 A 
ATOM     17  C   UNL     1       2.084   5.877  18.230  0.00  0.00    +0.000 A 
ENDBRANCH   3  12
BRANCH   9  18
ATOM     18  C   UNL     1      -1.880  13.070  20.518  0.00  0.00    +0.000 C 
BRANCH  18  19
ATOM     19  C   UNL     1      -3.415  12.925  20.431  0.00  0.00    +0.000 C 
BRANCH  19  20
ATOM     20  C   UNL     1      -4.073  12.828  21.785  0.00  0.00    +0.000 A 
ATOM     21  C   UNL     1      -3.298  12.582  22.931  0.00  0.00    +0.000 A 
ATOM     22  C   UNL     1      -3.902  12.512  24.190  0.00  0.00    +0.000 A 
ATOM     23  C   UNL     1      -5.282  12.686  24.316  0.00  0.00    +0.000 A 
ATOM     24  C   UNL     1      -6.062  12.932  23.183  0.00  0.00    +0.000 A 
ATOM     25  C   UNL     1      -5.463  13.005  21.922  0.00  0.00    +0.000 A 
ENDBRANCH  19  20
ENDBRANCH  18  19
ENDBRANCH   9  18
TORSDOF 4
ENDMDL
MODEL 9
REMARK VINA RESULT:      -7.0      3.693     10.709
REMARK  Name = 
REMARK  4 active torsions:
REMARK  status: ('A' for Active; 'I' for Inactive)
REMARK    1  A    between atoms: C_3  and  C_4
REMARK    2  A    between atoms: N_15  and  C_16
REMARK    3  A    between atoms: C_16  and  C_17
REMARK    4  A    between atoms: C_17  and  C_18
REMARK                            x       y       z     vdW  Elec       q    Type
REMARK                         _______ _______ _______ _____ _____    ______ ____
ROOT
ATOM      1  O   UNL     1       1.534   7.761  20.775  0.00  0.00    +0.000 OA
ATOM      2  C   UNL     1       1.570   8.537  19.839  0.00  0.00    +0.000 C 
ATOM      3  C   UNL     1       2.214   8.322  18.566  0.00  0.00    +0.000 C 
ATOM      4  C   UNL     1       2.040   9.432  17.866  0.00  0.00    +0.000 C 
ATOM      5  O   UNL     1       1.328  10.355  18.558  0.00  0.00    +0.000 OA
ATOM      6  C   UNL     1       0.847   9.830  19.751  0.00  0.00    +0.000 C 
ATOM      7  C   UNL     1       1.100  10.734  20.969  0.00  0.00    +0.000 C 
ATOM      8  C   UNL     1       0.282  12.030  20.852  0.00  0.00    +0.000 C 
ATOM      9  N   UNL     1      -1.167  11.753  20.659  0.00  0.00    +0.000 NA
ATOM     10  C   UNL     1      -1.378  10.913  19.458  0.00  0.00    +0.000 C 
ATOM     11  C   UNL     1      -0.656   9.579  19.611  0.00  0.00    +0.000 C 
ENDROOT
BRANCH   3  12
ATOM     12  C   UNL     1       2.810   7.066  18.088  0.00  0.00    +0.000 A 
ATOM     13  C   UNL     1       2.132   5.851  18.212  0.00  0.00    +0.000 A 
ATOM     14  C   UNL     1       2.714   4.673  17.735  0.00  0.00    +0.000 A 
ATOM     15  C   UNL     1       3.974   4.711  17.120  0.00  0.00    +0.000 A 
ATOM     16  C   UNL     1       4.650   5.925  16.987  0.00  0.00    +0.000 A 
ATOM     17  C   UNL     1       4.073   7.102  17.471  0.00  0.00    +0.000 A 
ENDBRANCH   3  12
BRANCH   9  18
ATOM     18  C   UNL     1      -1.891  13.043  20.554  0.00  0.00    +0.000 C 
BRANCH  18  19
ATOM     19  C   UNL     1      -3.407  12.894  20.298  0.00  0.00    +0.000 C 
BRANCH  19  20
ATOM     20  C   UNL     1      -4.217  12.870  21.571  0.00  0.00    +0.000 A 
ATOM     21  C   UNL     1      -3.574  12.930  22.819  0.00  0.00    +0.000 A 
ATOM     22  C   UNL     1      -4.323  12.930  23.999  0.00  0.00    +0.000 A 
ATOM     23  C   UNL     1      -5.717  12.867  23.945  0.00  0.00    +0.000 A 
ATOM     24  C   UNL     1      -6.367  12.807  22.709  0.00  0.00    +0.000 A 
ATOM     25  C   UNL     1      -5.623  12.810  21.525  0.00  0.00    +0.000 A 
ENDBRANCH  19  20
ENDBRANCH  18  19
ENDBRANCH   9  18
TORSDOF 4
ENDMDL
