MODEL 1
REMARK VINA RESULT:      -7.0      0.000      0.000
REMARK  Name = 
REMARK  12 active torsions:
REMARK  status: ('A' for Active; 'I' for Inactive)
REMARK    1  A    between atoms: C_1  and  O_2
REMARK    2  A    between atoms: O_2  and  C_3
REMARK    3  A    between atoms: C_3  and  C_5
REMARK    4  A    between atoms: C_5  and  C_15
REMARK    5  A    between atoms: C_6  and  C_7
REMARK    6  A    between atoms: C_10  and  O_11
REMARK    7  A    between atoms: O_11  and  C_12
REMARK    8  A    between atoms: C_15  and  C_16
REMARK    9  A    between atoms: C_16  and  C_17
REMARK   10  A    between atoms: C_17  and  P_18
REMARK   11  A    between atoms: P_18  and  O_20
REMARK   12  A    between atoms: P_18  and  O_21
REMARK                            x       y       z     vdW  Elec       q    Type
REMARK                         _______ _______ _______ _____ _____    ______ ____
ROOT
ATOM      1  C   UNL     1       5.412   4.787  15.510  0.00  0.00    +0.000 C 
ATOM      2  C   UNL     1       4.991   3.721  16.221  0.00  0.00    +0.000 C 
ENDROOT
BRANCH   2   3
ATOM      3  C   UNL     1       4.037   3.651  17.335  0.00  0.00    +0.000 A 
ATOM      4  C   UNL     1       2.679   3.907  17.103  0.00  0.00    +0.000 A 
ATOM      5  C   UNL     1       1.723   3.601  18.077  0.00  0.00    +0.000 A 
ATOM      6  C   UNL     1       2.107   3.014  19.282  0.00  0.00    +0.000 A 
ATOM      7  C   UNL     1       3.464   2.822  19.547  0.00  0.00    +0.000 A 
ATOM      8  C   UNL     1       4.427   3.136  18.574  0.00  0.00    +0.000 A 
BRANCH   6   9
ATOM      9  O   UNL     1       1.087   2.691  20.136  0.00  0.00    +0.000 OA
ATOM     10  C   UNL     1       1.409   2.767  21.524  0.00  0.00    +0.000 C 
ENDBRANCH   6   9
ENDBRANCH   2   3
BRANCH   1  11
ATOM     11  C   UNL     1       6.300   4.552  14.318  0.00  0.00    +0.000 C 
ATOM     12  O   UNL     1       6.169   3.599  13.562  0.00  0.00    +0.000 OA
BRANCH  11  14
ATOM     13  C   UNL     1       8.046   5.381  13.005  0.00  0.00    +0.000 C 
ATOM     14  O   UNL     1       7.282   5.485  14.209  0.00  0.00    +0.000 OA
ENDBRANCH  11  14
ENDBRANCH   1  11
BRANCH   1  15
ATOM     15  C   UNL     1       5.015   6.235  15.730  0.00  0.00    +0.000 C 
BRANCH  15  16
ATOM     16  C   UNL     1       5.355   6.834  17.114  0.00  0.00    +0.000 C 
BRANCH  16  17
ATOM     17  C   UNL     1       6.840   6.816  17.450  0.00  0.00    +0.000 C 
BRANCH  17  18
ATOM     18  P   UNL     1       7.461   5.633  18.613  0.00  0.00    +0.000 P 
ATOM     19  O   UNL     1       8.043   4.367  18.071  0.00  0.00    +0.000 OA
BRANCH  18  20
ATOM     20  O   UNL     1       8.576   6.465  19.412  0.00  0.00    +0.000 OA
ATOM     21  H   UNL     1       8.431   6.479  20.374  0.00  0.00    +0.000 HD
ENDBRANCH  18  20
BRANCH  18  22
ATOM     22  O   UNL     1       6.386   5.366  19.766  0.00  0.00    +0.000 OA
ATOM     23  H   UNL     1       6.733   4.773  20.464  0.00  0.00    +0.000 HD
ENDBRANCH  18  22
ENDBRANCH  17  18
ENDBRANCH  16  17
ENDBRANCH  15  16
ENDBRANCH   1  15
TORSDOF 10
ENDMDL
MODEL 2
REMARK VINA RESULT:      -6.9      0.846      1.690
REMARK  Name = 
REMARK  12 active torsions:
REMARK  status: ('A' for Active; 'I' for Inactive)
REMARK    1  A    between atoms: C_1  and  O_2
REMARK    2  A    between atoms: O_2  and  C_3
REMARK    3  A    between atoms: C_3  and  C_5
REMARK    4  A    between atoms: C_5  and  C_15
REMARK    5  A    between atoms: C_6  and  C_7
REMARK    6  A    between atoms: C_10  and  O_11
REMARK    7  A    between atoms: O_11  and  C_12
REMARK    8  A    between atoms: C_15  and  C_16
REMARK    9  A    between atoms: C_16  and  C_17
REMARK   10  A    between atoms: C_17  and  P_18
REMARK   11  A    between atoms: P_18  and  O_20
REMARK   12  A    between atoms: P_18  and  O_21
REMARK                            x       y       z     vdW  Elec       q    Type
REMARK                         _______ _______ _______ _____ _____    ______ ____
ROOT
ATOM      1  C   UNL     1       5.299   4.777  15.755  0.00  0.00    +0.000 C 
ATOM      2  C   UNL     1       4.689   3.670  16.228  0.00  0.00    +0.000 C 
ENDROOT
BRANCH   2   3
ATOM      3  C   UNL     1       3.567   3.543  17.165  0.00  0.00    +0.000 A 
ATOM      4  C   UNL     1       3.434   2.381  17.937  0.00  0.00    +0.000 A 
ATOM      5  C   UNL     1       2.536   2.338  19.007  0.00  0.00    +0.000 A 
ATOM      6  C   UNL     1       1.777   3.461  19.336  0.00  0.00    +0.000 A 
ATOM      7  C   UNL     1       1.853   4.597  18.529  0.00  0.00    +0.000 A 
ATOM      8  C   UNL     1       2.748   4.640  17.448  0.00  0.00    +0.000 A 
BRANCH   6   9
ATOM      9  O   UNL     1       0.982   3.336  20.443  0.00  0.00    +0.000 OA
ATOM     10  C   UNL     1       1.602   2.718  21.570  0.00  0.00    +0.000 C 
ENDBRANCH   6   9
ENDBRANCH   2   3
BRANCH   1  11
ATOM     11  C   UNL     1       6.346   4.621  14.686  0.00  0.00    +0.000 C 
ATOM     12  O   UNL     1       7.451   5.145  14.747  0.00  0.00    +0.000 OA
BRANCH  11  14
ATOM     13  C   UNL     1       6.800   3.882  12.517  0.00  0.00    +0.000 C 
ATOM     14  O   UNL     1       5.909   3.879  13.635  0.00  0.00    +0.000 OA
ENDBRANCH  11  14
ENDBRANCH   1  11
BRANCH   1  15
ATOM     15  C   UNL     1       4.985   6.213  16.131  0.00  0.00    +0.000 C 
BRANCH  15  16
ATOM     16  C   UNL     1       5.446   6.669  17.534  0.00  0.00    +0.000 C 
BRANCH  16  17
ATOM     17  C   UNL     1       6.944   6.537  17.768  0.00  0.00    +0.000 C 
BRANCH  17  18
ATOM     18  P   UNL     1       7.571   5.145  18.666  0.00  0.00    +0.000 P 
ATOM     19  O   UNL     1       8.463   5.418  19.836  0.00  0.00    +0.000 OA
BRANCH  18  20
ATOM     20  O   UNL     1       6.237   4.393  19.143  0.00  0.00    +0.000 OA
ATOM     21  H   UNL     1       6.357   3.435  19.265  0.00  0.00    +0.000 HD
ENDBRANCH  18  20
BRANCH  18  22
ATOM     22  O   UNL     1       8.194   4.067  17.662  0.00  0.00    +0.000 OA
ATOM     23  H   UNL     1       9.157   4.194  17.535  0.00  0.00    +0.000 HD
ENDBRANCH  18  22
ENDBRANCH  17  18
ENDBRANCH  16  17
ENDBRANCH  15  16
ENDBRANCH   1  15
TORSDOF 10
ENDMDL
MODEL 3
REMARK VINA RESULT:      -6.8      4.070      5.848
REMARK  Name = 
REMARK  12 active torsions:
REMARK  status: ('A' for Active; 'I' for Inactive)
REMARK    1  A    between atoms: C_1  and  O_2
REMARK    2  A    between atoms: O_2  and  C_3
REMARK    3  A    between atoms: C_3  and  C_5
REMARK    4  A    between atoms: C_5  and  C_15
REMARK    5  A    between atoms: C_6  and  C_7
REMARK    6  A    between atoms: C_10  and  O_11
REMARK    7  A    between atoms: O_11  and  C_12
REMARK    8  A    between atoms: C_15  and  C_16
REMARK    9  A    between atoms: C_16  and  C_17
REMARK   10  A    between atoms: C_17  and  P_18
REMARK   11  A    between atoms: P_18  and  O_20
REMARK   12  A    between atoms: P_18  and  O_21
REMARK                            x       y       z     vdW  Elec       q    Type
REMARK                         _______ _______ _______ _____ _____    ______ ____
ROOT
ATOM      1  C   UNL     1       3.208   5.070  17.993  0.00  0.00    +0.000 C 
ATOM      2  C   UNL     1       3.391   6.328  18.447  0.00  0.00    +0.000 C 
ENDROOT
BRANCH   2   3
ATOM      3  C   UNL     1       2.408   7.383  18.717  0.00  0.00    +0.000 A 
ATOM      4  C   UNL     1       1.953   7.590  20.026  0.00  0.00    +0.000 A 
ATOM      5  C   UNL     1       1.222   8.737  20.350  0.00  0.00    +0.000 A 
ATOM      6  C   UNL     1       0.957   9.703  19.379  0.00  0.00    +0.000 A 
ATOM      7  C   UNL     1       1.346   9.468  18.059  0.00  0.00    +0.000 A 
ATOM      8  C   UNL     1       2.073   8.313  17.729  0.00  0.00    +0.000 A 
BRANCH   6   9
ATOM      9  O   UNL     1       0.296  10.818  19.817  0.00  0.00    +0.000 OA
ATOM     10  C   UNL     1       0.551  11.182  21.172  0.00  0.00    +0.000 C 
ENDBRANCH   6   9
ENDBRANCH   2   3
BRANCH   1  11
ATOM     11  C   UNL     1       4.392   4.144  17.938  0.00  0.00    +0.000 C 
ATOM     12  O   UNL     1       5.123   3.933  18.897  0.00  0.00    +0.000 OA
BRANCH  11  14
ATOM     13  C   UNL     1       5.329   4.456  15.821  0.00  0.00    +0.000 C 
ATOM     14  O   UNL     1       4.582   3.614  16.702  0.00  0.00    +0.000 OA
ENDBRANCH  11  14
ENDBRANCH   1  11
BRANCH   1  15
ATOM     15  C   UNL     1       1.888   4.436  17.596  0.00  0.00    +0.000 C 
BRANCH  15  16
ATOM     16  C   UNL     1       1.469   3.176  18.388  0.00  0.00    +0.000 C 
BRANCH  16  17
ATOM     17  C   UNL     1       0.913   3.472  19.774  0.00  0.00    +0.000 C 
BRANCH  17  18
ATOM     18  P   UNL     1       1.946   3.256  21.197  0.00  0.00    +0.000 P 
ATOM     19  O   UNL     1       1.372   2.518  22.364  0.00  0.00    +0.000 OA
BRANCH  18  20
ATOM     20  O   UNL     1       3.213   2.471  20.605  0.00  0.00    +0.000 OA
ATOM     21  H   UNL     1       2.980   1.625  20.183  0.00  0.00    +0.000 HD
ENDBRANCH  18  20
BRANCH  18  22
ATOM     22  O   UNL     1       2.611   4.647  21.621  0.00  0.00    +0.000 OA
ATOM     23  H   UNL     1       2.683   5.268  20.866  0.00  0.00    +0.000 HD
ENDBRANCH  18  22
ENDBRANCH  17  18
ENDBRANCH  16  17
ENDBRANCH  15  16
ENDBRANCH   1  15
TORSDOF 10
ENDMDL
MODEL 4
REMARK VINA RESULT:      -6.8      0.733      1.069
REMARK  Name = 
REMARK  12 active torsions:
REMARK  status: ('A' for Active; 'I' for Inactive)
REMARK    1  A    between atoms: C_1  and  O_2
REMARK    2  A    between atoms: O_2  and  C_3
REMARK    3  A    between atoms: C_3  and  C_5
REMARK    4  A    between atoms: C_5  and  C_15
REMARK    5  A    between atoms: C_6  and  C_7
REMARK    6  A    between atoms: C_10  and  O_11
REMARK    7  A    between atoms: O_11  and  C_12
REMARK    8  A    between atoms: C_15  and  C_16
REMARK    9  A    between atoms: C_16  and  C_17
REMARK   10  A    between atoms: C_17  and  P_18
REMARK   11  A    between atoms: P_18  and  O_20
REMARK   12  A    between atoms: P_18  and  O_21
REMARK                            x       y       z     vdW  Elec       q    Type
REMARK                         _______ _______ _______ _____ _____    ______ ____
ROOT
ATOM      1  C   UNL     1       5.690   4.808  15.800  0.00  0.00    +0.000 C 
ATOM      2  C   UNL     1       5.263   3.713  16.464  0.00  0.00    +0.000 C 
ENDROOT
BRANCH   2   3
ATOM      3  C   UNL     1       4.239   3.586  17.507  0.00  0.00    +0.000 A 
ATOM      4  C   UNL     1       2.897   3.846  17.199  0.00  0.00    +0.000 A 
ATOM      5  C   UNL     1       1.881   3.491  18.092  0.00  0.00    +0.000 A 
ATOM      6  C   UNL     1       2.190   2.849  19.291  0.00  0.00    +0.000 A 
ATOM      7  C   UNL     1       3.528   2.651  19.635  0.00  0.00    +0.000 A 
ATOM      8  C   UNL     1       4.550   3.015  18.745  0.00  0.00    +0.000 A 
BRANCH   6   9
ATOM      9  O   UNL     1       1.118   2.482  20.059  0.00  0.00    +0.000 OA
ATOM     10  C   UNL     1       1.237   2.780  21.450  0.00  0.00    +0.000 C 
ENDBRANCH   6   9
ENDBRANCH   2   3
BRANCH   1  11
ATOM     11  C   UNL     1       6.666   4.629  14.669  0.00  0.00    +0.000 C 
ATOM     12  O   UNL     1       7.528   5.452  14.391  0.00  0.00    +0.000 OA
BRANCH  11  14
ATOM     13  C   UNL     1       6.125   3.696  12.597  0.00  0.00    +0.000 C 
ATOM     14  O   UNL     1       6.451   3.482  13.972  0.00  0.00    +0.000 OA
ENDBRANCH  11  14
ENDBRANCH   1  11
BRANCH   1  15
ATOM     15  C   UNL     1       5.223   6.235  16.016  0.00  0.00    +0.000 C 
BRANCH  15  16
ATOM     16  C   UNL     1       5.954   7.034  17.119  0.00  0.00    +0.000 C 
BRANCH  16  17
ATOM     17  C   UNL     1       6.087   6.290  18.440  0.00  0.00    +0.000 C 
BRANCH  17  18
ATOM     18  P   UNL     1       7.680   5.731  18.975  0.00  0.00    +0.000 P 
ATOM     19  O   UNL     1       8.315   4.612  18.213  0.00  0.00    +0.000 OA
BRANCH  18  20
ATOM     20  O   UNL     1       8.578   7.056  18.875  0.00  0.00    +0.000 OA
ATOM     21  H   UNL     1       9.479   6.939  19.226  0.00  0.00    +0.000 HD
ENDBRANCH  18  20
BRANCH  18  22
ATOM     22  O   UNL     1       7.681   5.473  20.553  0.00  0.00    +0.000 OA
ATOM     23  H   UNL     1       6.947   5.938  21.004  0.00  0.00    +0.000 HD
ENDBRANCH  18  22
ENDBRANCH  17  18
ENDBRANCH  16  17
ENDBRANCH  15  16
ENDBRANCH   1  15
TORSDOF 10
ENDMDL
MODEL 5
REMARK VINA RESULT:      -6.7      4.093      5.828
REMARK  Name = 
REMARK  12 active torsions:
REMARK  status: ('A' for Active; 'I' for Inactive)
REMARK    1  A    between atoms: C_1  and  O_2
REMARK    2  A    between atoms: O_2  and  C_3
REMARK    3  A    between atoms: C_3  and  C_5
REMARK    4  A    between atoms: C_5  and  C_15
REMARK    5  A    between atoms: C_6  and  C_7
REMARK    6  A    between atoms: C_10  and  O_11
REMARK    7  A    between atoms: O_11  and  C_12
REMARK    8  A    between atoms: C_15  and  C_16
REMARK    9  A    between atoms: C_16  and  C_17
REMARK   10  A    between atoms: C_17  and  P_18
REMARK   11  A    between atoms: P_18  and  O_20
REMARK   12  A    between atoms: P_18  and  O_21
REMARK                            x       y       z     vdW  Elec       q    Type
REMARK                         _______ _______ _______ _____ _____    ______ ____
ROOT
ATOM      1  C   UNL     1       3.056   5.302  17.938  0.00  0.00    +0.000 C 
ATOM      2  C   UNL     1       3.400   6.554  18.304  0.00  0.00    +0.000 C 
ENDROOT
BRANCH   2   3
ATOM      3  C   UNL     1       2.554   7.679  18.717  0.00  0.00    +0.000 A 
ATOM      4  C   UNL     1       2.068   8.573  17.753  0.00  0.00    +0.000 A 
ATOM      5  C   UNL     1       1.065   9.492  18.078  0.00  0.00    +0.000 A 
ATOM      6  C   UNL     1       0.517   9.513  19.361  0.00  0.00    +0.000 A 
ATOM      7  C   UNL     1       1.045   8.674  20.343  0.00  0.00    +0.000 A 
ATOM      8  C   UNL     1       2.059   7.757  20.022  0.00  0.00    +0.000 A 
BRANCH   6   9
ATOM      9  O   UNL     1      -0.506  10.401  19.554  0.00  0.00    +0.000 OA
ATOM     10  C   UNL     1      -1.019  11.004  18.367  0.00  0.00    +0.000 C 
ENDBRANCH   6   9
ENDBRANCH   2   3
BRANCH   1  11
ATOM     11  C   UNL     1       4.149   4.297  17.694  0.00  0.00    +0.000 C 
ATOM     12  O   UNL     1       4.883   3.877  18.579  0.00  0.00    +0.000 OA
BRANCH  11  14
ATOM     13  C   UNL     1       5.576   4.086  15.857  0.00  0.00    +0.000 C 
ATOM     14  O   UNL     1       4.255   3.950  16.385  0.00  0.00    +0.000 OA
ENDBRANCH  11  14
ENDBRANCH   1  11
BRANCH   1  15
ATOM     15  C   UNL     1       1.648   4.750  17.819  0.00  0.00    +0.000 C 
BRANCH  15  16
ATOM     16  C   UNL     1       1.431   3.311  18.342  0.00  0.00    +0.000 C 
BRANCH  16  17
ATOM     17  C   UNL     1       0.847   3.244  19.746  0.00  0.00    +0.000 C 
BRANCH  17  18
ATOM     18  P   UNL     1       1.932   3.227  21.146  0.00  0.00    +0.000 P 
ATOM     19  O   UNL     1       1.471   2.504  22.372  0.00  0.00    +0.000 OA
BRANCH  18  20
ATOM     20  O   UNL     1       3.263   2.548  20.563  0.00  0.00    +0.000 OA
ATOM     21  H   UNL     1       3.233   2.407  19.599  0.00  0.00    +0.000 HD
ENDBRANCH  18  20
BRANCH  18  22
ATOM     22  O   UNL     1       2.452   4.704  21.468  0.00  0.00    +0.000 OA
ATOM     23  H   UNL     1       1.714   5.337  21.593  0.00  0.00    +0.000 HD
ENDBRANCH  18  22
ENDBRANCH  17  18
ENDBRANCH  16  17
ENDBRANCH  15  16
ENDBRANCH   1  15
TORSDOF 10
ENDMDL
MODEL 6
REMARK VINA RESULT:      -6.7      0.779      1.721
REMARK  Name = 
REMARK  12 active torsions:
REMARK  status: ('A' for Active; 'I' for Inactive)
REMARK    1  A    between atoms: C_1  and  O_2
REMARK    2  A    between atoms: O_2  and  C_3
REMARK    3  A    between atoms: C_3  and  C_5
REMARK    4  A    between atoms: C_5  and  C_15
REMARK    5  A    between atoms: C_6  and  C_7
REMARK    6  A    between atoms: C_10  and  O_11
REMARK    7  A    between atoms: O_11  and  C_12
REMARK    8  A    between atoms: C_15  and  C_16
REMARK    9  A    between atoms: C_16  and  C_17
REMARK   10  A    between atoms: C_17  and  P_18
REMARK   11  A    between atoms: P_18  and  O_20
REMARK   12  A    between atoms: P_18  and  O_21
REMARK                            x       y       z     vdW  Elec       q    Type
REMARK                         _______ _______ _______ _____ _____    ______ ____
ROOT
ATOM      1  C   UNL     1       5.407   4.757  15.575  0.00  0.00    +0.000 C 
ATOM      2  C   UNL     1       4.987   3.633  16.191  0.00  0.00    +0.000 C 
ENDROOT
BRANCH   2   3
ATOM      3  C   UNL     1       3.980   3.458  17.244  0.00  0.00    +0.000 A 
ATOM      4  C   UNL     1       4.388   3.260  18.570  0.00  0.00    +0.000 A 
ATOM      5  C   UNL     1       3.465   3.345  19.617  0.00  0.00    +0.000 A 
ATOM      6  C   UNL     1       2.130   3.653  19.356  0.00  0.00    +0.000 A 
ATOM      7  C   UNL     1       1.704   3.782  18.034  0.00  0.00    +0.000 A 
ATOM      8  C   UNL     1       2.627   3.687  16.980  0.00  0.00    +0.000 A 
BRANCH   6   9
ATOM      9  O   UNL     1       1.325   3.782  20.456  0.00  0.00    +0.000 OA
ATOM     10  C   UNL     1       1.876   3.281  21.674  0.00  0.00    +0.000 C 
ENDBRANCH   6   9
ENDBRANCH   2   3
BRANCH   1  11
ATOM     11  C   UNL     1       6.364   4.631  14.421  0.00  0.00    +0.000 C 
ATOM     12  O   UNL     1       7.459   5.177  14.395  0.00  0.00    +0.000 OA
BRANCH  11  14
ATOM     13  C   UNL     1       6.788   3.640  12.348  0.00  0.00    +0.000 C 
ATOM     14  O   UNL     1       5.856   3.889  13.402  0.00  0.00    +0.000 OA
ENDBRANCH  11  14
ENDBRANCH   1  11
BRANCH   1  15
ATOM     15  C   UNL     1       4.949   6.173  15.867  0.00  0.00    +0.000 C 
BRANCH  15  16
ATOM     16  C   UNL     1       5.824   6.986  16.849  0.00  0.00    +0.000 C 
BRANCH  16  17
ATOM     17  C   UNL     1       5.894   6.396  18.251  0.00  0.00    +0.000 C 
BRANCH  17  18
ATOM     18  P   UNL     1       7.455   5.870  18.903  0.00  0.00    +0.000 P 
ATOM     19  O   UNL     1       7.451   5.139  20.208  0.00  0.00    +0.000 OA
BRANCH  18  20
ATOM     20  O   UNL     1       8.034   4.932  17.737  0.00  0.00    +0.000 OA
ATOM     21  H   UNL     1       8.335   4.063  18.056  0.00  0.00    +0.000 HD
ENDBRANCH  18  20
BRANCH  18  22
ATOM     22  O   UNL     1       8.504   7.076  18.882  0.00  0.00    +0.000 OA
ATOM     23  H   UNL     1       9.204   6.969  19.558  0.00  0.00    +0.000 HD
ENDBRANCH  18  22
ENDBRANCH  17  18
ENDBRANCH  16  17
ENDBRANCH  15  16
ENDBRANCH   1  15
TORSDOF 10
ENDMDL
MODEL 7
REMARK VINA RESULT:      -6.7      0.458      1.491
REMARK  Name = 
REMARK  12 active torsions:
REMARK  status: ('A' for Active; 'I' for Inactive)
REMARK    1  A    between atoms: C_1  and  O_2
REMARK    2  A    between atoms: O_2  and  C_3
REMARK    3  A    between atoms: C_3  and  C_5
REMARK    4  A    between atoms: C_5  and  C_15
REMARK    5  A    between atoms: C_6  and  C_7
REMARK    6  A    between atoms: C_10  and  O_11
REMARK    7  A    between atoms: O_11  and  C_12
REMARK    8  A    between atoms: C_15  and  C_16
REMARK    9  A    between atoms: C_16  and  C_17
REMARK   10  A    between atoms: C_17  and  P_18
REMARK   11  A    between atoms: P_18  and  O_20
REMARK   12  A    between atoms: P_18  and  O_21
REMARK                            x       y       z     vdW  Elec       q    Type
REMARK                         _______ _______ _______ _____ _____    ______ ____
ROOT
ATOM      1  C   UNL     1       5.411   4.719  15.526  0.00  0.00    +0.000 C 
ATOM      2  C   UNL     1       4.941   3.645  16.194  0.00  0.00    +0.000 C 
ENDROOT
BRANCH   2   3
ATOM      3  C   UNL     1       3.927   3.566  17.253  0.00  0.00    +0.000 A 
ATOM      4  C   UNL     1       4.262   3.012  18.496  0.00  0.00    +0.000 A 
ATOM      5  C   UNL     1       3.406   3.155  19.591  0.00  0.00    +0.000 A 
ATOM      6  C   UNL     1       2.216   3.873  19.467  0.00  0.00    +0.000 A 
ATOM      7  C   UNL     1       1.844   4.366  18.216  0.00  0.00    +0.000 A 
ATOM      8  C   UNL     1       2.698   4.216  17.111  0.00  0.00    +0.000 A 
BRANCH   6   9
ATOM      9  O   UNL     1       1.486   4.013  20.616  0.00  0.00    +0.000 OA
ATOM     10  C   UNL     1       1.693   2.996  21.595  0.00  0.00    +0.000 C 
ENDBRANCH   6   9
ENDBRANCH   2   3
BRANCH   1  11
ATOM     11  C   UNL     1       6.360   4.495  14.380  0.00  0.00    +0.000 C 
ATOM     12  O   UNL     1       6.278   3.539  13.619  0.00  0.00    +0.000 OA
BRANCH  11  14
ATOM     13  C   UNL     1       8.062   5.439  13.089  0.00  0.00    +0.000 C 
ATOM     14  O   UNL     1       7.334   5.440  14.319  0.00  0.00    +0.000 OA
ENDBRANCH  11  14
ENDBRANCH   1  11
BRANCH   1  15
ATOM     15  C   UNL     1       5.019   6.166  15.751  0.00  0.00    +0.000 C 
BRANCH  15  16
ATOM     16  C   UNL     1       5.388   6.769  17.126  0.00  0.00    +0.000 C 
BRANCH  16  17
ATOM     17  C   UNL     1       6.858   6.619  17.494  0.00  0.00    +0.000 C 
BRANCH  17  18
ATOM     18  P   UNL     1       7.320   5.564  18.839  0.00  0.00    +0.000 P 
ATOM     19  O   UNL     1       6.258   5.188  19.824  0.00  0.00    +0.000 OA
BRANCH  18  20
ATOM     20  O   UNL     1       7.881   4.258  18.096  0.00  0.00    +0.000 OA
ATOM     21  H   UNL     1       8.728   3.941  18.457  0.00  0.00    +0.000 HD
ENDBRANCH  18  20
BRANCH  18  22
ATOM     22  O   UNL     1       8.645   6.111  19.549  0.00  0.00    +0.000 OA
ATOM     23  H   UNL     1       8.539   6.186  20.520  0.00  0.00    +0.000 HD
ENDBRANCH  18  22
ENDBRANCH  17  18
ENDBRANCH  16  17
ENDBRANCH  15  16
ENDBRANCH   1  15
TORSDOF 10
ENDMDL
MODEL 8
REMARK VINA RESULT:      -6.5      3.618      5.192
REMARK  Name = 
REMARK  12 active torsions:
REMARK  status: ('A' for Active; 'I' for Inactive)
REMARK    1  A    between atoms: C_1  and  O_2
REMARK    2  A    between atoms: O_2  and  C_3
REMARK    3  A    between atoms: C_3  and  C_5
REMARK    4  A    between atoms: C_5  and  C_15
REMARK    5  A    between atoms: C_6  and  C_7
REMARK    6  A    between atoms: C_10  and  O_11
REMARK    7  A    between atoms: O_11  and  C_12
REMARK    8  A    between atoms: C_15  and  C_16
REMARK    9  A    between atoms: C_16  and  C_17
REMARK   10  A    between atoms: C_17  and  P_18
REMARK   11  A    between atoms: P_18  and  O_20
REMARK   12  A    between atoms: P_18  and  O_21
REMARK                            x       y       z     vdW  Elec       q    Type
REMARK                         _______ _______ _______ _____ _____    ______ ____
ROOT
ATOM      1  C   UNL     1       4.358   4.959  19.129  0.00  0.00    +0.000 C 
ATOM      2  C   UNL     1       3.108   5.463  19.071  0.00  0.00    +0.000 C 
ENDROOT
BRANCH   2   3
ATOM      3  C   UNL     1       2.655   6.859  19.090  0.00  0.00    +0.000 A 
ATOM      4  C   UNL     1       2.648   7.604  17.902  0.00  0.00    +0.000 A 
ATOM      5  C   UNL     1       1.991   8.836  17.841  0.00  0.00    +0.000 A 
ATOM      6  C   UNL     1       1.311   9.329  18.955  0.00  0.00    +0.000 A 
ATOM      7  C   UNL     1       1.374   8.626  20.159  0.00  0.00    +0.000 A 
ATOM      8  C   UNL     1       2.041   7.392  20.226  0.00  0.00    +0.000 A 
BRANCH   6   9
ATOM      9  O   UNL     1       0.643  10.508  18.768  0.00  0.00    +0.000 OA
ATOM     10  C   UNL     1       1.139  11.614  19.520  0.00  0.00    +0.000 C 
ENDBRANCH   6   9
ENDBRANCH   2   3
BRANCH   1  11
ATOM     11  C   UNL     1       4.546   3.477  18.949  0.00  0.00    +0.000 C 
ATOM     12  O   UNL     1       5.177   2.781  19.733  0.00  0.00    +0.000 OA
BRANCH  11  14
ATOM     13  C   UNL     1       3.069   1.934  18.002  0.00  0.00    +0.000 C 
ATOM     14  O   UNL     1       3.981   3.016  17.802  0.00  0.00    +0.000 OA
ENDBRANCH  11  14
ENDBRANCH   1  11
BRANCH   1  15
ATOM     15  C   UNL     1       5.645   5.748  19.278  0.00  0.00    +0.000 C 
BRANCH  15  16
ATOM     16  C   UNL     1       6.196   6.407  17.993  0.00  0.00    +0.000 C 
BRANCH  16  17
ATOM     17  C   UNL     1       5.746   5.728  16.706  0.00  0.00    +0.000 C 
BRANCH  17  18
ATOM     18  P   UNL     1       6.845   4.619  15.870  0.00  0.00    +0.000 P 
ATOM     19  O   UNL     1       7.510   5.110  14.624  0.00  0.00    +0.000 OA
BRANCH  18  20
ATOM     20  O   UNL     1       7.940   4.282  16.993  0.00  0.00    +0.000 OA
ATOM     21  H   UNL     1       8.844   4.541  16.740  0.00  0.00    +0.000 HD
ENDBRANCH  18  20
BRANCH  18  22
ATOM     22  O   UNL     1       6.153   3.191  15.672  0.00  0.00    +0.000 OA
ATOM     23  H   UNL     1       5.895   3.032  14.741  0.00  0.00    +0.000 HD
ENDBRANCH  18  22
ENDBRANCH  17  18
ENDBRANCH  16  17
ENDBRANCH  15  16
ENDBRANCH   1  15
TORSDOF 10
ENDMDL
MODEL 9
REMARK VINA RESULT:      -6.4      0.573      1.485
REMARK  Name = 
REMARK  12 active torsions:
REMARK  status: ('A' for Active; 'I' for Inactive)
REMARK    1  A    between atoms: C_1  and  O_2
REMARK    2  A    between atoms: O_2  and  C_3
REMARK    3  A    between atoms: C_3  and  C_5
REMARK    4  A    between atoms: C_5  and  C_15
REMARK    5  A    between atoms: C_6  and  C_7
REMARK    6  A    between atoms: C_10  and  O_11
REMARK    7  A    between atoms: O_11  and  C_12
REMARK    8  A    between atoms: C_15  and  C_16
REMARK    9  A    between atoms: C_16  and  C_17
REMARK   10  A    between atoms: C_17  and  P_18
REMARK   11  A    between atoms: P_18  and  O_20
REMARK   12  A    between atoms: P_18  and  O_21
REMARK                            x       y       z     vdW  Elec       q    Type
REMARK                         _______ _______ _______ _____ _____    ______ ____
ROOT
ATOM      1  C   UNL     1       5.466   4.587  15.457  0.00  0.00    +0.000 C 
ATOM      2  C   UNL     1       5.090   3.509  16.175  0.00  0.00    +0.000 C 
ENDROOT
BRANCH   2   3
ATOM      3  C   UNL     1       4.112   3.398  17.264  0.00  0.00    +0.000 A 
ATOM      4  C   UNL     1       4.552   3.377  18.594  0.00  0.00    +0.000 A 
ATOM      5  C   UNL     1       3.642   3.528  19.645  0.00  0.00    +0.000 A 
ATOM      6  C   UNL     1       2.287   3.727  19.381  0.00  0.00    +0.000 A 
ATOM      7  C   UNL     1       1.833   3.678  18.062  0.00  0.00    +0.000 A 
ATOM      8  C   UNL     1       2.744   3.517  17.005  0.00  0.00    +0.000 A 
BRANCH   6   9
ATOM      9  O   UNL     1       1.494   3.934  20.477  0.00  0.00    +0.000 OA
ATOM     10  C   UNL     1       1.346   2.809  21.342  0.00  0.00    +0.000 C 
ENDBRANCH   6   9
ENDBRANCH   2   3
BRANCH   1  11
ATOM     11  C   UNL     1       6.400   4.388  14.294  0.00  0.00    +0.000 C 
ATOM     12  O   UNL     1       6.210   3.557  13.417  0.00  0.00    +0.000 OA
BRANCH  11  14
ATOM     13  C   UNL     1       8.095   5.451  13.087  0.00  0.00    +0.000 C 
ATOM     14  O   UNL     1       7.489   5.198  14.357  0.00  0.00    +0.000 OA
ENDBRANCH  11  14
ENDBRANCH   1  11
BRANCH   1  15
ATOM     15  C   UNL     1       4.977   6.011  15.642  0.00  0.00    +0.000 C 
BRANCH  15  16
ATOM     16  C   UNL     1       5.806   6.900  16.598  0.00  0.00    +0.000 C 
BRANCH  16  17
ATOM     17  C   UNL     1       5.894   6.366  18.021  0.00  0.00    +0.000 C 
BRANCH  17  18
ATOM     18  P   UNL     1       7.466   5.883  18.680  0.00  0.00    +0.000 P 
ATOM     19  O   UNL     1       8.509   6.944  18.833  0.00  0.00    +0.000 OA
BRANCH  18  20
ATOM     20  O   UNL     1       7.082   5.266  20.110  0.00  0.00    +0.000 OA
ATOM     21  H   UNL     1       6.675   5.913  20.713  0.00  0.00    +0.000 HD
ENDBRANCH  18  20
BRANCH  18  22
ATOM     22  O   UNL     1       8.017   4.590  17.919  0.00  0.00    +0.000 OA
ATOM     23  H   UNL     1       8.017   4.705  16.947  0.00  0.00    +0.000 HD
ENDBRANCH  18  22
ENDBRANCH  17  18
ENDBRANCH  16  17
ENDBRANCH  15  16
ENDBRANCH   1  15
TORSDOF 10
ENDMDL
