MODEL 1
REMARK VINA RESULT:      -7.6      0.000      0.000
REMARK  Name = 
REMARK  4 active torsions:
REMARK  status: ('A' for Active; 'I' for Inactive)
REMARK    1  A    between atoms: C_2  and  C_3
REMARK    2  A    between atoms: C_3  and  C_4
REMARK    3  A    between atoms: C_4  and  N_5
REMARK    4  A    between atoms: N_17  and  C_18
REMARK                            x       y       z     vdW  Elec       q    Type
REMARK                         _______ _______ _______ _____ _____    ______ ____
ROOT
ATOM      1  C   UNL     1       3.208   6.667  18.015  0.00  0.00    +0.000 C 
ENDROOT
BRANCH   1   2
ATOM      2  N   UNL     1       2.389   7.657  18.719  0.00  0.00    +0.000 N 
ATOM      3  C   UNL     1       2.032   8.880  18.209  0.00  0.00    +0.000 C 
ATOM      4  O   UNL     1       2.285   9.361  17.122  0.00  0.00    +0.000 OA
ATOM      5  C   UNL     1       1.230   9.546  19.238  0.00  0.00    +0.000 A 
ATOM      6  C   UNL     1       0.668  10.808  19.270  0.00  0.00    +0.000 A 
ATOM      7  C   UNL     1      -0.028  11.177  20.432  0.00  0.00    +0.000 A 
ATOM      8  C   UNL     1      -0.150  10.275  21.509  0.00  0.00    +0.000 A 
ATOM      9 BR   UNL     1      -1.063  10.821  23.074  0.00  0.00    +0.000 Br
ATOM     10  C   UNL     1       0.408   8.998  21.452  0.00  0.00    +0.000 A 
ATOM     11  C   UNL     1       1.101   8.668  20.299  0.00  0.00    +0.000 A 
ATOM     12  C   UNL     1       1.824   7.447  19.950  0.00  0.00    +0.000 C 
ATOM     13  O   UNL     1       1.865   6.457  20.655  0.00  0.00    +0.000 OA
ENDBRANCH   1   2
BRANCH   1  14
ATOM     14  C   UNL     1       4.580   6.502  18.665  0.00  0.00    +0.000 C 
BRANCH  14  16
ATOM     15  O   UNL     1       5.924   4.727  19.612  0.00  0.00    +0.000 OA
ATOM     16  C   UNL     1       4.820   5.130  19.294  0.00  0.00    +0.000 C 
ATOM     17  N   UNL     1       3.653   4.398  19.467  0.00  0.00    +0.000 N 
ATOM     18  H   UNL     1       2.850   4.725  18.946  0.00  0.00    +0.000 HD
BRANCH  17  19
ATOM     19  C   UNL     1       3.555   3.020  20.001  0.00  0.00    +0.000 C 
ATOM     20  C   UNL     1       2.353   2.749  20.920  0.00  0.00    +0.000 C 
ATOM     21  C   UNL     1       1.040   3.038  20.196  0.00  0.00    +0.000 C 
ATOM     22  C   UNL     1       0.896   2.134  18.974  0.00  0.00    +0.000 C 
ATOM     23  C   UNL     1       2.121   2.193  18.060  0.00  0.00    +0.000 C 
ATOM     24  C   UNL     1       3.447   2.033  18.815  0.00  0.00    +0.000 C 
ENDBRANCH  17  19
ENDBRANCH  14  16
ENDBRANCH   1  14
TORSDOF 4
ENDMDL
MODEL 2
REMARK VINA RESULT:      -7.6      5.194      8.041
REMARK  Name = 
REMARK  4 active torsions:
REMARK  status: ('A' for Active; 'I' for Inactive)
REMARK    1  A    between atoms: C_2  and  C_3
REMARK    2  A    between atoms: C_3  and  C_4
REMARK    3  A    between atoms: C_4  and  N_5
REMARK    4  A    between atoms: N_17  and  C_18
REMARK                            x       y       z     vdW  Elec       q    Type
REMARK                         _______ _______ _______ _____ _____    ______ ____
ROOT
ATOM      1  C   UNL     1       7.604   6.730  17.414  0.00  0.00    +0.000 C 
ENDROOT
BRANCH   1   2
ATOM      2  N   UNL     1       6.322   6.182  17.863  0.00  0.00    +0.000 N 
ATOM      3  C   UNL     1       5.141   6.294  17.173  0.00  0.00    +0.000 C 
ATOM      4  O   UNL     1       4.928   6.819  16.097  0.00  0.00    +0.000 OA
ATOM      5  C   UNL     1       4.120   5.620  17.978  0.00  0.00    +0.000 A 
ATOM      6  C   UNL     1       2.759   5.483  17.781  0.00  0.00    +0.000 A 
ATOM      7  C   UNL     1       2.029   4.798  18.766  0.00  0.00    +0.000 A 
ATOM      8  C   UNL     1       2.679   4.267  19.898  0.00  0.00    +0.000 A 
ATOM      9 BR   UNL     1       1.657   3.383  21.223  0.00  0.00    +0.000 Br
ATOM     10  C   UNL     1       4.057   4.397  20.071  0.00  0.00    +0.000 A 
ATOM     11  C   UNL     1       4.748   5.090  19.091  0.00  0.00    +0.000 A 
ATOM     12  C   UNL     1       6.166   5.431  18.998  0.00  0.00    +0.000 C 
ATOM     13  O   UNL     1       7.005   5.071  19.803  0.00  0.00    +0.000 OA
ENDBRANCH   1   2
BRANCH   1  14
ATOM     14  C   UNL     1       8.191   7.707  18.432  0.00  0.00    +0.000 C 
BRANCH  14  16
ATOM     15  O   UNL     1       7.313   9.592  17.198  0.00  0.00    +0.000 OA
ATOM     16  C   UNL     1       8.110   9.175  18.018  0.00  0.00    +0.000 C 
ATOM     17  N   UNL     1       9.033   9.979  18.674  0.00  0.00    +0.000 N 
ATOM     18  H   UNL     1       9.790   9.490  19.133  0.00  0.00    +0.000 HD
BRANCH  17  19
ATOM     19  C   UNL     1       9.239  11.429  18.459  0.00  0.00    +0.000 C 
ATOM     20  C   UNL     1       9.231  12.296  19.729  0.00  0.00    +0.000 C 
ATOM     21  C   UNL     1      10.306  11.835  20.709  0.00  0.00    +0.000 C 
ATOM     22  C   UNL     1      11.691  11.962  20.077  0.00  0.00    +0.000 C 
ATOM     23  C   UNL     1      11.773  11.272  18.715  0.00  0.00    +0.000 C 
ATOM     24  C   UNL     1      10.613  11.640  17.780  0.00  0.00    +0.000 C 
ENDBRANCH  17  19
ENDBRANCH  14  16
ENDBRANCH   1  14
TORSDOF 4
ENDMDL
MODEL 3
REMARK VINA RESULT:      -7.5      0.804      2.148
REMARK  Name = 
REMARK  4 active torsions:
REMARK  status: ('A' for Active; 'I' for Inactive)
REMARK    1  A    between atoms: C_2  and  C_3
REMARK    2  A    between atoms: C_3  and  C_4
REMARK    3  A    between atoms: C_4  and  N_5
REMARK    4  A    between atoms: N_17  and  C_18
REMARK                            x       y       z     vdW  Elec       q    Type
REMARK                         _______ _______ _______ _____ _____    ______ ____
ROOT
ATOM      1  C   UNL     1       3.068   6.500  17.765  0.00  0.00    +0.000 C 
ENDROOT
BRANCH   1   2
ATOM      2  N   UNL     1       2.363   7.432  18.648  0.00  0.00    +0.000 N 
ATOM      3  C   UNL     1       2.006   7.160  19.945  0.00  0.00    +0.000 C 
ATOM      4  O   UNL     1       2.208   6.157  20.601  0.00  0.00    +0.000 OA
ATOM      5  C   UNL     1       1.320   8.352  20.450  0.00  0.00    +0.000 A 
ATOM      6  C   UNL     1       0.712   8.597  21.666  0.00  0.00    +0.000 A 
ATOM      7  C   UNL     1       0.098   9.848  21.841  0.00  0.00    +0.000 A 
ATOM      8  C   UNL     1       0.124  10.808  20.810  0.00  0.00    +0.000 A 
ATOM      9 BR   UNL     1      -0.746  12.469  21.069  0.00  0.00    +0.000 Br
ATOM     10  C   UNL     1       0.760  10.550  19.595  0.00  0.00    +0.000 A 
ATOM     11  C   UNL     1       1.343   9.303  19.446  0.00  0.00    +0.000 A 
ATOM     12  C   UNL     1       2.037   8.717  18.301  0.00  0.00    +0.000 C 
ATOM     13  O   UNL     1       2.267   9.316  17.267  0.00  0.00    +0.000 OA
ENDBRANCH   1   2
BRANCH   1  14
ATOM     14  C   UNL     1       4.478   6.197  18.269  0.00  0.00    +0.000 C 
BRANCH  14  16
ATOM     15  O   UNL     1       5.777   4.299  19.018  0.00  0.00    +0.000 OA
ATOM     16  C   UNL     1       4.684   4.758  18.740  0.00  0.00    +0.000 C 
ATOM     17  N   UNL     1       3.501   4.036  18.824  0.00  0.00    +0.000 N 
ATOM     18  H   UNL     1       2.709   4.438  18.339  0.00  0.00    +0.000 HD
BRANCH  17  19
ATOM     19  C   UNL     1       3.370   2.610  19.200  0.00  0.00    +0.000 C 
ATOM     20  C   UNL     1       3.594   2.294  20.687  0.00  0.00    +0.000 C 
ATOM     21  C   UNL     1       2.616   3.074  21.562  0.00  0.00    +0.000 C 
ATOM     22  C   UNL     1       1.178   2.691  21.224  0.00  0.00    +0.000 C 
ATOM     23  C   UNL     1       0.882   2.808  19.728  0.00  0.00    +0.000 C 
ATOM     24  C   UNL     1       1.942   2.132  18.848  0.00  0.00    +0.000 C 
ENDBRANCH  17  19
ENDBRANCH  14  16
ENDBRANCH   1  14
TORSDOF 4
ENDMDL
MODEL 4
REMARK VINA RESULT:      -7.4      4.732      6.981
REMARK  Name = 
REMARK  4 active torsions:
REMARK  status: ('A' for Active; 'I' for Inactive)
REMARK    1  A    between atoms: C_2  and  C_3
REMARK    2  A    between atoms: C_3  and  C_4
REMARK    3  A    between atoms: C_4  and  N_5
REMARK    4  A    between atoms: N_17  and  C_18
REMARK                            x       y       z     vdW  Elec       q    Type
REMARK                         _______ _______ _______ _____ _____    ______ ____
ROOT
ATOM      1  C   UNL     1       5.418   5.925  18.315  0.00  0.00    +0.000 C 
ENDROOT
BRANCH   1   2
ATOM      2  N   UNL     1       5.711   5.420  16.972  0.00  0.00    +0.000 N 
ATOM      3  C   UNL     1       6.777   5.816  16.204  0.00  0.00    +0.000 C 
ATOM      4  O   UNL     1       7.662   6.605  16.471  0.00  0.00    +0.000 OA
ATOM      5  C   UNL     1       6.684   5.076  14.944  0.00  0.00    +0.000 A 
ATOM      6  C   UNL     1       7.463   5.131  13.804  0.00  0.00    +0.000 A 
ATOM      7  C   UNL     1       7.094   4.308  12.728  0.00  0.00    +0.000 A 
ATOM      8  C   UNL     1       5.978   3.453  12.831  0.00  0.00    +0.000 A 
ATOM      9 BR   UNL     1       5.489   2.385  11.348  0.00  0.00    +0.000 Br
ATOM     10  C   UNL     1       5.214   3.396  13.997  0.00  0.00    +0.000 A 
ATOM     11  C   UNL     1       5.593   4.231  15.035  0.00  0.00    +0.000 A 
ATOM     12  C   UNL     1       4.988   4.436  16.350  0.00  0.00    +0.000 C 
ATOM     13  O   UNL     1       4.031   3.807  16.762  0.00  0.00    +0.000 OA
ENDBRANCH   1   2
BRANCH   1  14
ATOM     14  C   UNL     1       4.153   6.783  18.335  0.00  0.00    +0.000 C 
BRANCH  14  16
ATOM     15  O   UNL     1       2.201   7.025  19.742  0.00  0.00    +0.000 OA
ATOM     16  C   UNL     1       3.079   6.302  19.309  0.00  0.00    +0.000 C 
ATOM     17  N   UNL     1       3.206   4.960  19.642  0.00  0.00    +0.000 N 
ATOM     18  H   UNL     1       4.099   4.538  19.424  0.00  0.00    +0.000 HD
BRANCH  17  19
ATOM     19  C   UNL     1       2.356   4.210  20.595  0.00  0.00    +0.000 C 
ATOM     20  C   UNL     1       0.902   3.982  20.149  0.00  0.00    +0.000 C 
ATOM     21  C   UNL     1       0.852   3.229  18.823  0.00  0.00    +0.000 C 
ATOM     22  C   UNL     1       1.508   1.858  18.966  0.00  0.00    +0.000 C 
ATOM     23  C   UNL     1       2.913   1.944  19.563  0.00  0.00    +0.000 C 
ATOM     24  C   UNL     1       2.979   2.814  20.826  0.00  0.00    +0.000 C 
ENDBRANCH  17  19
ENDBRANCH  14  16
ENDBRANCH   1  14
TORSDOF 4
ENDMDL
MODEL 5
REMARK VINA RESULT:      -7.4      2.513      4.717
REMARK  Name = 
REMARK  4 active torsions:
REMARK  status: ('A' for Active; 'I' for Inactive)
REMARK    1  A    between atoms: C_2  and  C_3
REMARK    2  A    between atoms: C_3  and  C_4
REMARK    3  A    between atoms: C_4  and  N_5
REMARK    4  A    between atoms: N_17  and  C_18
REMARK                            x       y       z     vdW  Elec       q    Type
REMARK                         _______ _______ _______ _____ _____    ______ ____
ROOT
ATOM      1  C   UNL     1       2.089   2.219  19.158  0.00  0.00    +0.000 C 
ENDROOT
BRANCH   1   2
ATOM      2  N   UNL     1       2.026   3.677  19.286  0.00  0.00    +0.000 N 
ATOM      3  C   UNL     1       1.969   4.354  20.478  0.00  0.00    +0.000 C 
ATOM      4  O   UNL     1       1.983   3.914  21.611  0.00  0.00    +0.000 OA
ATOM      5  C   UNL     1       1.908   5.780  20.149  0.00  0.00    +0.000 A 
ATOM      6  C   UNL     1       1.784   6.891  20.961  0.00  0.00    +0.000 A 
ATOM      7  C   UNL     1       1.718   8.146  20.334  0.00  0.00    +0.000 A 
ATOM      8  C   UNL     1       1.790   8.249  18.931  0.00  0.00    +0.000 A 
ATOM      9 BR   UNL     1       1.660   9.954  18.120  0.00  0.00    +0.000 Br
ATOM     10  C   UNL     1       1.935   7.117  18.127  0.00  0.00    +0.000 A 
ATOM     11  C   UNL     1       1.982   5.893  18.772  0.00  0.00    +0.000 A 
ATOM     12  C   UNL     1       2.084   4.542  18.225  0.00  0.00    +0.000 C 
ATOM     13  O   UNL     1       2.213   4.297  17.040  0.00  0.00    +0.000 OA
ENDBRANCH   1   2
BRANCH   1  14
ATOM     14  C   UNL     1       3.467   1.750  18.693  0.00  0.00    +0.000 C 
BRANCH  14  16
ATOM     15  O   UNL     1       5.110   2.597  20.253  0.00  0.00    +0.000 OA
ATOM     16  C   UNL     1       4.622   2.645  19.139  0.00  0.00    +0.000 C 
ATOM     17  N   UNL     1       5.057   3.511  18.143  0.00  0.00    +0.000 N 
ATOM     18  H   UNL     1       4.425   3.631  17.363  0.00  0.00    +0.000 HD
BRANCH  17  19
ATOM     19  C   UNL     1       6.120   4.533  18.275  0.00  0.00    +0.000 C 
ATOM     20  C   UNL     1       7.331   4.353  17.346  0.00  0.00    +0.000 C 
ATOM     21  C   UNL     1       6.897   4.351  15.882  0.00  0.00    +0.000 C 
ATOM     22  C   UNL     1       6.236   5.679  15.522  0.00  0.00    +0.000 C 
ATOM     23  C   UNL     1       5.111   6.049  16.489  0.00  0.00    +0.000 C 
ATOM     24  C   UNL     1       5.516   5.922  17.964  0.00  0.00    +0.000 C 
ENDBRANCH  17  19
ENDBRANCH  14  16
ENDBRANCH   1  14
TORSDOF 4
ENDMDL
MODEL 6
REMARK VINA RESULT:      -7.3      4.872      7.220
REMARK  Name = 
REMARK  4 active torsions:
REMARK  status: ('A' for Active; 'I' for Inactive)
REMARK    1  A    between atoms: C_2  and  C_3
REMARK    2  A    between atoms: C_3  and  C_4
REMARK    3  A    between atoms: C_4  and  N_5
REMARK    4  A    between atoms: N_17  and  C_18
REMARK                            x       y       z     vdW  Elec       q    Type
REMARK                         _______ _______ _______ _____ _____    ______ ____
ROOT
ATOM      1  C   UNL     1       5.357   5.760  18.203  0.00  0.00    +0.000 C 
ENDROOT
BRANCH   1   2
ATOM      2  N   UNL     1       5.704   5.287  16.861  0.00  0.00    +0.000 N 
ATOM      3  C   UNL     1       6.770   5.739  16.125  0.00  0.00    +0.000 C 
ATOM      4  O   UNL     1       7.614   6.562  16.424  0.00  0.00    +0.000 OA
ATOM      5  C   UNL     1       6.740   5.014  14.853  0.00  0.00    +0.000 A 
ATOM      6  C   UNL     1       7.542   5.119  13.733  0.00  0.00    +0.000 A 
ATOM      7  C   UNL     1       7.236   4.296  12.638  0.00  0.00    +0.000 A 
ATOM      8  C   UNL     1       6.155   3.394  12.702  0.00  0.00    +0.000 A 
ATOM      9 BR   UNL     1       5.749   2.327  11.193  0.00  0.00    +0.000 Br
ATOM     10  C   UNL     1       5.367   3.287  13.849  0.00  0.00    +0.000 A 
ATOM     11  C   UNL     1       5.684   4.122  14.906  0.00  0.00    +0.000 A 
ATOM     12  C   UNL     1       5.039   4.283  16.208  0.00  0.00    +0.000 C 
ATOM     13  O   UNL     1       4.101   3.608  16.588  0.00  0.00    +0.000 OA
ENDBRANCH   1   2
BRANCH   1  14
ATOM     14  C   UNL     1       4.383   6.937  18.156  0.00  0.00    +0.000 C 
BRANCH  14  16
ATOM     15  O   UNL     1       2.078   7.419  18.706  0.00  0.00    +0.000 OA
ATOM     16  C   UNL     1       2.946   6.583  18.534  0.00  0.00    +0.000 C 
ATOM     17  N   UNL     1       2.734   5.216  18.655  0.00  0.00    +0.000 N 
ATOM     18  H   UNL     1       3.568   4.650  18.734  0.00  0.00    +0.000 HD
BRANCH  17  19
ATOM     19  C   UNL     1       1.469   4.558  19.055  0.00  0.00    +0.000 C 
ATOM     20  C   UNL     1       1.402   3.043  18.808  0.00  0.00    +0.000 C 
ATOM     21  C   UNL     1       2.529   2.322  19.543  0.00  0.00    +0.000 C 
ATOM     22  C   UNL     1       2.410   2.546  21.049  0.00  0.00    +0.000 C 
ATOM     23  C   UNL     1       2.300   4.028  21.409  0.00  0.00    +0.000 C 
ATOM     24  C   UNL     1       1.254   4.777  20.571  0.00  0.00    +0.000 C 
ENDBRANCH  17  19
ENDBRANCH  14  16
ENDBRANCH   1  14
TORSDOF 4
ENDMDL
MODEL 7
REMARK VINA RESULT:      -7.2      5.270      8.176
REMARK  Name = 
REMARK  4 active torsions:
REMARK  status: ('A' for Active; 'I' for Inactive)
REMARK    1  A    between atoms: C_2  and  C_3
REMARK    2  A    between atoms: C_3  and  C_4
REMARK    3  A    between atoms: C_4  and  N_5
REMARK    4  A    between atoms: N_17  and  C_18
REMARK                            x       y       z     vdW  Elec       q    Type
REMARK                         _______ _______ _______ _____ _____    ______ ____
ROOT
ATOM      1  C   UNL     1       7.641   6.984  17.373  0.00  0.00    +0.000 C 
ENDROOT
BRANCH   1   2
ATOM      2  N   UNL     1       6.367   6.387  17.780  0.00  0.00    +0.000 N 
ATOM      3  C   UNL     1       5.222   6.400  17.025  0.00  0.00    +0.000 C 
ATOM      4  O   UNL     1       5.041   6.862  15.915  0.00  0.00    +0.000 OA
ATOM      5  C   UNL     1       4.195   5.708  17.806  0.00  0.00    +0.000 A 
ATOM      6  C   UNL     1       2.857   5.486  17.545  0.00  0.00    +0.000 A 
ATOM      7  C   UNL     1       2.111   4.808  18.523  0.00  0.00    +0.000 A 
ATOM      8  C   UNL     1       2.725   4.366  19.712  0.00  0.00    +0.000 A 
ATOM      9 BR   UNL     1       1.680   3.488  21.023  0.00  0.00    +0.000 Br
ATOM     10  C   UNL     1       4.083   4.582  19.950  0.00  0.00    +0.000 A 
ATOM     11  C   UNL     1       4.788   5.266  18.975  0.00  0.00    +0.000 A 
ATOM     12  C   UNL     1       6.189   5.682  18.941  0.00  0.00    +0.000 C 
ATOM     13  O   UNL     1       7.000   5.407  19.805  0.00  0.00    +0.000 OA
ENDBRANCH   1   2
BRANCH   1  14
ATOM     14  C   UNL     1       7.596   8.511  17.432  0.00  0.00    +0.000 C 
BRANCH  14  16
ATOM     15  O   UNL     1       9.035   8.484  19.376  0.00  0.00    +0.000 OA
ATOM     16  C   UNL     1       8.515   9.129  18.484  0.00  0.00    +0.000 C 
ATOM     17  N   UNL     1       8.698  10.495  18.314  0.00  0.00    +0.000 N 
ATOM     18  H   UNL     1       8.032  10.953  17.706  0.00  0.00    +0.000 HD
BRANCH  17  19
ATOM     19  C   UNL     1       9.488  11.389  19.192  0.00  0.00    +0.000 C 
ATOM     20  C   UNL     1      11.001  11.412  18.924  0.00  0.00    +0.000 C 
ATOM     21  C   UNL     1      11.293  11.832  17.486  0.00  0.00    +0.000 C 
ATOM     22  C   UNL     1      10.759  13.239  17.225  0.00  0.00    +0.000 C 
ATOM     23  C   UNL     1       9.288  13.385  17.615  0.00  0.00    +0.000 C 
ATOM     24  C   UNL     1       8.977  12.838  19.015  0.00  0.00    +0.000 C 
ENDBRANCH  17  19
ENDBRANCH  14  16
ENDBRANCH   1  14
TORSDOF 4
ENDMDL
MODEL 8
REMARK VINA RESULT:      -7.2      1.068      2.347
REMARK  Name = 
REMARK  4 active torsions:
REMARK  status: ('A' for Active; 'I' for Inactive)
REMARK    1  A    between atoms: C_2  and  C_3
REMARK    2  A    between atoms: C_3  and  C_4
REMARK    3  A    between atoms: C_4  and  N_5
REMARK    4  A    between atoms: N_17  and  C_18
REMARK                            x       y       z     vdW  Elec       q    Type
REMARK                         _______ _______ _______ _____ _____    ______ ____
ROOT
ATOM      1  C   UNL     1       2.324   7.445  17.992  0.00  0.00    +0.000 C 
ENDROOT
BRANCH   1   2
ATOM      2  N   UNL     1       1.710   8.208  19.081  0.00  0.00    +0.000 N 
ATOM      3  C   UNL     1       1.444   7.709  20.331  0.00  0.00    +0.000 C 
ATOM      4  O   UNL     1       1.670   6.602  20.779  0.00  0.00    +0.000 OA
ATOM      5  C   UNL     1       0.825   8.796  21.094  0.00  0.00    +0.000 A 
ATOM      6  C   UNL     1       0.315   8.823  22.377  0.00  0.00    +0.000 A 
ATOM      7  C   UNL     1      -0.254  10.027  22.822  0.00  0.00    +0.000 A 
ATOM      8  C   UNL     1      -0.282  11.158  21.982  0.00  0.00    +0.000 A 
ATOM      9 BR   UNL     1      -1.091  12.752  22.602  0.00  0.00    +0.000 Br
ATOM     10  C   UNL     1       0.255  11.118  20.695  0.00  0.00    +0.000 A 
ATOM     11  C   UNL     1       0.796   9.913  20.279  0.00  0.00    +0.000 A 
ATOM     12  C   UNL     1       1.389   9.538  18.997  0.00  0.00    +0.000 C 
ATOM     13  O   UNL     1       1.555  10.312  18.073  0.00  0.00    +0.000 OA
ENDBRANCH   1   2
BRANCH   1  14
ATOM     14  C   UNL     1       3.773   7.073  18.307  0.00  0.00    +0.000 C 
BRANCH  14  16
ATOM     15  O   UNL     1       5.140   5.105  17.984  0.00  0.00    +0.000 OA
ATOM     16  C   UNL     1       4.058   5.573  18.288  0.00  0.00    +0.000 C 
ATOM     17  N   UNL     1       2.962   4.804  18.656  0.00  0.00    +0.000 N 
ATOM     18  H   UNL     1       2.070   5.280  18.642  0.00  0.00    +0.000 HD
BRANCH  17  19
ATOM     19  C   UNL     1       2.902   3.325  18.690  0.00  0.00    +0.000 C 
ATOM     20  C   UNL     1       3.491   2.666  19.948  0.00  0.00    +0.000 C 
ATOM     21  C   UNL     1       2.787   3.167  21.205  0.00  0.00    +0.000 C 
ATOM     22  C   UNL     1       1.301   2.817  21.158  0.00  0.00    +0.000 C 
ATOM     23  C   UNL     1       0.635   3.281  19.862  0.00  0.00    +0.000 C 
ATOM     24  C   UNL     1       1.421   2.885  18.604  0.00  0.00    +0.000 C 
ENDBRANCH  17  19
ENDBRANCH  14  16
ENDBRANCH   1  14
TORSDOF 4
ENDMDL
MODEL 9
REMARK VINA RESULT:      -7.2      2.344      4.365
REMARK  Name = 
REMARK  4 active torsions:
REMARK  status: ('A' for Active; 'I' for Inactive)
REMARK    1  A    between atoms: C_2  and  C_3
REMARK    2  A    between atoms: C_3  and  C_4
REMARK    3  A    between atoms: C_4  and  N_5
REMARK    4  A    between atoms: N_17  and  C_18
REMARK                            x       y       z     vdW  Elec       q    Type
REMARK                         _______ _______ _______ _____ _____    ______ ____
ROOT
ATOM      1  C   UNL     1       2.154   2.077  19.026  0.00  0.00    +0.000 C 
ENDROOT
BRANCH   1   2
ATOM      2  N   UNL     1       2.028   3.522  19.230  0.00  0.00    +0.000 N 
ATOM      3  C   UNL     1       2.160   4.465  18.241  0.00  0.00    +0.000 C 
ATOM      4  O   UNL     1       2.372   4.307  17.055  0.00  0.00    +0.000 OA
ATOM      5  C   UNL     1       1.971   5.770  18.878  0.00  0.00    +0.000 A 
ATOM      6  C   UNL     1       2.053   7.049  18.360  0.00  0.00    +0.000 A 
ATOM      7  C   UNL     1       1.851   8.119  19.246  0.00  0.00    +0.000 A 
ATOM      8  C   UNL     1       1.563   7.879  20.605  0.00  0.00    +0.000 A 
ATOM      9 BR   UNL     1       1.333   9.347  21.776  0.00  0.00    +0.000 Br
ATOM     10  C   UNL     1       1.465   6.580  21.106  0.00  0.00    +0.000 A 
ATOM     11  C   UNL     1       1.684   5.546  20.212  0.00  0.00    +0.000 A 
ATOM     12  C   UNL     1       1.696   4.100  20.427  0.00  0.00    +0.000 C 
ATOM     13  O   UNL     1       1.434   3.570  21.490  0.00  0.00    +0.000 OA
ENDBRANCH   1   2
BRANCH   1  14
ATOM     14  C   UNL     1       3.566   1.686  18.592  0.00  0.00    +0.000 C 
BRANCH  14  16
ATOM     15  O   UNL     1       5.044   2.556  20.297  0.00  0.00    +0.000 OA
ATOM     16  C   UNL     1       4.668   2.591  19.140  0.00  0.00    +0.000 C 
ATOM     17  N   UNL     1       5.196   3.449  18.183  0.00  0.00    +0.000 N 
ATOM     18  H   UNL     1       4.644   3.560  17.343  0.00  0.00    +0.000 HD
BRANCH  17  19
ATOM     19  C   UNL     1       6.237   4.477  18.409  0.00  0.00    +0.000 C 
ATOM     20  C   UNL     1       7.447   4.414  17.464  0.00  0.00    +0.000 C 
ATOM     21  C   UNL     1       7.007   4.541  16.008  0.00  0.00    +0.000 C 
ATOM     22  C   UNL     1       6.315   5.883  15.777  0.00  0.00    +0.000 C 
ATOM     23  C   UNL     1       5.187   6.134  16.778  0.00  0.00    +0.000 C 
ATOM     24  C   UNL     1       5.601   5.876  18.233  0.00  0.00    +0.000 C 
ENDBRANCH  17  19
ENDBRANCH  14  16
ENDBRANCH   1  14
TORSDOF 4
ENDMDL
