MODEL 1
REMARK VINA RESULT:      -7.9      0.000      0.000
REMARK  Name = 
REMARK  3 active torsions:
REMARK  status: ('A' for Active; 'I' for Inactive)
REMARK    1  A    between atoms: C_2  and  C_4
REMARK    2  A    between atoms: C_8  and  N_9
REMARK    3  A    between atoms: C_10  and  C_12
REMARK                            x       y       z     vdW  Elec       q    Type
REMARK                         _______ _______ _______ _____ _____    ______ ____
ROOT
ATOM      1  N   UNL     1       3.586   5.070  18.502  0.00  0.00    +0.000 N 
ATOM      2  C   UNL     1       4.918   5.291  18.209  0.00  0.00    +0.000 C 
ATOM      3  O   UNL     1       5.826   4.773  18.864  0.00  0.00    +0.000 OA
ATOM      4  H   UNL     1       2.917   5.739  18.127  0.00  0.00    +0.000 HD
ENDROOT
BRANCH   2   5
ATOM      5  C   UNL     1       5.231   6.132  16.985  0.00  0.00    +0.000 C 
ATOM      6  C   UNL     1       6.506   6.960  17.173  0.00  0.00    +0.000 C 
ATOM      7  O   UNL     1       7.583   6.372  16.400  0.00  0.00    +0.000 OA
ATOM      8  C   UNL     1       6.945   5.578  15.486  0.00  0.00    +0.000 A 
ATOM      9  C   UNL     1       7.560   5.004  14.393  0.00  0.00    +0.000 A 
ATOM     10  C   UNL     1       6.782   4.214  13.545  0.00  0.00    +0.000 A 
ATOM     11  C   UNL     1       5.418   4.009  13.813  0.00  0.00    +0.000 A 
ATOM     12  C   UNL     1       4.816   4.594  14.932  0.00  0.00    +0.000 A 
ATOM     13  C   UNL     1       5.600   5.379  15.760  0.00  0.00    +0.000 A 
ENDBRANCH   2   5
BRANCH   1  18
ATOM     14  C   UNL     1       2.713   2.886  19.367  0.00  0.00    +0.000 C 
ATOM     15  C   UNL     1       1.783   2.568  20.537  0.00  0.00    +0.000 C 
ATOM     16  C   UNL     1       1.046   3.868  20.796  0.00  0.00    +0.000 C 
ATOM     17  C   UNL     1       2.033   4.976  20.439  0.00  0.00    +0.000 C 
ATOM     18  C   UNL     1       3.197   4.305  19.687  0.00  0.00    +0.000 C 
BRANCH  14  20
ATOM     19  N   UNL     1       4.915   2.097  20.065  0.00  0.00    +0.000 N 
ATOM     20  C   UNL     1       3.831   1.861  19.278  0.00  0.00    +0.000 C 
ATOM     21  O   UNL     1       3.836   0.917  18.495  0.00  0.00    +0.000 OA
ATOM     22  H   UNL     1       5.646   1.393  20.045  0.00  0.00    +0.000 HD
ATOM     23  H   UNL     1       4.863   2.707  20.870  0.00  0.00    +0.000 HD
ENDBRANCH  14  20
ENDBRANCH   1  18
TORSDOF 3
ENDMDL
MODEL 2
REMARK VINA RESULT:      -7.5      2.034      6.152
REMARK  Name = 
REMARK  3 active torsions:
REMARK  status: ('A' for Active; 'I' for Inactive)
REMARK    1  A    between atoms: C_2  and  C_4
REMARK    2  A    between atoms: C_8  and  N_9
REMARK    3  A    between atoms: C_10  and  C_12
REMARK                            x       y       z     vdW  Elec       q    Type
REMARK                         _______ _______ _______ _____ _____    ______ ____
ROOT
ATOM      1  N   UNL     1       4.208   4.402  16.292  0.00  0.00    +0.000 N 
ATOM      2  C   UNL     1       3.577   3.593  17.218  0.00  0.00    +0.000 C 
ATOM      3  O   UNL     1       4.137   2.617  17.723  0.00  0.00    +0.000 OA
ATOM      4  H   UNL     1       3.611   4.987  15.713  0.00  0.00    +0.000 HD
ENDROOT
BRANCH   2   5
ATOM      5  C   UNL     1       2.184   3.999  17.662  0.00  0.00    +0.000 C 
ATOM      6  C   UNL     1       1.530   2.928  18.540  0.00  0.00    +0.000 C 
ATOM      7  O   UNL     1       1.533   3.366  19.922  0.00  0.00    +0.000 OA
ATOM      8  C   UNL     1       1.724   4.719  19.844  0.00  0.00    +0.000 A 
ATOM      9  C   UNL     1       1.563   5.588  20.904  0.00  0.00    +0.000 A 
ATOM     10  C   UNL     1       1.794   6.945  20.677  0.00  0.00    +0.000 A 
ATOM     11  C   UNL     1       2.187   7.399  19.407  0.00  0.00    +0.000 A 
ATOM     12  C   UNL     1       2.352   6.500  18.348  0.00  0.00    +0.000 A 
ATOM     13  C   UNL     1       2.113   5.158  18.588  0.00  0.00    +0.000 A 
ENDBRANCH   2   5
BRANCH   1  18
ATOM     14  C   UNL     1       6.645   4.983  16.291  0.00  0.00    +0.000 C 
ATOM     15  C   UNL     1       7.698   4.900  15.185  0.00  0.00    +0.000 C 
ATOM     16  C   UNL     1       6.893   4.878  13.901  0.00  0.00    +0.000 C 
ATOM     17  C   UNL     1       5.593   4.158  14.244  0.00  0.00    +0.000 C 
ATOM     18  C   UNL     1       5.534   4.058  15.779  0.00  0.00    +0.000 C 
BRANCH  14  20
ATOM     19  N   UNL     1       6.460   4.795  18.717  0.00  0.00    +0.000 N 
ATOM     20  C   UNL     1       7.234   4.556  17.625  0.00  0.00    +0.000 C 
ATOM     21  O   UNL     1       8.366   4.105  17.763  0.00  0.00    +0.000 OA
ATOM     22  H   UNL     1       6.826   4.472  19.607  0.00  0.00    +0.000 HD
ATOM     23  H   UNL     1       5.463   4.943  18.638  0.00  0.00    +0.000 HD
ENDBRANCH  14  20
ENDBRANCH   1  18
TORSDOF 3
ENDMDL
MODEL 3
REMARK VINA RESULT:      -7.3      2.035      3.712
REMARK  Name = 
REMARK  3 active torsions:
REMARK  status: ('A' for Active; 'I' for Inactive)
REMARK    1  A    between atoms: C_2  and  C_4
REMARK    2  A    between atoms: C_8  and  N_9
REMARK    3  A    between atoms: C_10  and  C_12
REMARK                            x       y       z     vdW  Elec       q    Type
REMARK                         _______ _______ _______ _____ _____    ______ ____
ROOT
ATOM      1  N   UNL     1       3.286   4.891  17.530  0.00  0.00    +0.000 N 
ATOM      2  C   UNL     1       4.398   4.184  17.947  0.00  0.00    +0.000 C 
ATOM      3  O   UNL     1       4.344   3.363  18.866  0.00  0.00    +0.000 OA
ATOM      4  H   UNL     1       3.457   5.736  16.990  0.00  0.00    +0.000 HD
ENDROOT
BRANCH   2   5
ATOM      5  C   UNL     1       5.685   4.389  17.169  0.00  0.00    +0.000 C 
ATOM      6  C   UNL     1       5.423   4.969  15.776  0.00  0.00    +0.000 C 
ATOM      7  O   UNL     1       5.799   6.369  15.754  0.00  0.00    +0.000 OA
ATOM      8  C   UNL     1       6.626   6.510  16.837  0.00  0.00    +0.000 A 
ATOM      9  C   UNL     1       7.407   7.621  17.077  0.00  0.00    +0.000 A 
ATOM     10  C   UNL     1       8.201   7.626  18.225  0.00  0.00    +0.000 A 
ATOM     11  C   UNL     1       8.187   6.532  19.107  0.00  0.00    +0.000 A 
ATOM     12  C   UNL     1       7.381   5.419  18.848  0.00  0.00    +0.000 A 
ATOM     13  C   UNL     1       6.604   5.427  17.702  0.00  0.00    +0.000 A 
ENDBRANCH   2   5
BRANCH   1  18
ATOM     14  C   UNL     1       2.128   5.130  19.739  0.00  0.00    +0.000 C 
ATOM     15  C   UNL     1       0.981   4.336  20.364  0.00  0.00    +0.000 C 
ATOM     16  C   UNL     1       0.986   3.017  19.616  0.00  0.00    +0.000 C 
ATOM     17  C   UNL     1       1.459   3.348  18.204  0.00  0.00    +0.000 C 
ATOM     18  C   UNL     1       2.017   4.782  18.250  0.00  0.00    +0.000 C 
BRANCH  14  20
ATOM     19  N   UNL     1       1.441   6.922  21.247  0.00  0.00    +0.000 N 
ATOM     20  C   UNL     1       1.979   6.613  20.037  0.00  0.00    +0.000 C 
ATOM     21  O   UNL     1       2.230   7.503  19.233  0.00  0.00    +0.000 OA
ATOM     22  H   UNL     1       1.379   7.909  21.472  0.00  0.00    +0.000 HD
ATOM     23  H   UNL     1       1.436   6.258  22.010  0.00  0.00    +0.000 HD
ENDBRANCH  14  20
ENDBRANCH   1  18
TORSDOF 3
ENDMDL
MODEL 4
REMARK VINA RESULT:      -7.2      2.006      6.352
REMARK  Name = 
REMARK  3 active torsions:
REMARK  status: ('A' for Active; 'I' for Inactive)
REMARK    1  A    between atoms: C_2  and  C_4
REMARK    2  A    between atoms: C_8  and  N_9
REMARK    3  A    between atoms: C_10  and  C_12
REMARK                            x       y       z     vdW  Elec       q    Type
REMARK                         _______ _______ _______ _____ _____    ______ ____
ROOT
ATOM      1  N   UNL     1       4.338   4.265  15.702  0.00  0.00    +0.000 N 
ATOM      2  C   UNL     1       3.992   3.846  16.972  0.00  0.00    +0.000 C 
ATOM      3  O   UNL     1       4.815   3.347  17.743  0.00  0.00    +0.000 OA
ATOM      4  H   UNL     1       3.579   4.385  15.036  0.00  0.00    +0.000 HD
ENDROOT
BRANCH   2   5
ATOM      5  C   UNL     1       2.566   4.102  17.425  0.00  0.00    +0.000 C 
ATOM      6  C   UNL     1       2.020   2.947  18.270  0.00  0.00    +0.000 C 
ATOM      7  O   UNL     1       1.980   3.344  19.664  0.00  0.00    +0.000 OA
ATOM      8  C   UNL     1       2.038   4.711  19.625  0.00  0.00    +0.000 A 
ATOM      9  C   UNL     1       1.794   5.529  20.709  0.00  0.00    +0.000 A 
ATOM     10  C   UNL     1       1.892   6.909  20.521  0.00  0.00    +0.000 A 
ATOM     11  C   UNL     1       2.239   7.435  19.265  0.00  0.00    +0.000 A 
ATOM     12  C   UNL     1       2.490   6.587  18.182  0.00  0.00    +0.000 A 
ATOM     13  C   UNL     1       2.383   5.221  18.383  0.00  0.00    +0.000 A 
ENDBRANCH   2   5
BRANCH   1  18
ATOM     14  C   UNL     1       6.559   5.273  15.131  0.00  0.00    +0.000 C 
ATOM     15  C   UNL     1       7.542   4.966  14.000  0.00  0.00    +0.000 C 
ATOM     16  C   UNL     1       6.700   4.269  12.950  0.00  0.00    +0.000 C 
ATOM     17  C   UNL     1       5.632   3.502  13.723  0.00  0.00    +0.000 C 
ATOM     18  C   UNL     1       5.680   4.018  15.173  0.00  0.00    +0.000 C 
BRANCH  14  20
ATOM     19  N   UNL     1       7.595   4.455  17.184  0.00  0.00    +0.000 N 
ATOM     20  C   UNL     1       7.303   5.547  16.427  0.00  0.00    +0.000 C 
ATOM     21  O   UNL     1       7.564   6.669  16.846  0.00  0.00    +0.000 OA
ATOM     22  H   UNL     1       8.130   4.624  18.029  0.00  0.00    +0.000 HD
ATOM     23  H   UNL     1       7.611   3.524  16.788  0.00  0.00    +0.000 HD
ENDBRANCH  14  20
ENDBRANCH   1  18
TORSDOF 3
ENDMDL
MODEL 5
REMARK VINA RESULT:      -7.1      2.259      6.128
REMARK  Name = 
REMARK  3 active torsions:
REMARK  status: ('A' for Active; 'I' for Inactive)
REMARK    1  A    between atoms: C_2  and  C_4
REMARK    2  A    between atoms: C_8  and  N_9
REMARK    3  A    between atoms: C_10  and  C_12
REMARK                            x       y       z     vdW  Elec       q    Type
REMARK                         _______ _______ _______ _____ _____    ______ ____
ROOT
ATOM      1  N   UNL     1       4.273   4.589  16.670  0.00  0.00    +0.000 N 
ATOM      2  C   UNL     1       3.869   4.165  17.922  0.00  0.00    +0.000 C 
ATOM      3  O   UNL     1       4.634   3.581  18.693  0.00  0.00    +0.000 OA
ATOM      4  H   UNL     1       3.538   4.788  15.995  0.00  0.00    +0.000 HD
ENDROOT
BRANCH   2   5
ATOM      5  C   UNL     1       2.459   4.525  18.357  0.00  0.00    +0.000 C 
ATOM      6  C   UNL     1       2.068   3.819  19.659  0.00  0.00    +0.000 C 
ATOM      7  O   UNL     1       2.088   4.772  20.752  0.00  0.00    +0.000 OA
ATOM      8  C   UNL     1       2.030   5.992  20.133  0.00  0.00    +0.000 A 
ATOM      9  C   UNL     1       1.792   7.184  20.787  0.00  0.00    +0.000 A 
ATOM     10  C   UNL     1       1.763   8.353  20.025  0.00  0.00    +0.000 A 
ATOM     11  C   UNL     1       1.982   8.306  18.638  0.00  0.00    +0.000 A 
ATOM     12  C   UNL     1       2.230   7.088  17.997  0.00  0.00    +0.000 A 
ATOM     13  C   UNL     1       2.249   5.937  18.765  0.00  0.00    +0.000 A 
ENDBRANCH   2   5
BRANCH   1  18
ATOM     14  C   UNL     1       6.592   5.416  16.209  0.00  0.00    +0.000 C 
ATOM     15  C   UNL     1       7.573   5.082  15.085  0.00  0.00    +0.000 C 
ATOM     16  C   UNL     1       6.700   4.526  13.977  0.00  0.00    +0.000 C 
ATOM     17  C   UNL     1       5.545   3.820  14.680  0.00  0.00    +0.000 C 
ATOM     18  C   UNL     1       5.600   4.248  16.158  0.00  0.00    +0.000 C 
BRANCH  14  20
ATOM     19  N   UNL     1       7.559   4.381  18.197  0.00  0.00    +0.000 N 
ATOM     20  C   UNL     1       7.321   5.546  17.535  0.00  0.00    +0.000 C 
ATOM     21  O   UNL     1       7.616   6.616  18.055  0.00  0.00    +0.000 OA
ATOM     22  H   UNL     1       8.085   4.455  19.062  0.00  0.00    +0.000 HD
ATOM     23  H   UNL     1       7.548   3.489  17.721  0.00  0.00    +0.000 HD
ENDBRANCH  14  20
ENDBRANCH   1  18
TORSDOF 3
ENDMDL
MODEL 6
REMARK VINA RESULT:      -7.1      2.331      6.105
REMARK  Name = 
REMARK  3 active torsions:
REMARK  status: ('A' for Active; 'I' for Inactive)
REMARK    1  A    between atoms: C_2  and  C_4
REMARK    2  A    between atoms: C_8  and  N_9
REMARK    3  A    between atoms: C_10  and  C_12
REMARK                            x       y       z     vdW  Elec       q    Type
REMARK                         _______ _______ _______ _____ _____    ______ ____
ROOT
ATOM      1  N   UNL     1       4.326   5.043  17.849  0.00  0.00    +0.000 N 
ATOM      2  C   UNL     1       3.325   5.975  18.048  0.00  0.00    +0.000 C 
ATOM      3  O   UNL     1       3.509   7.181  17.865  0.00  0.00    +0.000 OA
ATOM      4  H   UNL     1       4.200   4.135  18.290  0.00  0.00    +0.000 HD
ENDROOT
BRANCH   2   5
ATOM      5  C   UNL     1       1.950   5.451  18.418  0.00  0.00    +0.000 C 
ATOM      6  C   UNL     1       1.371   4.547  17.325  0.00  0.00    +0.000 C 
ATOM      7  O   UNL     1       1.440   3.164  17.753  0.00  0.00    +0.000 OA
ATOM      8  C   UNL     1       1.594   3.241  19.112  0.00  0.00    +0.000 A 
ATOM      9  C   UNL     1       1.473   2.167  19.969  0.00  0.00    +0.000 A 
ATOM     10  C   UNL     1       1.659   2.395  21.333  0.00  0.00    +0.000 A 
ATOM     11  C   UNL     1       1.970   3.682  21.805  0.00  0.00    +0.000 A 
ATOM     12  C   UNL     1       2.097   4.755  20.917  0.00  0.00    +0.000 A 
ATOM     13  C   UNL     1       1.904   4.513  19.568  0.00  0.00    +0.000 A 
ENDBRANCH   2   5
BRANCH   1  18
ATOM     14  C   UNL     1       6.461   4.452  16.678  0.00  0.00    +0.000 C 
ATOM     15  C   UNL     1       7.918   4.734  17.041  0.00  0.00    +0.000 C 
ATOM     16  C   UNL     1       7.888   5.006  18.533  0.00  0.00    +0.000 C 
ATOM     17  C   UNL     1       6.536   5.659  18.803  0.00  0.00    +0.000 C 
ATOM     18  C   UNL     1       5.690   5.466  17.531  0.00  0.00    +0.000 C 
BRANCH  14  20
ATOM     19  N   UNL     1       7.279   5.146  14.485  0.00  0.00    +0.000 N 
ATOM     20  C   UNL     1       6.240   4.613  15.183  0.00  0.00    +0.000 C 
ATOM     21  O   UNL     1       5.180   4.375  14.615  0.00  0.00    +0.000 OA
ATOM     22  H   UNL     1       7.157   5.215  13.481  0.00  0.00    +0.000 HD
ATOM     23  H   UNL     1       8.222   5.141  14.852  0.00  0.00    +0.000 HD
ENDBRANCH  14  20
ENDBRANCH   1  18
TORSDOF 3
ENDMDL
MODEL 7
REMARK VINA RESULT:      -7.1      1.952      6.131
REMARK  Name = 
REMARK  3 active torsions:
REMARK  status: ('A' for Active; 'I' for Inactive)
REMARK    1  A    between atoms: C_2  and  C_4
REMARK    2  A    between atoms: C_8  and  N_9
REMARK    3  A    between atoms: C_10  and  C_12
REMARK                            x       y       z     vdW  Elec       q    Type
REMARK                         _______ _______ _______ _____ _____    ______ ____
ROOT
ATOM      1  N   UNL     1       4.131   3.945  16.867  0.00  0.00    +0.000 N 
ATOM      2  C   UNL     1       3.655   5.157  17.330  0.00  0.00    +0.000 C 
ATOM      3  O   UNL     1       4.259   6.214  17.135  0.00  0.00    +0.000 OA
ATOM      4  H   UNL     1       3.754   3.108  17.304  0.00  0.00    +0.000 HD
ENDROOT
BRANCH   2   5
ATOM      5  C   UNL     1       2.302   5.156  18.018  0.00  0.00    +0.000 C 
ATOM      6  C   UNL     1       1.275   4.313  17.256  0.00  0.00    +0.000 C 
ATOM      7  O   UNL     1       1.052   3.066  17.961  0.00  0.00    +0.000 OA
ATOM      8  C   UNL     1       1.511   3.311  19.228  0.00  0.00    +0.000 A 
ATOM      9  C   UNL     1       1.287   2.483  20.308  0.00  0.00    +0.000 A 
ATOM     10  C   UNL     1       1.819   2.861  21.542  0.00  0.00    +0.000 A 
ATOM     11  C   UNL     1       2.567   4.044  21.664  0.00  0.00    +0.000 A 
ATOM     12  C   UNL     1       2.789   4.865  20.554  0.00  0.00    +0.000 A 
ATOM     13  C   UNL     1       2.250   4.479  19.339  0.00  0.00    +0.000 A 
ENDBRANCH   2   5
BRANCH   1  18
ATOM     14  C   UNL     1       6.420   4.947  16.678  0.00  0.00    +0.000 C 
ATOM     15  C   UNL     1       7.366   5.074  15.483  0.00  0.00    +0.000 C 
ATOM     16  C   UNL     1       6.463   4.938  14.273  0.00  0.00    +0.000 C 
ATOM     17  C   UNL     1       5.345   3.992  14.700  0.00  0.00    +0.000 C 
ATOM     18  C   UNL     1       5.445   3.852  16.230  0.00  0.00    +0.000 C 
BRANCH  14  20
ATOM     19  N   UNL     1       6.593   4.938  19.112  0.00  0.00    +0.000 N 
ATOM     20  C   UNL     1       7.194   4.603  17.939  0.00  0.00    +0.000 C 
ATOM     21  O   UNL     1       8.327   4.135  17.944  0.00  0.00    +0.000 OA
ATOM     22  H   UNL     1       7.082   4.671  19.961  0.00  0.00    +0.000 HD
ATOM     23  H   UNL     1       5.596   5.104  19.169  0.00  0.00    +0.000 HD
ENDBRANCH  14  20
ENDBRANCH   1  18
TORSDOF 3
ENDMDL
MODEL 8
REMARK VINA RESULT:      -7.1      3.779      5.563
REMARK  Name = 
REMARK  3 active torsions:
REMARK  status: ('A' for Active; 'I' for Inactive)
REMARK    1  A    between atoms: C_2  and  C_4
REMARK    2  A    between atoms: C_8  and  N_9
REMARK    3  A    between atoms: C_10  and  C_12
REMARK                            x       y       z     vdW  Elec       q    Type
REMARK                         _______ _______ _______ _____ _____    ______ ____
ROOT
ATOM      1  N   UNL     1       2.580   5.464  20.294  0.00  0.00    +0.000 N 
ATOM      2  C   UNL     1       2.462   6.158  19.105  0.00  0.00    +0.000 C 
ATOM      3  O   UNL     1       2.081   5.615  18.065  0.00  0.00    +0.000 OA
ATOM      4  H   UNL     1       3.164   5.884  21.013  0.00  0.00    +0.000 HD
ENDROOT
BRANCH   2   5
ATOM      5  C   UNL     1       2.737   7.651  19.140  0.00  0.00    +0.000 C 
ATOM      6  C   UNL     1       2.998   8.215  17.740  0.00  0.00    +0.000 C 
ATOM      7  O   UNL     1       1.840   8.968  17.298  0.00  0.00    +0.000 OA
ATOM      8  C   UNL     1       1.153   9.235  18.453  0.00  0.00    +0.000 A 
ATOM      9  C   UNL     1       0.106  10.128  18.543  0.00  0.00    +0.000 A 
ATOM     10  C   UNL     1      -0.502  10.297  19.789  0.00  0.00    +0.000 A 
ATOM     11  C   UNL     1      -0.058   9.567  20.904  0.00  0.00    +0.000 A 
ATOM     12  C   UNL     1       1.000   8.661  20.788  0.00  0.00    +0.000 A 
ATOM     13  C   UNL     1       1.596   8.509  19.548  0.00  0.00    +0.000 A 
ENDBRANCH   2   5
BRANCH   1  18
ATOM     14  C   UNL     1       3.122   3.258  19.236  0.00  0.00    +0.000 C 
ATOM     15  C   UNL     1       2.278   1.997  19.052  0.00  0.00    +0.000 C 
ATOM     16  C   UNL     1       0.847   2.483  19.171  0.00  0.00    +0.000 C 
ATOM     17  C   UNL     1       0.890   3.649  20.154  0.00  0.00    +0.000 C 
ATOM     18  C   UNL     1       2.374   4.016  20.338  0.00  0.00    +0.000 C 
BRANCH  14  20
ATOM     19  N   UNL     1       5.522   3.625  18.984  0.00  0.00    +0.000 N 
ATOM     20  C   UNL     1       4.553   2.897  19.600  0.00  0.00    +0.000 C 
ATOM     21  O   UNL     1       4.860   1.959  20.327  0.00  0.00    +0.000 OA
ATOM     22  H   UNL     1       6.479   3.421  19.256  0.00  0.00    +0.000 HD
ATOM     23  H   UNL     1       5.327   4.528  18.573  0.00  0.00    +0.000 HD
ENDBRANCH  14  20
ENDBRANCH   1  18
TORSDOF 3
ENDMDL
MODEL 9
REMARK VINA RESULT:      -7.1      1.803      2.969
REMARK  Name = 
REMARK  3 active torsions:
REMARK  status: ('A' for Active; 'I' for Inactive)
REMARK    1  A    between atoms: C_2  and  C_4
REMARK    2  A    between atoms: C_8  and  N_9
REMARK    3  A    between atoms: C_10  and  C_12
REMARK                            x       y       z     vdW  Elec       q    Type
REMARK                         _______ _______ _______ _____ _____    ______ ____
ROOT
ATOM      1  N   UNL     1       3.982   4.595  18.293  0.00  0.00    +0.000 N 
ATOM      2  C   UNL     1       4.551   3.776  17.337  0.00  0.00    +0.000 C 
ATOM      3  O   UNL     1       4.051   2.694  17.021  0.00  0.00    +0.000 OA
ATOM      4  H   UNL     1       4.583   5.304  18.705  0.00  0.00    +0.000 HD
ENDROOT
BRANCH   2   5
ATOM      5  C   UNL     1       5.781   4.298  16.616  0.00  0.00    +0.000 C 
ATOM      6  C   UNL     1       5.409   5.192  15.429  0.00  0.00    +0.000 C 
ATOM      7  O   UNL     1       5.661   6.578  15.769  0.00  0.00    +0.000 OA
ATOM      8  C   UNL     1       6.518   6.511  16.835  0.00  0.00    +0.000 A 
ATOM      9  C   UNL     1       7.210   7.592  17.343  0.00  0.00    +0.000 A 
ATOM     10  C   UNL     1       8.049   7.374  18.437  0.00  0.00    +0.000 A 
ATOM     11  C   UNL     1       8.168   6.092  19.000  0.00  0.00    +0.000 A 
ATOM     12  C   UNL     1       7.452   5.013  18.474  0.00  0.00    +0.000 A 
ATOM     13  C   UNL     1       6.628   5.244  17.385  0.00  0.00    +0.000 A 
ENDBRANCH   2   5
BRANCH   1  18
ATOM     14  C   UNL     1       2.877   2.669  19.453  0.00  0.00    +0.000 C 
ATOM     15  C   UNL     1       1.401   2.295  19.599  0.00  0.00    +0.000 C 
ATOM     16  C   UNL     1       0.714   3.031  18.465  0.00  0.00    +0.000 C 
ATOM     17  C   UNL     1       1.514   4.315  18.266  0.00  0.00    +0.000 C 
ATOM     18  C   UNL     1       2.820   4.150  19.064  0.00  0.00    +0.000 C 
BRANCH  14  20
ATOM     19  N   UNL     1       4.914   1.985  20.610  0.00  0.00    +0.000 N 
ATOM     20  C   UNL     1       3.627   2.402  20.747  0.00  0.00    +0.000 C 
ATOM     21  O   UNL     1       3.118   2.459  21.861  0.00  0.00    +0.000 OA
ATOM     22  H   UNL     1       5.437   1.848  21.469  0.00  0.00    +0.000 HD
ATOM     23  H   UNL     1       5.434   2.141  19.757  0.00  0.00    +0.000 HD
ENDBRANCH  14  20
ENDBRANCH   1  18
TORSDOF 3
ENDMDL
