MODEL 1
REMARK VINA RESULT:      -5.4      0.000      0.000
REMARK  Name = 
REMARK  6 active torsions:
REMARK  status: ('A' for Active; 'I' for Inactive)
REMARK    1  A    between atoms: N_1  and  C_2
REMARK    2  A    between atoms: C_2  and  C_3
REMARK    3  A    between atoms: C_3  and  C_4
REMARK    4  A    between atoms: C_6  and  O_7
REMARK    5  A    between atoms: C_8  and  O_9
REMARK    6  A    between atoms: C_11  and  N_12
REMARK                            x       y       z     vdW  Elec       q    Type
REMARK                         _______ _______ _______ _____ _____    ______ ____
ROOT
ATOM      1  C   UNL     1       3.024   4.254  18.161  0.00  0.00    +0.000 A 
ATOM      2  C   UNL     1       3.757   3.764  17.059  0.00  0.00    +0.000 A 
ATOM      3  C   UNL     1       5.145   3.805  17.072  0.00  0.00    +0.000 A 
ATOM      4  C   UNL     1       5.815   4.338  18.164  0.00  0.00    +0.000 A 
ATOM      5  C   UNL     1       5.112   4.855  19.242  0.00  0.00    +0.000 A 
ATOM      6  C   UNL     1       3.710   4.791  19.271  0.00  0.00    +0.000 A 
ENDROOT
BRANCH   6   7
ATOM      7  N   UNL     1       3.037   5.469  20.300  0.00  0.00    +0.000 N 
ATOM      8  H   UNL     1       3.286   5.141  21.230  0.00  0.00    +0.000 HD
ATOM      9  H   UNL     1       2.032   5.538  20.185  0.00  0.00    +0.000 HD
ENDBRANCH   6   7
BRANCH   3  10
ATOM     10  O   UNL     1       5.893   3.344  16.025  0.00  0.00    +0.000 OA
ATOM     11  H   UNL     1       5.464   3.628  15.200  0.00  0.00    +0.000 HD
ENDBRANCH   3  10
BRANCH   4  12
ATOM     12  O   UNL     1       7.181   4.370  18.176  0.00  0.00    +0.000 OA
ATOM     13  H   UNL     1       7.401   5.216  18.614  0.00  0.00    +0.000 HD
ENDBRANCH   4  12
BRANCH   1  14
ATOM     14  C   UNL     1       1.513   4.168  18.104  0.00  0.00    +0.000 C 
BRANCH  14  15
ATOM     15  C   UNL     1       0.967   2.933  18.821  0.00  0.00    +0.000 C 
BRANCH  15  16
ATOM     16  N   UNL     1       0.589   3.265  20.198  0.00  0.00    +0.000 NA
ATOM     17  H   UNL     1       1.408   3.608  20.695  0.00  0.00    +0.000 HD
ATOM     18  H   UNL     1       0.302   2.419  20.684  0.00  0.00    +0.000 HD
ENDBRANCH  15  16
ENDBRANCH  14  15
ENDBRANCH   1  14
TORSDOF 6
ENDMDL
MODEL 2
REMARK VINA RESULT:      -5.3      3.197      4.598
REMARK  Name = 
REMARK  6 active torsions:
REMARK  status: ('A' for Active; 'I' for Inactive)
REMARK    1  A    between atoms: N_1  and  C_2
REMARK    2  A    between atoms: C_2  and  C_3
REMARK    3  A    between atoms: C_3  and  C_4
REMARK    4  A    between atoms: C_6  and  O_7
REMARK    5  A    between atoms: C_8  and  O_9
REMARK    6  A    between atoms: C_11  and  N_12
REMARK                            x       y       z     vdW  Elec       q    Type
REMARK                         _______ _______ _______ _____ _____    ______ ____
ROOT
ATOM      1  C   UNL     1       4.295   3.870  18.726  0.00  0.00    +0.000 A 
ATOM      2  C   UNL     1       3.253   4.435  17.961  0.00  0.00    +0.000 A 
ATOM      3  C   UNL     1       2.033   3.779  17.855  0.00  0.00    +0.000 A 
ATOM      4  C   UNL     1       1.840   2.561  18.491  0.00  0.00    +0.000 A 
ATOM      5  C   UNL     1       2.863   1.973  19.219  0.00  0.00    +0.000 A 
ATOM      6  C   UNL     1       4.093   2.633  19.375  0.00  0.00    +0.000 A 
ENDROOT
BRANCH   6   7
ATOM      7  N   UNL     1       5.149   1.932  19.980  0.00  0.00    +0.000 N 
ATOM      8  H   UNL     1       5.343   2.236  20.931  0.00  0.00    +0.000 HD
ATOM      9  H   UNL     1       5.996   1.870  19.427  0.00  0.00    +0.000 HD
ENDBRANCH   6   7
BRANCH   3  10
ATOM     10  O   UNL     1       0.998   4.289  17.122  0.00  0.00    +0.000 OA
ATOM     11  H   UNL     1       0.762   3.637  16.440  0.00  0.00    +0.000 HD
ENDBRANCH   3  10
BRANCH   4  12
ATOM     12  O   UNL     1       0.636   1.922  18.390  0.00  0.00    +0.000 OA
ATOM     13  H   UNL     1       0.155   2.178  19.202  0.00  0.00    +0.000 HD
ENDBRANCH   4  12
BRANCH   1  14
ATOM     14  C   UNL     1       5.598   4.635  18.825  0.00  0.00    +0.000 C 
BRANCH  14  15
ATOM     15  C   UNL     1       6.402   4.599  17.525  0.00  0.00    +0.000 C 
BRANCH  15  16
ATOM     16  N   UNL     1       7.817   4.338  17.803  0.00  0.00    +0.000 NA
ATOM     17  H   UNL     1       8.218   5.146  18.273  0.00  0.00    +0.000 HD
ATOM     18  H   UNL     1       8.323   4.246  16.926  0.00  0.00    +0.000 HD
ENDBRANCH  15  16
ENDBRANCH  14  15
ENDBRANCH   1  14
TORSDOF 6
ENDMDL
MODEL 3
REMARK VINA RESULT:      -5.3      3.393      4.613
REMARK  Name = 
REMARK  6 active torsions:
REMARK  status: ('A' for Active; 'I' for Inactive)
REMARK    1  A    between atoms: N_1  and  C_2
REMARK    2  A    between atoms: C_2  and  C_3
REMARK    3  A    between atoms: C_3  and  C_4
REMARK    4  A    between atoms: C_6  and  O_7
REMARK    5  A    between atoms: C_8  and  O_9
REMARK    6  A    between atoms: C_11  and  N_12
REMARK                            x       y       z     vdW  Elec       q    Type
REMARK                         _______ _______ _______ _____ _____    ______ ____
ROOT
ATOM      1  C   UNL     1       5.401   4.238  16.815  0.00  0.00    +0.000 A 
ATOM      2  C   UNL     1       3.994   4.344  16.846  0.00  0.00    +0.000 A 
ATOM      3  C   UNL     1       3.358   4.843  17.975  0.00  0.00    +0.000 A 
ATOM      4  C   UNL     1       4.104   5.230  19.081  0.00  0.00    +0.000 A 
ATOM      5  C   UNL     1       5.484   5.102  19.082  0.00  0.00    +0.000 A 
ATOM      6  C   UNL     1       6.156   4.637  17.940  0.00  0.00    +0.000 A 
ENDROOT
BRANCH   6   7
ATOM      7  N   UNL     1       7.531   4.371  18.041  0.00  0.00    +0.000 N 
ATOM      8  H   UNL     1       7.966   4.802  18.852  0.00  0.00    +0.000 HD
ATOM      9  H   UNL     1       8.064   4.540  17.196  0.00  0.00    +0.000 HD
ENDBRANCH   6   7
BRANCH   3  10
ATOM     10  O   UNL     1       1.998   4.959  18.049  0.00  0.00    +0.000 OA
ATOM     11  H   UNL     1       1.761   5.136  18.975  0.00  0.00    +0.000 HD
ENDBRANCH   3  10
BRANCH   4  12
ATOM     12  O   UNL     1       3.475   5.727  20.187  0.00  0.00    +0.000 OA
ATOM     13  H   UNL     1       3.841   5.208  20.930  0.00  0.00    +0.000 HD
ENDBRANCH   4  12
BRANCH   1  14
ATOM     14  C   UNL     1       6.046   3.706  15.552  0.00  0.00    +0.000 C 
BRANCH  14  15
ATOM     15  C   UNL     1       6.385   4.812  14.554  0.00  0.00    +0.000 C 
BRANCH  15  16
ATOM     16  N   UNL     1       7.688   5.405  14.869  0.00  0.00    +0.000 NA
ATOM     17  H   UNL     1       8.173   4.809  15.536  0.00  0.00    +0.000 HD
ATOM     18  H   UNL     1       7.550   6.296  15.341  0.00  0.00    +0.000 HD
ENDBRANCH  15  16
ENDBRANCH  14  15
ENDBRANCH   1  14
TORSDOF 6
ENDMDL
MODEL 4
REMARK VINA RESULT:      -5.3      2.516      2.897
REMARK  Name = 
REMARK  6 active torsions:
REMARK  status: ('A' for Active; 'I' for Inactive)
REMARK    1  A    between atoms: N_1  and  C_2
REMARK    2  A    between atoms: C_2  and  C_3
REMARK    3  A    between atoms: C_3  and  C_4
REMARK    4  A    between atoms: C_6  and  O_7
REMARK    5  A    between atoms: C_8  and  O_9
REMARK    6  A    between atoms: C_11  and  N_12
REMARK                            x       y       z     vdW  Elec       q    Type
REMARK                         _______ _______ _______ _____ _____    ______ ____
ROOT
ATOM      1  C   UNL     1       4.996   4.195  17.755  0.00  0.00    +0.000 A 
ATOM      2  C   UNL     1       4.677   4.065  16.386  0.00  0.00    +0.000 A 
ATOM      3  C   UNL     1       5.613   4.407  15.418  0.00  0.00    +0.000 A 
ATOM      4  C   UNL     1       6.860   4.885  15.794  0.00  0.00    +0.000 A 
ATOM      5  C   UNL     1       7.180   5.051  17.133  0.00  0.00    +0.000 A 
ATOM      6  C   UNL     1       6.267   4.678  18.133  0.00  0.00    +0.000 A 
ENDROOT
BRANCH   6   7
ATOM      7  N   UNL     1       6.566   5.013  19.463  0.00  0.00    +0.000 N 
ATOM      8  H   UNL     1       6.576   6.016  19.634  0.00  0.00    +0.000 HD
ATOM      9  H   UNL     1       7.389   4.561  19.845  0.00  0.00    +0.000 HD
ENDBRANCH   6   7
BRANCH   3  10
ATOM     10  O   UNL     1       5.345   4.300  14.082  0.00  0.00    +0.000 OA
ATOM     11  H   UNL     1       4.388   4.412  13.957  0.00  0.00    +0.000 HD
ENDBRANCH   3  10
BRANCH   4  12
ATOM     12  O   UNL     1       7.781   5.213  14.839  0.00  0.00    +0.000 OA
ATOM     13  H   UNL     1       8.426   4.478  14.859  0.00  0.00    +0.000 HD
ENDBRANCH   4  12
BRANCH   1  14
ATOM     14  C   UNL     1       3.946   3.791  18.769  0.00  0.00    +0.000 C 
BRANCH  14  15
ATOM     15  C   UNL     1       3.996   2.300  19.105  0.00  0.00    +0.000 C 
BRANCH  15  16
ATOM     16  N   UNL     1       5.066   2.027  20.068  0.00  0.00    +0.000 NA
ATOM     17  H   UNL     1       4.676   1.534  20.868  0.00  0.00    +0.000 HD
ATOM     18  H   UNL     1       5.428   2.906  20.431  0.00  0.00    +0.000 HD
ENDBRANCH  15  16
ENDBRANCH  14  15
ENDBRANCH   1  14
TORSDOF 6
ENDMDL
MODEL 5
REMARK VINA RESULT:      -5.2      2.905      3.802
REMARK  Name = 
REMARK  6 active torsions:
REMARK  status: ('A' for Active; 'I' for Inactive)
REMARK    1  A    between atoms: N_1  and  C_2
REMARK    2  A    between atoms: C_2  and  C_3
REMARK    3  A    between atoms: C_3  and  C_4
REMARK    4  A    between atoms: C_6  and  O_7
REMARK    5  A    between atoms: C_8  and  O_9
REMARK    6  A    between atoms: C_11  and  N_12
REMARK                            x       y       z     vdW  Elec       q    Type
REMARK                         _______ _______ _______ _____ _____    ______ ____
ROOT
ATOM      1  C   UNL     1       5.587   5.049  17.495  0.00  0.00    +0.000 A 
ATOM      2  C   UNL     1       6.190   4.797  18.746  0.00  0.00    +0.000 A 
ATOM      3  C   UNL     1       7.205   5.624  19.209  0.00  0.00    +0.000 A 
ATOM      4  C   UNL     1       7.637   6.694  18.439  0.00  0.00    +0.000 A 
ATOM      5  C   UNL     1       7.081   6.938  17.192  0.00  0.00    +0.000 A 
ATOM      6  C   UNL     1       6.027   6.141  16.716  0.00  0.00    +0.000 A 
ENDROOT
BRANCH   6   7
ATOM      7  N   UNL     1       5.607   6.320  15.388  0.00  0.00    +0.000 N 
ATOM      8  H   UNL     1       6.375   6.336  14.721  0.00  0.00    +0.000 HD
ATOM      9  H   UNL     1       4.968   7.092  15.241  0.00  0.00    +0.000 HD
ENDBRANCH   6   7
BRANCH   3  10
ATOM     10  O   UNL     1       7.817   5.415  20.413  0.00  0.00    +0.000 OA
ATOM     11  H   UNL     1       7.215   4.895  20.971  0.00  0.00    +0.000 HD
ENDBRANCH   3  10
BRANCH   4  12
ATOM     12  O   UNL     1       8.631   7.510  18.901  0.00  0.00    +0.000 OA
ATOM     13  H   UNL     1       8.171   8.333  19.160  0.00  0.00    +0.000 HD
ENDBRANCH   4  12
BRANCH   1  14
ATOM     14  C   UNL     1       4.472   4.128  17.046  0.00  0.00    +0.000 C 
BRANCH  14  15
ATOM     15  C   UNL     1       3.877   3.319  18.199  0.00  0.00    +0.000 C 
BRANCH  15  16
ATOM     16  N   UNL     1       4.009   1.883  17.939  0.00  0.00    +0.000 NA
ATOM     17  H   UNL     1       4.926   1.570  18.250  0.00  0.00    +0.000 HD
ATOM     18  H   UNL     1       3.984   1.716  16.935  0.00  0.00    +0.000 HD
ENDBRANCH  15  16
ENDBRANCH  14  15
ENDBRANCH   1  14
TORSDOF 6
ENDMDL
MODEL 6
REMARK VINA RESULT:      -5.2      3.616      5.027
REMARK  Name = 
REMARK  6 active torsions:
REMARK  status: ('A' for Active; 'I' for Inactive)
REMARK    1  A    between atoms: N_1  and  C_2
REMARK    2  A    between atoms: C_2  and  C_3
REMARK    3  A    between atoms: C_3  and  C_4
REMARK    4  A    between atoms: C_6  and  O_7
REMARK    5  A    between atoms: C_8  and  O_9
REMARK    6  A    between atoms: C_11  and  N_12
REMARK                            x       y       z     vdW  Elec       q    Type
REMARK                         _______ _______ _______ _____ _____    ______ ____
ROOT
ATOM      1  C   UNL     1       6.328   5.546  16.722  0.00  0.00    +0.000 A 
ATOM      2  C   UNL     1       7.203   6.575  17.131  0.00  0.00    +0.000 A 
ATOM      3  C   UNL     1       7.722   6.576  18.419  0.00  0.00    +0.000 A 
ATOM      4  C   UNL     1       7.375   5.571  19.311  0.00  0.00    +0.000 A 
ATOM      5  C   UNL     1       6.490   4.570  18.938  0.00  0.00    +0.000 A 
ATOM      6  C   UNL     1       5.980   4.523  17.631  0.00  0.00    +0.000 A 
ENDROOT
BRANCH   6   7
ATOM      7  N   UNL     1       4.968   3.593  17.347  0.00  0.00    +0.000 N 
ATOM      8  H   UNL     1       4.361   3.403  18.140  0.00  0.00    +0.000 HD
ATOM      9  H   UNL     1       5.282   2.738  16.903  0.00  0.00    +0.000 HD
ENDBRANCH   6   7
BRANCH   3  10
ATOM     10  O   UNL     1       8.570   7.554  18.858  0.00  0.00    +0.000 OA
ATOM     11  H   UNL     1       9.482   7.263  18.685  0.00  0.00    +0.000 HD
ENDBRANCH   3  10
BRANCH   4  12
ATOM     12  O   UNL     1       7.894   5.571  20.575  0.00  0.00    +0.000 OA
ATOM     13  H   UNL     1       8.764   5.134  20.481  0.00  0.00    +0.000 HD
ENDBRANCH   4  12
BRANCH   1  14
ATOM     14  C   UNL     1       5.805   5.582  15.301  0.00  0.00    +0.000 C 
BRANCH  14  15
ATOM     15  C   UNL     1       6.639   4.728  14.346  0.00  0.00    +0.000 C 
BRANCH  15  16
ATOM     16  N   UNL     1       7.780   5.493  13.836  0.00  0.00    +0.000 NA
ATOM     17  H   UNL     1       8.244   4.955  13.108  0.00  0.00    +0.000 HD
ATOM     18  H   UNL     1       8.468   5.611  14.577  0.00  0.00    +0.000 HD
ENDBRANCH  15  16
ENDBRANCH  14  15
ENDBRANCH   1  14
TORSDOF 6
ENDMDL
MODEL 7
REMARK VINA RESULT:      -5.2      3.133      4.658
REMARK  Name = 
REMARK  6 active torsions:
REMARK  status: ('A' for Active; 'I' for Inactive)
REMARK    1  A    between atoms: N_1  and  C_2
REMARK    2  A    between atoms: C_2  and  C_3
REMARK    3  A    between atoms: C_3  and  C_4
REMARK    4  A    between atoms: C_6  and  O_7
REMARK    5  A    between atoms: C_8  and  O_9
REMARK    6  A    between atoms: C_11  and  N_12
REMARK                            x       y       z     vdW  Elec       q    Type
REMARK                         _______ _______ _______ _____ _____    ______ ____
ROOT
ATOM      1  C   UNL     1       6.298   4.967  17.452  0.00  0.00    +0.000 A 
ATOM      2  C   UNL     1       7.151   5.492  16.458  0.00  0.00    +0.000 A 
ATOM      3  C   UNL     1       7.087   5.008  15.158  0.00  0.00    +0.000 A 
ATOM      4  C   UNL     1       6.191   3.999  14.834  0.00  0.00    +0.000 A 
ATOM      5  C   UNL     1       5.368   3.446  15.804  0.00  0.00    +0.000 A 
ATOM      6  C   UNL     1       5.385   3.943  17.117  0.00  0.00    +0.000 A 
ENDROOT
BRANCH   6   7
ATOM      7  N   UNL     1       4.658   3.250  18.098  0.00  0.00    +0.000 N 
ATOM      8  H   UNL     1       3.876   3.782  18.473  0.00  0.00    +0.000 HD
ATOM      9  H   UNL     1       5.216   2.837  18.836  0.00  0.00    +0.000 HD
ENDBRANCH   6   7
BRANCH   3  10
ATOM     10  O   UNL     1       7.897   5.486  14.166  0.00  0.00    +0.000 OA
ATOM     11  H   UNL     1       7.353   5.618  13.371  0.00  0.00    +0.000 HD
ENDBRANCH   3  10
BRANCH   4  12
ATOM     12  O   UNL     1       6.126   3.530  13.553  0.00  0.00    +0.000 OA
ATOM     13  H   UNL     1       5.493   2.786  13.597  0.00  0.00    +0.000 HD
ENDBRANCH   4  12
BRANCH   1  14
ATOM     14  C   UNL     1       6.395   5.544  18.849  0.00  0.00    +0.000 C 
BRANCH  14  15
ATOM     15  C   UNL     1       7.830   5.893  19.242  0.00  0.00    +0.000 C 
BRANCH  15  16
ATOM     16  N   UNL     1       8.136   5.377  20.579  0.00  0.00    +0.000 NA
ATOM     17  H   UNL     1       7.745   6.006  21.276  0.00  0.00    +0.000 HD
ATOM     18  H   UNL     1       9.143   5.390  20.725  0.00  0.00    +0.000 HD
ENDBRANCH  15  16
ENDBRANCH  14  15
ENDBRANCH   1  14
TORSDOF 6
ENDMDL
MODEL 8
REMARK VINA RESULT:      -5.1      1.270      2.324
REMARK  Name = 
REMARK  6 active torsions:
REMARK  status: ('A' for Active; 'I' for Inactive)
REMARK    1  A    between atoms: N_1  and  C_2
REMARK    2  A    between atoms: C_2  and  C_3
REMARK    3  A    between atoms: C_3  and  C_4
REMARK    4  A    between atoms: C_6  and  O_7
REMARK    5  A    between atoms: C_8  and  O_9
REMARK    6  A    between atoms: C_11  and  N_12
REMARK                            x       y       z     vdW  Elec       q    Type
REMARK                         _______ _______ _______ _____ _____    ______ ____
ROOT
ATOM      1  C   UNL     1       3.295   4.763  19.104  0.00  0.00    +0.000 A 
ATOM      2  C   UNL     1       4.686   4.715  19.338  0.00  0.00    +0.000 A 
ATOM      3  C   UNL     1       5.546   4.289  18.335  0.00  0.00    +0.000 A 
ATOM      4  C   UNL     1       5.041   3.899  17.103  0.00  0.00    +0.000 A 
ATOM      5  C   UNL     1       3.675   3.907  16.865  0.00  0.00    +0.000 A 
ATOM      6  C   UNL     1       2.785   4.370  17.848  0.00  0.00    +0.000 A 
ENDROOT
BRANCH   6   7
ATOM      7  N   UNL     1       1.408   4.209  17.625  0.00  0.00    +0.000 N 
ATOM      8  H   UNL     1       1.164   4.147  16.640  0.00  0.00    +0.000 HD
ATOM      9  H   UNL     1       0.813   4.865  18.117  0.00  0.00    +0.000 HD
ENDBRANCH   6   7
BRANCH   3  10
ATOM     10  O   UNL     1       6.899   4.224  18.520  0.00  0.00    +0.000 OA
ATOM     11  H   UNL     1       7.317   4.102  17.650  0.00  0.00    +0.000 HD
ENDBRANCH   3  10
BRANCH   4  12
ATOM     12  O   UNL     1       5.891   3.487  16.116  0.00  0.00    +0.000 OA
ATOM     13  H   UNL     1       5.679   2.541  15.990  0.00  0.00    +0.000 HD
ENDBRANCH   4  12
BRANCH   1  14
ATOM     14  C   UNL     1       2.403   5.254  20.225  0.00  0.00    +0.000 C 
BRANCH  14  15
ATOM     15  C   UNL     1       2.002   4.138  21.189  0.00  0.00    +0.000 C 
BRANCH  15  16
ATOM     16  N   UNL     1       0.833   3.416  20.681  0.00  0.00    +0.000 NA
ATOM     17  H   UNL     1       0.320   3.018  21.465  0.00  0.00    +0.000 HD
ATOM     18  H   UNL     1       1.140   2.625  20.119  0.00  0.00    +0.000 HD
ENDBRANCH  15  16
ENDBRANCH  14  15
ENDBRANCH   1  14
TORSDOF 6
ENDMDL
MODEL 9
REMARK VINA RESULT:      -5.1      3.340      4.570
REMARK  Name = 
REMARK  6 active torsions:
REMARK  status: ('A' for Active; 'I' for Inactive)
REMARK    1  A    between atoms: N_1  and  C_2
REMARK    2  A    between atoms: C_2  and  C_3
REMARK    3  A    between atoms: C_3  and  C_4
REMARK    4  A    between atoms: C_6  and  O_7
REMARK    5  A    between atoms: C_8  and  O_9
REMARK    6  A    between atoms: C_11  and  N_12
REMARK                            x       y       z     vdW  Elec       q    Type
REMARK                         _______ _______ _______ _____ _____    ______ ____
ROOT
ATOM      1  C   UNL     1       4.899   4.964  17.575  0.00  0.00    +0.000 A 
ATOM      2  C   UNL     1       4.195   6.135  17.220  0.00  0.00    +0.000 A 
ATOM      3  C   UNL     1       3.328   6.727  18.128  0.00  0.00    +0.000 A 
ATOM      4  C   UNL     1       3.142   6.164  19.383  0.00  0.00    +0.000 A 
ATOM      5  C   UNL     1       3.799   4.995  19.738  0.00  0.00    +0.000 A 
ATOM      6  C   UNL     1       4.711   4.397  18.853  0.00  0.00    +0.000 A 
ENDROOT
BRANCH   6   7
ATOM      7  N   UNL     1       5.227   3.134  19.187  0.00  0.00    +0.000 N 
ATOM      8  H   UNL     1       4.948   2.816  20.112  0.00  0.00    +0.000 HD
ATOM      9  H   UNL     1       6.223   3.025  19.039  0.00  0.00    +0.000 HD
ENDBRANCH   6   7
BRANCH   3  10
ATOM     10  O   UNL     1       2.624   7.859  17.826  0.00  0.00    +0.000 OA
ATOM     11  H   UNL     1       2.340   8.270  18.660  0.00  0.00    +0.000 HD
ENDBRANCH   3  10
BRANCH   4  12
ATOM     12  O   UNL     1       2.293   6.754  20.276  0.00  0.00    +0.000 OA
ATOM     13  H   UNL     1       1.415   6.379  20.062  0.00  0.00    +0.000 HD
ENDBRANCH   4  12
BRANCH   1  14
ATOM     14  C   UNL     1       5.848   4.370  16.554  0.00  0.00    +0.000 C 
BRANCH  14  15
ATOM     15  C   UNL     1       7.269   4.919  16.683  0.00  0.00    +0.000 C 
BRANCH  15  16
ATOM     16  N   UNL     1       8.043   4.120  17.637  0.00  0.00    +0.000 NA
ATOM     17  H   UNL     1       7.489   3.978  18.479  0.00  0.00    +0.000 HD
ATOM     18  H   UNL     1       8.864   4.645  17.930  0.00  0.00    +0.000 HD
ENDBRANCH  15  16
ENDBRANCH  14  15
ENDBRANCH   1  14
TORSDOF 6
ENDMDL
