MODEL 1
REMARK VINA RESULT:      -7.8      0.000      0.000
REMARK  Name = 
REMARK  13 active torsions:
REMARK  status: ('A' for Active; 'I' for Inactive)
REMARK    1  A    between atoms: C_1  and  C_2
REMARK    2  A    between atoms: C_7  and  N_8
REMARK    3  A    between atoms: N_14  and  C_15
REMARK    4  A    between atoms: C_15  and  C_16
REMARK    5  A    between atoms: C_21  and  N_22
REMARK    6  A    between atoms: C_23  and  O_25
REMARK    7  A    between atoms: O_25  and  C_26
REMARK    8  A    between atoms: C_26  and  C_27
REMARK    9  A    between atoms: C_27  and  C_28
REMARK   10  A    between atoms: C_28  and  C_29
REMARK   11  A    between atoms: C_29  and  N_30
REMARK   12  A    between atoms: N_30  and  C_31
REMARK   13  A    between atoms: N_30  and  C_32
REMARK                            x       y       z     vdW  Elec       q    Type
REMARK                         _______ _______ _______ _____ _____    ______ ____
ROOT
ATOM      1  C   UNL     1       6.102   4.709  17.570  0.00  0.00    +0.000 A 
ATOM      2  C   UNL     1       5.286   3.804  16.845  0.00  0.00    +0.000 A 
ATOM      3  C   UNL     1       5.239   3.814  15.458  0.00  0.00    +0.000 A 
ATOM      4  C   UNL     1       6.028   4.725  14.769  0.00  0.00    +0.000 A 
ATOM      5  C   UNL     1       6.875   5.610  15.462  0.00  0.00    +0.000 A 
ATOM      6  C   UNL     1       6.940   5.623  16.866  0.00  0.00    +0.000 A 
ENDROOT
BRANCH   6   7
ATOM      7  N   UNL     1       7.781   6.549  17.561  0.00  0.00    +0.000 N 
ATOM      8  C   UNL     1       7.674   7.928  17.662  0.00  0.00    +0.000 C 
ATOM      9  O   UNL     1       6.878   8.659  17.088  0.00  0.00    +0.000 OA
ATOM     10  H   UNL     1       8.672   6.212  17.906  0.00  0.00    +0.000 HD
BRANCH   8  11
ATOM     11  O   UNL     1       8.671   8.420  18.472  0.00  0.00    +0.000 OA
BRANCH  11  12
ATOM     12  C   UNL     1       8.891   9.849  18.445  0.00  0.00    +0.000 C 
BRANCH  12  13
ATOM     13  C   UNL     1       9.458  10.528  19.717  0.00  0.00    +0.000 C 
BRANCH  13  14
ATOM     14  C   UNL     1       9.257  12.058  19.576  0.00  0.00    +0.000 C 
BRANCH  14  15
ATOM     15  C   UNL     1       8.977  12.608  18.163  0.00  0.00    +0.000 C 
BRANCH  15  16
ATOM     16  N   UNL     1      10.046  13.531  17.697  0.00  0.00    +0.000 NA
ATOM     17  C   UNL     1      10.458  14.485  18.731  0.00  0.00    +0.000 C 
ATOM     18  C   UNL     1      11.221  12.787  17.234  0.00  0.00    +0.000 C 
ENDBRANCH  15  16
ENDBRANCH  14  15
ENDBRANCH  13  14
ENDBRANCH  12  13
ENDBRANCH  11  12
ENDBRANCH   8  11
ENDBRANCH   6   7
BRANCH   1  19
ATOM     19  C   UNL     1       5.962   4.608  19.074  0.00  0.00    +0.000 C 
BRANCH  19  26
ATOM     20  N   UNL     1       1.554   6.567  19.623  0.00  0.00    +0.000 N 
ATOM     21  C   UNL     1       2.514   5.579  19.805  0.00  0.00    +0.000 A 
ATOM     22  C   UNL     1       2.000   4.323  20.441  0.00  0.00    +0.000 A 
ATOM     23  C   UNL     1       2.781   3.248  20.539  0.00  0.00    +0.000 A 
ATOM     24  C   UNL     1       4.163   3.292  20.037  0.00  0.00    +0.000 A 
ATOM     25  O   UNL     1       4.861   2.278  20.111  0.00  0.00    +0.000 OA
ATOM     26  N   UNL     1       4.581   4.511  19.539  0.00  0.00    +0.000 N 
ATOM     27  N   UNL     1       3.761   5.647  19.416  0.00  0.00    +0.000 NA
ATOM     28  H   UNL     1       0.644   6.191  19.388  0.00  0.00    +0.000 HD
BRANCH  20  35
ATOM     29  C   UNL     1       0.525   8.640  21.670  0.00  0.00    +0.000 C 
ATOM     30  C   UNL     1       1.136   8.953  20.334  0.00  0.00    +0.000 A 
ATOM     31  C   UNL     1       1.147  10.318  19.947  0.00  0.00    +0.000 A 
ATOM     32  C   UNL     1       1.599  10.727  18.695  0.00  0.00    +0.000 A 
ATOM     33  C   UNL     1       2.043   9.772  17.797  0.00  0.00    +0.000 A 
ATOM     34  C   UNL     1       2.029   8.421  18.161  0.00  0.00    +0.000 A 
ATOM     35  C   UNL     1       1.576   7.970  19.430  0.00  0.00    +0.000 A 
ENDBRANCH  20  35
ENDBRANCH  19  26
ENDBRANCH   1  19
TORSDOF 10
ENDMDL
MODEL 2
REMARK VINA RESULT:      -7.5      2.212      4.232
REMARK  Name = 
REMARK  13 active torsions:
REMARK  status: ('A' for Active; 'I' for Inactive)
REMARK    1  A    between atoms: C_1  and  C_2
REMARK    2  A    between atoms: C_7  and  N_8
REMARK    3  A    between atoms: N_14  and  C_15
REMARK    4  A    between atoms: C_15  and  C_16
REMARK    5  A    between atoms: C_21  and  N_22
REMARK    6  A    between atoms: C_23  and  O_25
REMARK    7  A    between atoms: O_25  and  C_26
REMARK    8  A    between atoms: C_26  and  C_27
REMARK    9  A    between atoms: C_27  and  C_28
REMARK   10  A    between atoms: C_28  and  C_29
REMARK   11  A    between atoms: C_29  and  N_30
REMARK   12  A    between atoms: N_30  and  C_31
REMARK   13  A    between atoms: N_30  and  C_32
REMARK                            x       y       z     vdW  Elec       q    Type
REMARK                         _______ _______ _______ _____ _____    ______ ____
ROOT
ATOM      1  C   UNL     1       3.010   4.426  19.324  0.00  0.00    +0.000 A 
ATOM      2  C   UNL     1       1.654   4.021  19.241  0.00  0.00    +0.000 A 
ATOM      3  C   UNL     1       1.276   2.870  18.564  0.00  0.00    +0.000 A 
ATOM      4  C   UNL     1       2.259   2.090  17.971  0.00  0.00    +0.000 A 
ATOM      5  C   UNL     1       3.617   2.451  18.067  0.00  0.00    +0.000 A 
ATOM      6  C   UNL     1       4.027   3.612  18.744  0.00  0.00    +0.000 A 
ENDROOT
BRANCH   6   7
ATOM      7  N   UNL     1       5.407   3.984  18.809  0.00  0.00    +0.000 N 
ATOM      8  C   UNL     1       6.315   4.174  17.778  0.00  0.00    +0.000 C 
ATOM      9  O   UNL     1       6.144   3.965  16.585  0.00  0.00    +0.000 OA
ATOM     10  H   UNL     1       5.861   3.962  19.715  0.00  0.00    +0.000 HD
BRANCH   8  11
ATOM     11  O   UNL     1       7.527   4.578  18.287  0.00  0.00    +0.000 OA
BRANCH  11  12
ATOM     12  C   UNL     1       7.615   5.941  18.765  0.00  0.00    +0.000 C 
BRANCH  12  13
ATOM     13  C   UNL     1       7.831   7.069  17.726  0.00  0.00    +0.000 C 
BRANCH  13  14
ATOM     14  C   UNL     1       8.443   8.289  18.461  0.00  0.00    +0.000 C 
BRANCH  14  15
ATOM     15  C   UNL     1       8.157   9.685  17.872  0.00  0.00    +0.000 C 
BRANCH  15  16
ATOM     16  N   UNL     1       8.898  10.759  18.585  0.00  0.00    +0.000 NA
ATOM     17  C   UNL     1       9.241  10.390  19.962  0.00  0.00    +0.000 C 
ATOM     18  C   UNL     1      10.123  11.123  17.865  0.00  0.00    +0.000 C 
ENDBRANCH  15  16
ENDBRANCH  14  15
ENDBRANCH  13  14
ENDBRANCH  12  13
ENDBRANCH  11  12
ENDBRANCH   8  11
ENDBRANCH   6   7
BRANCH   1  19
ATOM     19  C   UNL     1       3.225   5.749  20.029  0.00  0.00    +0.000 C 
BRANCH  19  26
ATOM     20  N   UNL     1       0.978  10.045  19.764  0.00  0.00    +0.000 N 
ATOM     21  C   UNL     1       1.639   8.945  19.231  0.00  0.00    +0.000 A 
ATOM     22  C   UNL     1       1.992   9.077  17.779  0.00  0.00    +0.000 A 
ATOM     23  C   UNL     1       2.752   8.157  17.185  0.00  0.00    +0.000 A 
ATOM     24  C   UNL     1       3.238   6.997  17.947  0.00  0.00    +0.000 A 
ATOM     25  O   UNL     1       3.964   6.173  17.386  0.00  0.00    +0.000 OA
ATOM     26  N   UNL     1       2.801   6.913  19.255  0.00  0.00    +0.000 N 
ATOM     27  N   UNL     1       2.012   7.884  19.897  0.00  0.00    +0.000 NA
ATOM     28  H   UNL     1       1.301  10.923  19.378  0.00  0.00    +0.000 HD
BRANCH  20  35
ATOM     29  C   UNL     1      -1.050  12.363  20.012  0.00  0.00    +0.000 C 
ATOM     30  C   UNL     1      -0.796  11.303  21.046  0.00  0.00    +0.000 A 
ATOM     31  C   UNL     1      -1.483  11.444  22.279  0.00  0.00    +0.000 A 
ATOM     32  C   UNL     1      -1.263  10.582  23.351  0.00  0.00    +0.000 A 
ATOM     33  C   UNL     1      -0.339   9.560  23.210  0.00  0.00    +0.000 A 
ATOM     34  C   UNL     1       0.352   9.415  22.003  0.00  0.00    +0.000 A 
ATOM     35  C   UNL     1       0.151  10.276  20.891  0.00  0.00    +0.000 A 
ENDBRANCH  20  35
ENDBRANCH  19  26
ENDBRANCH   1  19
TORSDOF 10
ENDMDL
MODEL 3
REMARK VINA RESULT:      -7.4      4.893      9.479
REMARK  Name = 
REMARK  13 active torsions:
REMARK  status: ('A' for Active; 'I' for Inactive)
REMARK    1  A    between atoms: C_1  and  C_2
REMARK    2  A    between atoms: C_7  and  N_8
REMARK    3  A    between atoms: N_14  and  C_15
REMARK    4  A    between atoms: C_15  and  C_16
REMARK    5  A    between atoms: C_21  and  N_22
REMARK    6  A    between atoms: C_23  and  O_25
REMARK    7  A    between atoms: O_25  and  C_26
REMARK    8  A    between atoms: C_26  and  C_27
REMARK    9  A    between atoms: C_27  and  C_28
REMARK   10  A    between atoms: C_28  and  C_29
REMARK   11  A    between atoms: C_29  and  N_30
REMARK   12  A    between atoms: N_30  and  C_31
REMARK   13  A    between atoms: N_30  and  C_32
REMARK                            x       y       z     vdW  Elec       q    Type
REMARK                         _______ _______ _______ _____ _____    ______ ____
ROOT
ATOM      1  C   UNL     1      -0.610  10.669  18.315  0.00  0.00    +0.000 A 
ATOM      2  C   UNL     1      -1.041   9.776  17.302  0.00  0.00    +0.000 A 
ATOM      3  C   UNL     1      -2.359   9.743  16.870  0.00  0.00    +0.000 A 
ATOM      4  C   UNL     1      -3.271  10.623  17.437  0.00  0.00    +0.000 A 
ATOM      5  C   UNL     1      -2.863  11.544  18.420  0.00  0.00    +0.000 A 
ATOM      6  C   UNL     1      -1.535  11.598  18.878  0.00  0.00    +0.000 A 
ENDROOT
BRANCH   6   7
ATOM      7  N   UNL     1      -1.139  12.518  19.899  0.00  0.00    +0.000 N 
ATOM      8  C   UNL     1      -0.712  13.832  19.780  0.00  0.00    +0.000 C 
ATOM      9  O   UNL     1      -0.490  14.454  18.750  0.00  0.00    +0.000 OA
ATOM     10  H   UNL     1      -0.986  12.152  20.832  0.00  0.00    +0.000 HD
BRANCH   8  11
ATOM     11  O   UNL     1      -0.480  14.366  21.026  0.00  0.00    +0.000 OA
BRANCH  11  12
ATOM     12  C   UNL     1      -0.325  13.432  22.120  0.00  0.00    +0.000 C 
BRANCH  12  13
ATOM     13  C   UNL     1      -1.346  13.489  23.283  0.00  0.00    +0.000 C 
BRANCH  13  14
ATOM     14  C   UNL     1      -2.299  12.275  23.148  0.00  0.00    +0.000 C 
BRANCH  14  15
ATOM     15  C   UNL     1      -3.617  12.317  23.947  0.00  0.00    +0.000 C 
BRANCH  15  16
ATOM     16  N   UNL     1      -4.760  12.793  23.124  0.00  0.00    +0.000 NA
ATOM     17  C   UNL     1      -5.105  14.192  23.393  0.00  0.00    +0.000 C 
ATOM     18  C   UNL     1      -4.483  12.633  21.693  0.00  0.00    +0.000 C 
ENDBRANCH  15  16
ENDBRANCH  14  15
ENDBRANCH  13  14
ENDBRANCH  12  13
ENDBRANCH  11  12
ENDBRANCH   8  11
ENDBRANCH   6   7
BRANCH   1  19
ATOM     19  C   UNL     1       0.841  10.507  18.715  0.00  0.00    +0.000 C 
BRANCH  19  26
ATOM     20  N   UNL     1       3.196   6.292  19.228  0.00  0.00    +0.000 N 
ATOM     21  C   UNL     1       2.261   7.254  19.591  0.00  0.00    +0.000 A 
ATOM     22  C   UNL     1       1.600   7.008  20.914  0.00  0.00    +0.000 A 
ATOM     23  C   UNL     1       0.793   7.927  21.445  0.00  0.00    +0.000 A 
ATOM     24  C   UNL     1       0.532   9.183  20.726  0.00  0.00    +0.000 A 
ATOM     25  O   UNL     1      -0.195  10.032  21.247  0.00  0.00    +0.000 OA
ATOM     26  N   UNL     1       1.116   9.293  19.479  0.00  0.00    +0.000 N 
ATOM     27  N   UNL     1       1.982   8.338  18.916  0.00  0.00    +0.000 NA
ATOM     28  H   UNL     1       3.717   5.932  20.018  0.00  0.00    +0.000 HD
BRANCH  20  35
ATOM     29  C   UNL     1       3.184   3.385  18.181  0.00  0.00    +0.000 C 
ATOM     30  C   UNL     1       3.796   4.567  17.485  0.00  0.00    +0.000 A 
ATOM     31  C   UNL     1       4.512   4.296  16.291  0.00  0.00    +0.000 A 
ATOM     32  C   UNL     1       5.204   5.291  15.603  0.00  0.00    +0.000 A 
ATOM     33  C   UNL     1       5.199   6.581  16.105  0.00  0.00    +0.000 A 
ATOM     34  C   UNL     1       4.504   6.860  17.287  0.00  0.00    +0.000 A 
ATOM     35  C   UNL     1       3.788   5.870  18.012  0.00  0.00    +0.000 A 
ENDBRANCH  20  35
ENDBRANCH  19  26
ENDBRANCH   1  19
TORSDOF 10
ENDMDL
MODEL 4
REMARK VINA RESULT:      -7.3      6.053     10.736
REMARK  Name = 
REMARK  13 active torsions:
REMARK  status: ('A' for Active; 'I' for Inactive)
REMARK    1  A    between atoms: C_1  and  C_2
REMARK    2  A    between atoms: C_7  and  N_8
REMARK    3  A    between atoms: N_14  and  C_15
REMARK    4  A    between atoms: C_15  and  C_16
REMARK    5  A    between atoms: C_21  and  N_22
REMARK    6  A    between atoms: C_23  and  O_25
REMARK    7  A    between atoms: O_25  and  C_26
REMARK    8  A    between atoms: C_26  and  C_27
REMARK    9  A    between atoms: C_27  and  C_28
REMARK   10  A    between atoms: C_28  and  C_29
REMARK   11  A    between atoms: C_29  and  N_30
REMARK   12  A    between atoms: N_30  and  C_31
REMARK   13  A    between atoms: N_30  and  C_32
REMARK                            x       y       z     vdW  Elec       q    Type
REMARK                         _______ _______ _______ _____ _____    ______ ____
ROOT
ATOM      1  C   UNL     1      -1.137  11.061  18.316  0.00  0.00    +0.000 A 
ATOM      2  C   UNL     1      -1.215   9.998  17.381  0.00  0.00    +0.000 A 
ATOM      3  C   UNL     1      -2.411   9.650  16.769  0.00  0.00    +0.000 A 
ATOM      4  C   UNL     1      -3.553  10.378  17.072  0.00  0.00    +0.000 A 
ATOM      5  C   UNL     1      -3.498  11.461  17.970  0.00  0.00    +0.000 A 
ATOM      6  C   UNL     1      -2.301  11.833  18.606  0.00  0.00    +0.000 A 
ENDROOT
BRANCH   6   7
ATOM      7  N   UNL     1      -2.263  12.916  19.540  0.00  0.00    +0.000 N 
ATOM      8  C   UNL     1      -3.265  13.393  20.373  0.00  0.00    +0.000 C 
ATOM      9  O   UNL     1      -4.436  13.040  20.409  0.00  0.00    +0.000 OA
ATOM     10  H   UNL     1      -1.468  13.542  19.507  0.00  0.00    +0.000 HD
BRANCH   8  11
ATOM     11  O   UNL     1      -2.783  14.421  21.148  0.00  0.00    +0.000 OA
BRANCH  11  12
ATOM     12  C   UNL     1      -2.983  14.313  22.577  0.00  0.00    +0.000 C 
BRANCH  12  13
ATOM     13  C   UNL     1      -3.474  12.960  23.148  0.00  0.00    +0.000 C 
BRANCH  13  14
ATOM     14  C   UNL     1      -4.892  13.172  23.736  0.00  0.00    +0.000 C 
BRANCH  14  15
ATOM     15  C   UNL     1      -5.657  14.437  23.299  0.00  0.00    +0.000 C 
BRANCH  15  16
ATOM     16  N   UNL     1      -6.945  14.595  24.024  0.00  0.00    +0.000 NA
ATOM     17  C   UNL     1      -7.815  15.607  23.418  0.00  0.00    +0.000 C 
ATOM     18  C   UNL     1      -7.670  13.321  24.097  0.00  0.00    +0.000 C 
ENDBRANCH  15  16
ENDBRANCH  14  15
ENDBRANCH  13  14
ENDBRANCH  12  13
ENDBRANCH  11  12
ENDBRANCH   8  11
ENDBRANCH   6   7
BRANCH   1  19
ATOM     19  C   UNL     1       0.229  11.242  18.943  0.00  0.00    +0.000 C 
BRANCH  19  26
ATOM     20  N   UNL     1       2.116   7.100  20.632  0.00  0.00    +0.000 N 
ATOM     21  C   UNL     1       1.392   8.281  20.744  0.00  0.00    +0.000 A 
ATOM     22  C   UNL     1       0.979   8.625  22.143  0.00  0.00    +0.000 A 
ATOM     23  C   UNL     1       0.408   9.800  22.407  0.00  0.00    +0.000 A 
ATOM     24  C   UNL     1       0.163  10.761  21.322  0.00  0.00    +0.000 A 
ATOM     25  O   UNL     1      -0.340  11.854  21.592  0.00  0.00    +0.000 OA
ATOM     26  N   UNL     1       0.501  10.333  20.053  0.00  0.00    +0.000 N 
ATOM     27  N   UNL     1       1.119   9.102  19.764  0.00  0.00    +0.000 NA
ATOM     28  H   UNL     1       2.734   6.942  21.417  0.00  0.00    +0.000 HD
BRANCH  20  35
ATOM     29  C   UNL     1       1.032   4.211  20.466  0.00  0.00    +0.000 C 
ATOM     30  C   UNL     1       1.924   4.874  19.456  0.00  0.00    +0.000 A 
ATOM     31  C   UNL     1       2.381   4.062  18.386  0.00  0.00    +0.000 A 
ATOM     32  C   UNL     1       3.286   4.531  17.437  0.00  0.00    +0.000 A 
ATOM     33  C   UNL     1       3.761   5.827  17.546  0.00  0.00    +0.000 A 
ATOM     34  C   UNL     1       3.326   6.635  18.602  0.00  0.00    +0.000 A 
ATOM     35  C   UNL     1       2.404   6.189  19.585  0.00  0.00    +0.000 A 
ENDBRANCH  20  35
ENDBRANCH  19  26
ENDBRANCH   1  19
TORSDOF 10
ENDMDL
MODEL 5
REMARK VINA RESULT:      -7.3      5.083      8.580
REMARK  Name = 
REMARK  13 active torsions:
REMARK  status: ('A' for Active; 'I' for Inactive)
REMARK    1  A    between atoms: C_1  and  C_2
REMARK    2  A    between atoms: C_7  and  N_8
REMARK    3  A    between atoms: N_14  and  C_15
REMARK    4  A    between atoms: C_15  and  C_16
REMARK    5  A    between atoms: C_21  and  N_22
REMARK    6  A    between atoms: C_23  and  O_25
REMARK    7  A    between atoms: O_25  and  C_26
REMARK    8  A    between atoms: C_26  and  C_27
REMARK    9  A    between atoms: C_27  and  C_28
REMARK   10  A    between atoms: C_28  and  C_29
REMARK   11  A    between atoms: C_29  and  N_30
REMARK   12  A    between atoms: N_30  and  C_31
REMARK   13  A    between atoms: N_30  and  C_32
REMARK                            x       y       z     vdW  Elec       q    Type
REMARK                         _______ _______ _______ _____ _____    ______ ____
ROOT
ATOM      1  C   UNL     1      -0.885  10.992  18.254  0.00  0.00    +0.000 A 
ATOM      2  C   UNL     1      -1.351   9.852  17.551  0.00  0.00    +0.000 A 
ATOM      3  C   UNL     1      -2.682   9.715  17.182  0.00  0.00    +0.000 A 
ATOM      4  C   UNL     1      -3.571  10.734  17.497  0.00  0.00    +0.000 A 
ATOM      5  C   UNL     1      -3.129  11.893  18.164  0.00  0.00    +0.000 A 
ATOM      6  C   UNL     1      -1.788  12.056  18.551  0.00  0.00    +0.000 A 
ENDROOT
BRANCH   6   7
ATOM      7  N   UNL     1      -1.357  13.224  19.256  0.00  0.00    +0.000 N 
ATOM      8  C   UNL     1      -1.978  13.904  20.292  0.00  0.00    +0.000 C 
ATOM      9  O   UNL     1      -3.089  13.696  20.762  0.00  0.00    +0.000 OA
ATOM     10  H   UNL     1      -0.577  13.747  18.873  0.00  0.00    +0.000 HD
BRANCH   8  11
ATOM     11  O   UNL     1      -1.188  14.949  20.710  0.00  0.00    +0.000 OA
BRANCH  11  12
ATOM     12  C   UNL     1      -1.396  16.227  20.063  0.00  0.00    +0.000 C 
BRANCH  12  13
ATOM     13  C   UNL     1      -0.646  16.509  18.738  0.00  0.00    +0.000 C 
BRANCH  13  14
ATOM     14  C   UNL     1       0.860  16.221  18.966  0.00  0.00    +0.000 C 
BRANCH  14  15
ATOM     15  C   UNL     1       1.762  17.418  19.325  0.00  0.00    +0.000 C 
BRANCH  15  16
ATOM     16  N   UNL     1       3.101  17.326  18.685  0.00  0.00    +0.000 NA
ATOM     17  C   UNL     1       4.065  16.578  19.498  0.00  0.00    +0.000 C 
ATOM     18  C   UNL     1       3.011  16.708  17.358  0.00  0.00    +0.000 C 
ENDBRANCH  15  16
ENDBRANCH  14  15
ENDBRANCH  13  14
ENDBRANCH  12  13
ENDBRANCH  11  12
ENDBRANCH   8  11
ENDBRANCH   6   7
BRANCH   1  19
ATOM     19  C   UNL     1       0.576  10.931  18.645  0.00  0.00    +0.000 C 
BRANCH  19  26
ATOM     20  N   UNL     1       2.339   6.758  20.391  0.00  0.00    +0.000 N 
ATOM     21  C   UNL     1       1.678   7.976  20.494  0.00  0.00    +0.000 A 
ATOM     22  C   UNL     1       1.345   8.384  21.898  0.00  0.00    +0.000 A 
ATOM     23  C   UNL     1       0.843   9.594  22.146  0.00  0.00    +0.000 A 
ATOM     24  C   UNL     1       0.595  10.531  21.040  0.00  0.00    +0.000 A 
ATOM     25  O   UNL     1       0.156  11.655  21.293  0.00  0.00    +0.000 OA
ATOM     26  N   UNL     1       0.855  10.045  19.772  0.00  0.00    +0.000 N 
ATOM     27  N   UNL     1       1.399   8.777  19.500  0.00  0.00    +0.000 NA
ATOM     28  H   UNL     1       2.984   6.595  21.154  0.00  0.00    +0.000 HD
BRANCH  20  35
ATOM     29  C   UNL     1       0.902   4.026  20.235  0.00  0.00    +0.000 C 
ATOM     30  C   UNL     1       1.896   4.555  19.240  0.00  0.00    +0.000 A 
ATOM     31  C   UNL     1       2.274   3.674  18.194  0.00  0.00    +0.000 A 
ATOM     32  C   UNL     1       3.256   4.009  17.264  0.00  0.00    +0.000 A 
ATOM     33  C   UNL     1       3.888   5.236  17.369  0.00  0.00    +0.000 A 
ATOM     34  C   UNL     1       3.532   6.110  18.402  0.00  0.00    +0.000 A 
ATOM     35  C   UNL     1       2.536   5.801  19.365  0.00  0.00    +0.000 A 
ENDBRANCH  20  35
ENDBRANCH  19  26
ENDBRANCH   1  19
TORSDOF 10
ENDMDL
MODEL 6
REMARK VINA RESULT:      -7.1      4.132      7.496
REMARK  Name = 
REMARK  13 active torsions:
REMARK  status: ('A' for Active; 'I' for Inactive)
REMARK    1  A    between atoms: C_1  and  C_2
REMARK    2  A    between atoms: C_7  and  N_8
REMARK    3  A    between atoms: N_14  and  C_15
REMARK    4  A    between atoms: C_15  and  C_16
REMARK    5  A    between atoms: C_21  and  N_22
REMARK    6  A    between atoms: C_23  and  O_25
REMARK    7  A    between atoms: O_25  and  C_26
REMARK    8  A    between atoms: C_26  and  C_27
REMARK    9  A    between atoms: C_27  and  C_28
REMARK   10  A    between atoms: C_28  and  C_29
REMARK   11  A    between atoms: C_29  and  N_30
REMARK   12  A    between atoms: N_30  and  C_31
REMARK   13  A    between atoms: N_30  and  C_32
REMARK                            x       y       z     vdW  Elec       q    Type
REMARK                         _______ _______ _______ _____ _____    ______ ____
ROOT
ATOM      1  C   UNL     1       1.912   6.747  20.034  0.00  0.00    +0.000 A 
ATOM      2  C   UNL     1       2.525   6.374  18.812  0.00  0.00    +0.000 A 
ATOM      3  C   UNL     1       2.709   7.283  17.779  0.00  0.00    +0.000 A 
ATOM      4  C   UNL     1       2.294   8.595  17.962  0.00  0.00    +0.000 A 
ATOM      5  C   UNL     1       1.713   9.001  19.179  0.00  0.00    +0.000 A 
ATOM      6  C   UNL     1       1.513   8.101  20.240  0.00  0.00    +0.000 A 
ENDROOT
BRANCH   6   7
ATOM      7  N   UNL     1       0.894   8.519  21.460  0.00  0.00    +0.000 N 
ATOM      8  C   UNL     1       1.440   9.213  22.529  0.00  0.00    +0.000 C 
ATOM      9  O   UNL     1       2.610   9.533  22.692  0.00  0.00    +0.000 OA
ATOM     10  H   UNL     1      -0.020   8.141  21.680  0.00  0.00    +0.000 HD
BRANCH   8  11
ATOM     11  O   UNL     1       0.474   9.452  23.478  0.00  0.00    +0.000 OA
BRANCH  11  12
ATOM     12  C   UNL     1      -0.854   9.764  22.996  0.00  0.00    +0.000 C 
BRANCH  12  13
ATOM     13  C   UNL     1      -1.379  11.210  23.177  0.00  0.00    +0.000 C 
BRANCH  13  14
ATOM     14  C   UNL     1      -0.673  12.113  22.134  0.00  0.00    +0.000 C 
BRANCH  14  15
ATOM     15  C   UNL     1      -0.638  11.616  20.675  0.00  0.00    +0.000 C 
BRANCH  15  16
ATOM     16  N   UNL     1      -1.779  12.137  19.877  0.00  0.00    +0.000 NA
ATOM     17  C   UNL     1      -2.186  13.485  20.285  0.00  0.00    +0.000 C 
ATOM     18  C   UNL     1      -1.462  12.145  18.445  0.00  0.00    +0.000 C 
ENDBRANCH  15  16
ENDBRANCH  14  15
ENDBRANCH  13  14
ENDBRANCH  12  13
ENDBRANCH  11  12
ENDBRANCH   8  11
ENDBRANCH   6   7
BRANCH   1  19
ATOM     19  C   UNL     1       1.721   5.606  21.011  0.00  0.00    +0.000 C 
BRANCH  19  26
ATOM     20  N   UNL     1       5.569   3.612  18.824  0.00  0.00    +0.000 N 
ATOM     21  C   UNL     1       4.413   3.579  19.594  0.00  0.00    +0.000 A 
ATOM     22  C   UNL     1       4.137   2.256  20.242  0.00  0.00    +0.000 A 
ATOM     23  C   UNL     1       3.143   2.130  21.121  0.00  0.00    +0.000 A 
ATOM     24  C   UNL     1       2.297   3.288  21.448  0.00  0.00    +0.000 A 
ATOM     25  O   UNL     1       1.400   3.158  22.284  0.00  0.00    +0.000 OA
ATOM     26  N   UNL     1       2.570   4.447  20.747  0.00  0.00    +0.000 N 
ATOM     27  N   UNL     1       3.626   4.595  19.830  0.00  0.00    +0.000 NA
ATOM     28  H   UNL     1       6.316   3.049  19.212  0.00  0.00    +0.000 HD
BRANCH  20  35
ATOM     29  C   UNL     1       7.719   5.806  19.165  0.00  0.00    +0.000 C 
ATOM     30  C   UNL     1       7.046   5.428  17.877  0.00  0.00    +0.000 A 
ATOM     31  C   UNL     1       7.361   6.219  16.742  0.00  0.00    +0.000 A 
ATOM     32  C   UNL     1       6.734   6.031  15.512  0.00  0.00    +0.000 A 
ATOM     33  C   UNL     1       5.768   5.047  15.396  0.00  0.00    +0.000 A 
ATOM     34  C   UNL     1       5.440   4.265  16.510  0.00  0.00    +0.000 A 
ATOM     35  C   UNL     1       6.060   4.430  17.777  0.00  0.00    +0.000 A 
ENDBRANCH  20  35
ENDBRANCH  19  26
ENDBRANCH   1  19
TORSDOF 10
ENDMDL
MODEL 7
REMARK VINA RESULT:      -7.1      5.057      8.623
REMARK  Name = 
REMARK  13 active torsions:
REMARK  status: ('A' for Active; 'I' for Inactive)
REMARK    1  A    between atoms: C_1  and  C_2
REMARK    2  A    between atoms: C_7  and  N_8
REMARK    3  A    between atoms: N_14  and  C_15
REMARK    4  A    between atoms: C_15  and  C_16
REMARK    5  A    between atoms: C_21  and  N_22
REMARK    6  A    between atoms: C_23  and  O_25
REMARK    7  A    between atoms: O_25  and  C_26
REMARK    8  A    between atoms: C_26  and  C_27
REMARK    9  A    between atoms: C_27  and  C_28
REMARK   10  A    between atoms: C_28  and  C_29
REMARK   11  A    between atoms: C_29  and  N_30
REMARK   12  A    between atoms: N_30  and  C_31
REMARK   13  A    between atoms: N_30  and  C_32
REMARK                            x       y       z     vdW  Elec       q    Type
REMARK                         _______ _______ _______ _____ _____    ______ ____
ROOT
ATOM      1  C   UNL     1      -1.210  11.104  18.413  0.00  0.00    +0.000 A 
ATOM      2  C   UNL     1      -1.454   9.929  17.657  0.00  0.00    +0.000 A 
ATOM      3  C   UNL     1      -2.715   9.627  17.163  0.00  0.00    +0.000 A 
ATOM      4  C   UNL     1      -3.757  10.513  17.404  0.00  0.00    +0.000 A 
ATOM      5  C   UNL     1      -3.536  11.704  18.121  0.00  0.00    +0.000 A 
ATOM      6  C   UNL     1      -2.269  12.033  18.635  0.00  0.00    +0.000 A 
ENDROOT
BRANCH   6   7
ATOM      7  N   UNL     1      -2.064  13.231  19.389  0.00  0.00    +0.000 N 
ATOM      8  C   UNL     1      -2.684  13.652  20.556  0.00  0.00    +0.000 C 
ATOM      9  O   UNL     1      -3.620  13.119  21.138  0.00  0.00    +0.000 OA
ATOM     10  H   UNL     1      -1.514  13.969  18.964  0.00  0.00    +0.000 HD
BRANCH   8  11
ATOM     11  O   UNL     1      -2.145  14.848  20.970  0.00  0.00    +0.000 OA
BRANCH  11  12
ATOM     12  C   UNL     1      -0.815  15.165  20.497  0.00  0.00    +0.000 C 
BRANCH  12  13
ATOM     13  C   UNL     1       0.019  16.197  21.295  0.00  0.00    +0.000 C 
BRANCH  13  14
ATOM     14  C   UNL     1       1.373  16.390  20.564  0.00  0.00    +0.000 C 
BRANCH  14  15
ATOM     15  C   UNL     1       2.262  15.143  20.383  0.00  0.00    +0.000 C 
BRANCH  15  16
ATOM     16  N   UNL     1       3.271  15.324  19.306  0.00  0.00    +0.000 NA
ATOM     17  C   UNL     1       3.192  14.282  18.278  0.00  0.00    +0.000 C 
ATOM     18  C   UNL     1       3.136  16.638  18.670  0.00  0.00    +0.000 C 
ENDBRANCH  15  16
ENDBRANCH  14  15
ENDBRANCH  13  14
ENDBRANCH  12  13
ENDBRANCH  11  12
ENDBRANCH   8  11
ENDBRANCH   6   7
BRANCH   1  19
ATOM     19  C   UNL     1       0.205  11.225  18.939  0.00  0.00    +0.000 C 
BRANCH  19  26
ATOM     20  N   UNL     1       2.160   7.093  20.574  0.00  0.00    +0.000 N 
ATOM     21  C   UNL     1       1.432   8.270  20.706  0.00  0.00    +0.000 A 
ATOM     22  C   UNL     1       1.053   8.610  22.116  0.00  0.00    +0.000 A 
ATOM     23  C   UNL     1       0.482   9.781  22.396  0.00  0.00    +0.000 A 
ATOM     24  C   UNL     1       0.203  10.742  21.318  0.00  0.00    +0.000 A 
ATOM     25  O   UNL     1      -0.300  11.832  21.602  0.00  0.00    +0.000 OA
ATOM     26  N   UNL     1       0.511  10.316  20.040  0.00  0.00    +0.000 N 
ATOM     27  N   UNL     1       1.128   9.090  19.735  0.00  0.00    +0.000 NA
ATOM     28  H   UNL     1       2.800   6.938  21.344  0.00  0.00    +0.000 HD
BRANCH  20  35
ATOM     29  C   UNL     1       0.996   4.238  20.376  0.00  0.00    +0.000 C 
ATOM     30  C   UNL     1       1.910   4.886  19.375  0.00  0.00    +0.000 A 
ATOM     31  C   UNL     1       2.348   4.072  18.299  0.00  0.00    +0.000 A 
ATOM     32  C   UNL     1       3.271   4.524  17.359  0.00  0.00    +0.000 A 
ATOM     33  C   UNL     1       3.782   5.805  17.483  0.00  0.00    +0.000 A 
ATOM     34  C   UNL     1       3.365   6.615  18.545  0.00  0.00    +0.000 A 
ATOM     35  C   UNL     1       2.426   6.185  19.520  0.00  0.00    +0.000 A 
ENDBRANCH  20  35
ENDBRANCH  19  26
ENDBRANCH   1  19
TORSDOF 10
ENDMDL
MODEL 8
REMARK VINA RESULT:      -7.1      5.989     10.072
REMARK  Name = 
REMARK  13 active torsions:
REMARK  status: ('A' for Active; 'I' for Inactive)
REMARK    1  A    between atoms: C_1  and  C_2
REMARK    2  A    between atoms: C_7  and  N_8
REMARK    3  A    between atoms: N_14  and  C_15
REMARK    4  A    between atoms: C_15  and  C_16
REMARK    5  A    between atoms: C_21  and  N_22
REMARK    6  A    between atoms: C_23  and  O_25
REMARK    7  A    between atoms: O_25  and  C_26
REMARK    8  A    between atoms: C_26  and  C_27
REMARK    9  A    between atoms: C_27  and  C_28
REMARK   10  A    between atoms: C_28  and  C_29
REMARK   11  A    between atoms: C_29  and  N_30
REMARK   12  A    between atoms: N_30  and  C_31
REMARK   13  A    between atoms: N_30  and  C_32
REMARK                            x       y       z     vdW  Elec       q    Type
REMARK                         _______ _______ _______ _____ _____    ______ ____
ROOT
ATOM      1  C   UNL     1      -1.378  11.066  18.407  0.00  0.00    +0.000 A 
ATOM      2  C   UNL     1      -1.445  10.062  17.408  0.00  0.00    +0.000 A 
ATOM      3  C   UNL     1      -2.652   9.668  16.847  0.00  0.00    +0.000 A 
ATOM      4  C   UNL     1      -3.819  10.292  17.268  0.00  0.00    +0.000 A 
ATOM      5  C   UNL     1      -3.778  11.317  18.233  0.00  0.00    +0.000 A 
ATOM      6  C   UNL     1      -2.570  11.732  18.819  0.00  0.00    +0.000 A 
ENDROOT
BRANCH   6   7
ATOM      7  N   UNL     1      -2.545  12.754  19.821  0.00  0.00    +0.000 N 
ATOM      8  C   UNL     1      -3.489  13.056  20.790  0.00  0.00    +0.000 C 
ATOM      9  O   UNL     1      -4.601  12.563  20.929  0.00  0.00    +0.000 OA
ATOM     10  H   UNL     1      -1.834  13.472  19.746  0.00  0.00    +0.000 HD
BRANCH   8  11
ATOM     11  O   UNL     1      -3.038  14.086  21.582  0.00  0.00    +0.000 OA
BRANCH  11  12
ATOM     12  C   UNL     1      -2.900  13.813  22.996  0.00  0.00    +0.000 C 
BRANCH  12  13
ATOM     13  C   UNL     1      -3.889  14.494  23.974  0.00  0.00    +0.000 C 
BRANCH  13  14
ATOM     14  C   UNL     1      -3.081  15.019  25.188  0.00  0.00    +0.000 C 
BRANCH  14  15
ATOM     15  C   UNL     1      -1.569  15.240  24.989  0.00  0.00    +0.000 C 
BRANCH  15  16
ATOM     16  N   UNL     1      -1.209  16.682  24.962  0.00  0.00    +0.000 NA
ATOM     17  C   UNL     1      -2.259  17.536  25.526  0.00  0.00    +0.000 C 
ATOM     18  C   UNL     1       0.046  16.927  25.680  0.00  0.00    +0.000 C 
ENDBRANCH  15  16
ENDBRANCH  14  15
ENDBRANCH  13  14
ENDBRANCH  12  13
ENDBRANCH  11  12
ENDBRANCH   8  11
ENDBRANCH   6   7
BRANCH   1  19
ATOM     19  C   UNL     1       0.011  11.305  18.960  0.00  0.00    +0.000 C 
BRANCH  19  26
ATOM     20  N   UNL     1       1.758   7.239  20.956  0.00  0.00    +0.000 N 
ATOM     21  C   UNL     1       1.135   8.480  20.990  0.00  0.00    +0.000 A 
ATOM     22  C   UNL     1       0.888   9.012  22.370  0.00  0.00    +0.000 A 
ATOM     23  C   UNL     1       0.430  10.252  22.542  0.00  0.00    +0.000 A 
ATOM     24  C   UNL     1       0.147  11.102  21.376  0.00  0.00    +0.000 A 
ATOM     25  O   UNL     1      -0.249  12.256  21.557  0.00  0.00    +0.000 OA
ATOM     26  N   UNL     1       0.326  10.507  20.142  0.00  0.00    +0.000 N 
ATOM     27  N   UNL     1       0.824   9.205  19.949  0.00  0.00    +0.000 NA
ATOM     28  H   UNL     1       2.439   7.120  21.696  0.00  0.00    +0.000 HD
BRANCH  20  35
ATOM     29  C   UNL     1       3.031   7.547  18.157  0.00  0.00    +0.000 C 
ATOM     30  C   UNL     1       2.460   6.280  18.728  0.00  0.00    +0.000 A 
ATOM     31  C   UNL     1       2.418   5.158  17.861  0.00  0.00    +0.000 A 
ATOM     32  C   UNL     1       1.827   3.954  18.239  0.00  0.00    +0.000 A 
ATOM     33  C   UNL     1       1.256   3.853  19.495  0.00  0.00    +0.000 A 
ATOM     34  C   UNL     1       1.281   4.955  20.357  0.00  0.00    +0.000 A 
ATOM     35  C   UNL     1       1.876   6.196  20.004  0.00  0.00    +0.000 A 
ENDBRANCH  20  35
ENDBRANCH  19  26
ENDBRANCH   1  19
TORSDOF 10
ENDMDL
MODEL 9
REMARK VINA RESULT:      -7.1      0.825      1.588
REMARK  Name = 
REMARK  13 active torsions:
REMARK  status: ('A' for Active; 'I' for Inactive)
REMARK    1  A    between atoms: C_1  and  C_2
REMARK    2  A    between atoms: C_7  and  N_8
REMARK    3  A    between atoms: N_14  and  C_15
REMARK    4  A    between atoms: C_15  and  C_16
REMARK    5  A    between atoms: C_21  and  N_22
REMARK    6  A    between atoms: C_23  and  O_25
REMARK    7  A    between atoms: O_25  and  C_26
REMARK    8  A    between atoms: C_26  and  C_27
REMARK    9  A    between atoms: C_27  and  C_28
REMARK   10  A    between atoms: C_28  and  C_29
REMARK   11  A    between atoms: C_29  and  N_30
REMARK   12  A    between atoms: N_30  and  C_31
REMARK   13  A    between atoms: N_30  and  C_32
REMARK                            x       y       z     vdW  Elec       q    Type
REMARK                         _______ _______ _______ _____ _____    ______ ____
ROOT
ATOM      1  C   UNL     1       5.951   4.958  17.828  0.00  0.00    +0.000 A 
ATOM      2  C   UNL     1       5.110   4.068  17.114  0.00  0.00    +0.000 A 
ATOM      3  C   UNL     1       5.086   4.041  15.727  0.00  0.00    +0.000 A 
ATOM      4  C   UNL     1       5.923   4.899  15.027  0.00  0.00    +0.000 A 
ATOM      5  C   UNL     1       6.794   5.769  15.711  0.00  0.00    +0.000 A 
ATOM      6  C   UNL     1       6.837   5.819  17.115  0.00  0.00    +0.000 A 
ENDROOT
BRANCH   6   7
ATOM      7  N   UNL     1       7.703   6.729  17.799  0.00  0.00    +0.000 N 
ATOM      8  C   UNL     1       7.700   8.116  17.795  0.00  0.00    +0.000 C 
ATOM      9  O   UNL     1       7.001   8.859  17.117  0.00  0.00    +0.000 OA
ATOM     10  H   UNL     1       8.541   6.354  18.227  0.00  0.00    +0.000 HD
BRANCH   8  11
ATOM     11  O   UNL     1       8.679   8.592  18.634  0.00  0.00    +0.000 OA
BRANCH  11  12
ATOM     12  C   UNL     1       8.928  10.017  18.609  0.00  0.00    +0.000 C 
BRANCH  12  13
ATOM     13  C   UNL     1       9.831  10.623  19.712  0.00  0.00    +0.000 C 
BRANCH  13  14
ATOM     14  C   UNL     1      10.691  11.741  19.070  0.00  0.00    +0.000 C 
BRANCH  14  15
ATOM     15  C   UNL     1      10.969  12.996  19.921  0.00  0.00    +0.000 C 
BRANCH  15  16
ATOM     16  N   UNL     1      11.208  14.202  19.084  0.00  0.00    +0.000 NA
ATOM     17  C   UNL     1      10.418  14.198  17.849  0.00  0.00    +0.000 C 
ATOM     18  C   UNL     1      10.924  15.430  19.833  0.00  0.00    +0.000 C 
ENDBRANCH  15  16
ENDBRANCH  14  15
ENDBRANCH  13  14
ENDBRANCH  12  13
ENDBRANCH  11  12
ENDBRANCH   8  11
ENDBRANCH   6   7
BRANCH   1  19
ATOM     19  C   UNL     1       5.783   4.905  19.333  0.00  0.00    +0.000 C 
BRANCH  19  26
ATOM     20  N   UNL     1       1.275   6.494  20.183  0.00  0.00    +0.000 N 
ATOM     21  C   UNL     1       2.290   5.546  20.202  0.00  0.00    +0.000 A 
ATOM     22  C   UNL     1       1.851   4.175  20.620  0.00  0.00    +0.000 A 
ATOM     23  C   UNL     1       2.692   3.144  20.541  0.00  0.00    +0.000 A 
ATOM     24  C   UNL     1       4.066   3.349  20.059  0.00  0.00    +0.000 A 
ATOM     25  O   UNL     1       4.821   2.378  19.966  0.00  0.00    +0.000 OA
ATOM     26  N   UNL     1       4.412   4.655  19.770  0.00  0.00    +0.000 N 
ATOM     27  N   UNL     1       3.528   5.748  19.834  0.00  0.00    +0.000 NA
ATOM     28  H   UNL     1       0.386   6.112  19.885  0.00  0.00    +0.000 HD
BRANCH  20  35
ATOM     29  C   UNL     1       1.957   8.352  17.810  0.00  0.00    +0.000 C 
ATOM     30  C   UNL     1       1.500   8.796  19.170  0.00  0.00    +0.000 A 
ATOM     31  C   UNL     1       1.477  10.195  19.405  0.00  0.00    +0.000 A 
ATOM     32  C   UNL     1       1.163  10.730  20.652  0.00  0.00    +0.000 A 
ATOM     33  C   UNL     1       0.873   9.870  21.697  0.00  0.00    +0.000 A 
ATOM     34  C   UNL     1       0.902   8.487  21.482  0.00  0.00    +0.000 A 
ATOM     35  C   UNL     1       1.217   7.909  20.224  0.00  0.00    +0.000 A 
ENDBRANCH  20  35
ENDBRANCH  19  26
ENDBRANCH   1  19
TORSDOF 10
ENDMDL
