MODEL 1
REMARK VINA RESULT:      -9.2      0.000      0.000
REMARK  Name = 
REMARK  11 active torsions:
REMARK  status: ('A' for Active; 'I' for Inactive)
REMARK    1  A    between atoms: C_1  and  O_2
REMARK    2  A    between atoms: O_2  and  C_3
REMARK    3  A    between atoms: C_3  and  C_5
REMARK    4  A    between atoms: C_5  and  C_6
REMARK    5  A    between atoms: C_5  and  N_16
REMARK    6  A    between atoms: C_6  and  C_7
REMARK    7  A    between atoms: C_17  and  C_19
REMARK    8  A    between atoms: C_20  and  C_21
REMARK    9  A    between atoms: C_24  and  O_25
REMARK   10  A    between atoms: C_26  and  O_27
REMARK   11  A    between atoms: O_27  and  C_28
REMARK                            x       y       z     vdW  Elec       q    Type
REMARK                         _______ _______ _______ _____ _____    ______ ____
ROOT
ATOM      1  C   UNL     1       6.530   5.734  16.493  0.00  0.00    +0.000 C 
ENDROOT
BRANCH   1   2
ATOM      2  N   UNL     1       7.001   7.116  16.659  0.00  0.00    +0.000 N 
ATOM      3  C   UNL     1       7.719   7.463  17.775  0.00  0.00    +0.000 C 
ATOM      4  O   UNL     1       7.989   6.675  18.675  0.00  0.00    +0.000 OA
ATOM      5  H   UNL     1       6.924   7.754  15.878  0.00  0.00    +0.000 HD
BRANCH   3   6
ATOM      6  C   UNL     1       8.122   8.892  17.812  0.00  0.00    +0.000 C 
ATOM      7  C   UNL     1       8.905   9.330  18.815  0.00  0.00    +0.000 C 
BRANCH   7   8
ATOM      8  C   UNL     1       9.302  10.733  19.015  0.00  0.00    +0.000 A 
ATOM      9  C   UNL     1      10.225  11.031  20.024  0.00  0.00    +0.000 A 
ATOM     10  C   UNL     1      10.633  12.348  20.249  0.00  0.00    +0.000 A 
ATOM     11  C   UNL     1      10.136  13.385  19.455  0.00  0.00    +0.000 A 
ATOM     12  C   UNL     1       9.230  13.110  18.426  0.00  0.00    +0.000 A 
ATOM     13  C   UNL     1       8.825  11.781  18.217  0.00  0.00    +0.000 A 
BRANCH  11  14
ATOM     14  O   UNL     1      10.562  14.657  19.716  0.00  0.00    +0.000 OA
ATOM     15  H   UNL     1      10.820  14.723  20.650  0.00  0.00    +0.000 HD
ENDBRANCH  11  14
BRANCH  12  16
ATOM     16  O   UNL     1       8.653  13.987  17.546  0.00  0.00    +0.000 OA
ATOM     17  C   UNL     1       7.416  14.582  17.911  0.00  0.00    +0.000 C 
ENDBRANCH  12  16
ENDBRANCH   7   8
ENDBRANCH   3   6
ENDBRANCH   1   2
BRANCH   1  18
ATOM     18  C   UNL     1       6.836   5.251  15.066  0.00  0.00    +0.000 C 
ATOM     19  O   UNL     1       7.842   5.541  14.428  0.00  0.00    +0.000 OA
BRANCH  18  21
ATOM     20  C   UNL     1       6.105   3.785  13.377  0.00  0.00    +0.000 C 
ATOM     21  O   UNL     1       5.804   4.496  14.583  0.00  0.00    +0.000 OA
ENDBRANCH  18  21
ENDBRANCH   1  18
BRANCH   1  22
ATOM     22  C   UNL     1       5.028   5.582  16.769  0.00  0.00    +0.000 C 
BRANCH  22  23
ATOM     23  C   UNL     1       4.689   4.612  17.871  0.00  0.00    +0.000 A 
ATOM     24  C   UNL     1       5.585   4.027  18.748  0.00  0.00    +0.000 A 
ATOM     25  N   UNL     1       4.906   3.140  19.538  0.00  0.00    +0.000 N 
ATOM     26  C   UNL     1       3.570   3.142  19.216  0.00  0.00    +0.000 A 
ATOM     27  C   UNL     1       2.519   2.384  19.753  0.00  0.00    +0.000 A 
ATOM     28  C   UNL     1       1.238   2.600  19.241  0.00  0.00    +0.000 A 
ATOM     29  C   UNL     1       1.021   3.537  18.235  0.00  0.00    +0.000 A 
ATOM     30  C   UNL     1       2.087   4.275  17.700  0.00  0.00    +0.000 A 
ATOM     31  C   UNL     1       3.395   4.074  18.194  0.00  0.00    +0.000 A 
ATOM     32  H   UNL     1       5.322   2.556  20.252  0.00  0.00    +0.000 HD
ENDBRANCH  22  23
ENDBRANCH   1  22
TORSDOF 9
ENDMDL
MODEL 2
REMARK VINA RESULT:      -9.0      1.472      1.587
REMARK  Name = 
REMARK  11 active torsions:
REMARK  status: ('A' for Active; 'I' for Inactive)
REMARK    1  A    between atoms: C_1  and  O_2
REMARK    2  A    between atoms: O_2  and  C_3
REMARK    3  A    between atoms: C_3  and  C_5
REMARK    4  A    between atoms: C_5  and  C_6
REMARK    5  A    between atoms: C_5  and  N_16
REMARK    6  A    between atoms: C_6  and  C_7
REMARK    7  A    between atoms: C_17  and  C_19
REMARK    8  A    between atoms: C_20  and  C_21
REMARK    9  A    between atoms: C_24  and  O_25
REMARK   10  A    between atoms: C_26  and  O_27
REMARK   11  A    between atoms: O_27  and  C_28
REMARK                            x       y       z     vdW  Elec       q    Type
REMARK                         _______ _______ _______ _____ _____    ______ ____
ROOT
ATOM      1  C   UNL     1       6.231   6.206  17.122  0.00  0.00    +0.000 C 
ENDROOT
BRANCH   1   2
ATOM      2  N   UNL     1       6.828   7.540  16.969  0.00  0.00    +0.000 N 
ATOM      3  C   UNL     1       7.822   7.944  17.822  0.00  0.00    +0.000 C 
ATOM      4  O   UNL     1       8.248   7.250  18.739  0.00  0.00    +0.000 OA
ATOM      5  H   UNL     1       6.607   8.081  16.143  0.00  0.00    +0.000 HD
BRANCH   3   6
ATOM      6  C   UNL     1       8.326   9.315  17.554  0.00  0.00    +0.000 C 
ATOM      7  C   UNL     1       9.022   9.960  18.509  0.00  0.00    +0.000 C 
BRANCH   7   8
ATOM      8  C   UNL     1       9.498  11.348  18.403  0.00  0.00    +0.000 A 
ATOM      9  C   UNL     1      10.827  11.574  18.025  0.00  0.00    +0.000 A 
ATOM     10  C   UNL     1      11.323  12.875  17.908  0.00  0.00    +0.000 A 
ATOM     11  C   UNL     1      10.490  13.971  18.152  0.00  0.00    +0.000 A 
ATOM     12  C   UNL     1       9.152  13.772  18.509  0.00  0.00    +0.000 A 
ATOM     13  C   UNL     1       8.672  12.458  18.628  0.00  0.00    +0.000 A 
BRANCH  11  14
ATOM     14  O   UNL     1      11.022  15.223  18.028  0.00  0.00    +0.000 OA
ATOM     15  H   UNL     1      11.731  15.336  18.681  0.00  0.00    +0.000 HD
ENDBRANCH  11  14
BRANCH  12  16
ATOM     16  O   UNL     1       8.194  14.715  18.770  0.00  0.00    +0.000 OA
ATOM     17  C   UNL     1       7.145  14.879  17.827  0.00  0.00    +0.000 C 
ENDBRANCH  12  16
ENDBRANCH   7   8
ENDBRANCH   3   6
ENDBRANCH   1   2
BRANCH   1  18
ATOM     18  C   UNL     1       6.927   5.216  16.174  0.00  0.00    +0.000 C 
ATOM     19  O   UNL     1       7.758   4.383  16.517  0.00  0.00    +0.000 OA
BRANCH  18  21
ATOM     20  C   UNL     1       6.441   4.240  14.088  0.00  0.00    +0.000 C 
ATOM     21  O   UNL     1       6.530   5.428  14.883  0.00  0.00    +0.000 OA
ENDBRANCH  18  21
ENDBRANCH   1  18
BRANCH   1  22
ATOM     22  C   UNL     1       4.721   6.197  16.846  0.00  0.00    +0.000 C 
BRANCH  22  23
ATOM     23  C   UNL     1       3.985   5.019  17.429  0.00  0.00    +0.000 A 
ATOM     24  C   UNL     1       3.965   3.733  16.917  0.00  0.00    +0.000 A 
ATOM     25  N   UNL     1       3.114   2.975  17.673  0.00  0.00    +0.000 N 
ATOM     26  C   UNL     1       2.584   3.729  18.692  0.00  0.00    +0.000 A 
ATOM     27  C   UNL     1       1.664   3.368  19.687  0.00  0.00    +0.000 A 
ATOM     28  C   UNL     1       1.302   4.342  20.619  0.00  0.00    +0.000 A 
ATOM     29  C   UNL     1       1.843   5.624  20.556  0.00  0.00    +0.000 A 
ATOM     30  C   UNL     1       2.750   5.971  19.545  0.00  0.00    +0.000 A 
ATOM     31  C   UNL     1       3.131   5.007  18.585  0.00  0.00    +0.000 A 
ATOM     32  H   UNL     1       2.893   2.002  17.506  0.00  0.00    +0.000 HD
ENDBRANCH  22  23
ENDBRANCH   1  22
TORSDOF 9
ENDMDL
MODEL 3
REMARK VINA RESULT:      -8.9      1.554      1.863
REMARK  Name = 
REMARK  11 active torsions:
REMARK  status: ('A' for Active; 'I' for Inactive)
REMARK    1  A    between atoms: C_1  and  O_2
REMARK    2  A    between atoms: O_2  and  C_3
REMARK    3  A    between atoms: C_3  and  C_5
REMARK    4  A    between atoms: C_5  and  C_6
REMARK    5  A    between atoms: C_5  and  N_16
REMARK    6  A    between atoms: C_6  and  C_7
REMARK    7  A    between atoms: C_17  and  C_19
REMARK    8  A    between atoms: C_20  and  C_21
REMARK    9  A    between atoms: C_24  and  O_25
REMARK   10  A    between atoms: C_26  and  O_27
REMARK   11  A    between atoms: O_27  and  C_28
REMARK                            x       y       z     vdW  Elec       q    Type
REMARK                         _______ _______ _______ _____ _____    ______ ____
ROOT
ATOM      1  C   UNL     1       5.811   6.309  16.960  0.00  0.00    +0.000 C 
ENDROOT
BRANCH   1   2
ATOM      2  N   UNL     1       6.593   7.552  17.035  0.00  0.00    +0.000 N 
ATOM      3  C   UNL     1       7.682   7.623  17.864  0.00  0.00    +0.000 C 
ATOM      4  O   UNL     1       8.049   6.696  18.578  0.00  0.00    +0.000 OA
ATOM      5  H   UNL     1       6.410   8.283  16.360  0.00  0.00    +0.000 HD
BRANCH   3   6
ATOM      6  C   UNL     1       8.370   8.938  17.842  0.00  0.00    +0.000 C 
ATOM      7  C   UNL     1       8.898   9.425  18.981  0.00  0.00    +0.000 C 
BRANCH   7   8
ATOM      8  C   UNL     1       9.526  10.750  19.112  0.00  0.00    +0.000 A 
ATOM      9  C   UNL     1      10.105  11.333  17.979  0.00  0.00    +0.000 A 
ATOM     10  C   UNL     1      10.709  12.590  18.055  0.00  0.00    +0.000 A 
ATOM     11  C   UNL     1      10.728  13.290  19.264  0.00  0.00    +0.000 A 
ATOM     12  C   UNL     1      10.136  12.740  20.406  0.00  0.00    +0.000 A 
ATOM     13  C   UNL     1       9.538  11.472  20.313  0.00  0.00    +0.000 A 
BRANCH  11  14
ATOM     14  O   UNL     1      11.334  14.515  19.289  0.00  0.00    +0.000 OA
ATOM     15  H   UNL     1      10.810  15.121  19.836  0.00  0.00    +0.000 HD
ENDBRANCH  11  14
BRANCH  12  16
ATOM     16  O   UNL     1      10.046  13.281  21.660  0.00  0.00    +0.000 OA
ATOM     17  C   UNL     1       8.947  14.134  21.942  0.00  0.00    +0.000 C 
ENDBRANCH  12  16
ENDBRANCH   7   8
ENDBRANCH   3   6
ENDBRANCH   1   2
BRANCH   1  18
ATOM     18  C   UNL     1       5.312   6.097  15.521  0.00  0.00    +0.000 C 
ATOM     19  O   UNL     1       5.041   6.997  14.733  0.00  0.00    +0.000 OA
BRANCH  18  21
ATOM     20  C   UNL     1       6.376   4.009  15.308  0.00  0.00    +0.000 C 
ATOM     21  O   UNL     1       5.161   4.764  15.257  0.00  0.00    +0.000 OA
ENDBRANCH  18  21
ENDBRANCH   1  18
BRANCH   1  22
ATOM     22  C   UNL     1       4.611   6.305  17.918  0.00  0.00    +0.000 C 
BRANCH  22  23
ATOM     23  C   UNL     1       4.488   5.062  18.761  0.00  0.00    +0.000 A 
ATOM     24  C   UNL     1       5.452   4.082  18.916  0.00  0.00    +0.000 A 
ATOM     25  N   UNL     1       4.931   3.074  19.681  0.00  0.00    +0.000 N 
ATOM     26  C   UNL     1       3.644   3.378  20.055  0.00  0.00    +0.000 A 
ATOM     27  C   UNL     1       2.734   2.634  20.820  0.00  0.00    +0.000 A 
ATOM     28  C   UNL     1       1.479   3.196  21.063  0.00  0.00    +0.000 A 
ATOM     29  C   UNL     1       1.152   4.452  20.561  0.00  0.00    +0.000 A 
ATOM     30  C   UNL     1       2.069   5.176  19.785  0.00  0.00    +0.000 A 
ATOM     31  C   UNL     1       3.345   4.631  19.519  0.00  0.00    +0.000 A 
ATOM     32  H   UNL     1       5.412   2.221  19.931  0.00  0.00    +0.000 HD
ENDBRANCH  22  23
ENDBRANCH   1  22
TORSDOF 9
ENDMDL
MODEL 4
REMARK VINA RESULT:      -8.9      1.325      1.946
REMARK  Name = 
REMARK  11 active torsions:
REMARK  status: ('A' for Active; 'I' for Inactive)
REMARK    1  A    between atoms: C_1  and  O_2
REMARK    2  A    between atoms: O_2  and  C_3
REMARK    3  A    between atoms: C_3  and  C_5
REMARK    4  A    between atoms: C_5  and  C_6
REMARK    5  A    between atoms: C_5  and  N_16
REMARK    6  A    between atoms: C_6  and  C_7
REMARK    7  A    between atoms: C_17  and  C_19
REMARK    8  A    between atoms: C_20  and  C_21
REMARK    9  A    between atoms: C_24  and  O_25
REMARK   10  A    between atoms: C_26  and  O_27
REMARK   11  A    between atoms: O_27  and  C_28
REMARK                            x       y       z     vdW  Elec       q    Type
REMARK                         _______ _______ _______ _____ _____    ______ ____
ROOT
ATOM      1  C   UNL     1       6.259   5.453  16.391  0.00  0.00    +0.000 C 
ENDROOT
BRANCH   1   2
ATOM      2  N   UNL     1       6.817   6.802  16.561  0.00  0.00    +0.000 N 
ATOM      3  C   UNL     1       7.587   7.089  17.659  0.00  0.00    +0.000 C 
ATOM      4  O   UNL     1       7.836   6.272  18.540  0.00  0.00    +0.000 OA
ATOM      5  H   UNL     1       6.755   7.456  15.791  0.00  0.00    +0.000 HD
BRANCH   3   6
ATOM      6  C   UNL     1       8.076   8.490  17.703  0.00  0.00    +0.000 C 
ATOM      7  C   UNL     1       8.788   8.906  18.766  0.00  0.00    +0.000 C 
BRANCH   7   8
ATOM      8  C   UNL     1       9.254  10.287  18.972  0.00  0.00    +0.000 A 
ATOM      9  C   UNL     1       9.624  11.044  17.854  0.00  0.00    +0.000 A 
ATOM     10  C   UNL     1      10.069  12.360  18.000  0.00  0.00    +0.000 A 
ATOM     11  C   UNL     1      10.134  12.944  19.268  0.00  0.00    +0.000 A 
ATOM     12  C   UNL     1       9.749  12.217  20.399  0.00  0.00    +0.000 A 
ATOM     13  C   UNL     1       9.309  10.893  20.234  0.00  0.00    +0.000 A 
BRANCH  11  14
ATOM     14  O   UNL     1      10.580  14.233  19.360  0.00  0.00    +0.000 OA
ATOM     15  H   UNL     1      11.446  14.242  19.796  0.00  0.00    +0.000 HD
ENDBRANCH  11  14
BRANCH  12  16
ATOM     16  O   UNL     1       9.732  12.625  21.706  0.00  0.00    +0.000 OA
ATOM     17  C   UNL     1       8.674  12.167  22.535  0.00  0.00    +0.000 C 
ENDBRANCH  12  16
ENDBRANCH   7   8
ENDBRANCH   3   6
ENDBRANCH   1   2
BRANCH   1  18
ATOM     18  C   UNL     1       6.775   4.842  15.078  0.00  0.00    +0.000 C 
ATOM     19  O   UNL     1       6.409   3.768  14.613  0.00  0.00    +0.000 OA
BRANCH  18  21
ATOM     20  C   UNL     1       8.061   5.321  13.167  0.00  0.00    +0.000 C 
ATOM     21  O   UNL     1       7.742   5.636  14.526  0.00  0.00    +0.000 OA
ENDBRANCH  18  21
ENDBRANCH   1  18
BRANCH   1  22
ATOM     22  C   UNL     1       4.724   5.442  16.386  0.00  0.00    +0.000 C 
BRANCH  22  23
ATOM     23  C   UNL     1       4.095   5.271  17.744  0.00  0.00    +0.000 A 
ATOM     24  C   UNL     1       4.336   6.053  18.860  0.00  0.00    +0.000 A 
ATOM     25  N   UNL     1       3.648   5.526  19.919  0.00  0.00    +0.000 N 
ATOM     26  C   UNL     1       2.937   4.420  19.521  0.00  0.00    +0.000 A 
ATOM     27  C   UNL     1       2.114   3.567  20.271  0.00  0.00    +0.000 A 
ATOM     28  C   UNL     1       1.493   2.511  19.600  0.00  0.00    +0.000 A 
ATOM     29  C   UNL     1       1.687   2.321  18.235  0.00  0.00    +0.000 A 
ATOM     30  C   UNL     1       2.526   3.175  17.504  0.00  0.00    +0.000 A 
ATOM     31  C   UNL     1       3.172   4.249  18.157  0.00  0.00    +0.000 A 
ATOM     32  H   UNL     1       3.664   5.886  20.864  0.00  0.00    +0.000 HD
ENDBRANCH  22  23
ENDBRANCH   1  22
TORSDOF 9
ENDMDL
MODEL 5
REMARK VINA RESULT:      -8.8      1.379      1.517
REMARK  Name = 
REMARK  11 active torsions:
REMARK  status: ('A' for Active; 'I' for Inactive)
REMARK    1  A    between atoms: C_1  and  O_2
REMARK    2  A    between atoms: O_2  and  C_3
REMARK    3  A    between atoms: C_3  and  C_5
REMARK    4  A    between atoms: C_5  and  C_6
REMARK    5  A    between atoms: C_5  and  N_16
REMARK    6  A    between atoms: C_6  and  C_7
REMARK    7  A    between atoms: C_17  and  C_19
REMARK    8  A    between atoms: C_20  and  C_21
REMARK    9  A    between atoms: C_24  and  O_25
REMARK   10  A    between atoms: C_26  and  O_27
REMARK   11  A    between atoms: O_27  and  C_28
REMARK                            x       y       z     vdW  Elec       q    Type
REMARK                         _______ _______ _______ _____ _____    ______ ____
ROOT
ATOM      1  C   UNL     1       6.180   6.232  17.044  0.00  0.00    +0.000 C 
ENDROOT
BRANCH   1   2
ATOM      2  N   UNL     1       6.810   7.559  17.075  0.00  0.00    +0.000 N 
ATOM      3  C   UNL     1       7.816   7.816  17.971  0.00  0.00    +0.000 C 
ATOM      4  O   UNL     1       8.227   6.990  18.779  0.00  0.00    +0.000 OA
ATOM      5  H   UNL     1       6.601   8.215  16.334  0.00  0.00    +0.000 HD
BRANCH   3   6
ATOM      6  C   UNL     1       8.354   9.198  17.893  0.00  0.00    +0.000 C 
ATOM      7  C   UNL     1       9.086   9.678  18.915  0.00  0.00    +0.000 C 
BRANCH   7   8
ATOM      8  C   UNL     1       9.600  11.055  19.001  0.00  0.00    +0.000 A 
ATOM      9  C   UNL     1      10.985  11.251  19.061  0.00  0.00    +0.000 A 
ATOM     10  C   UNL     1      11.519  12.539  19.140  0.00  0.00    +0.000 A 
ATOM     11  C   UNL     1      10.674  13.653  19.144  0.00  0.00    +0.000 A 
ATOM     12  C   UNL     1       9.288  13.485  19.063  0.00  0.00    +0.000 A 
ATOM     13  C   UNL     1       8.768  12.182  18.989  0.00  0.00    +0.000 A 
BRANCH  11  14
ATOM     14  O   UNL     1      11.244  14.892  19.227  0.00  0.00    +0.000 OA
ATOM     15  H   UNL     1      10.567  15.567  19.063  0.00  0.00    +0.000 HD
ENDBRANCH  11  14
BRANCH  12  16
ATOM     16  O   UNL     1       8.316  14.449  19.040  0.00  0.00    +0.000 OA
ATOM     17  C   UNL     1       8.151  15.202  17.847  0.00  0.00    +0.000 C 
ENDBRANCH  12  16
ENDBRANCH   7   8
ENDBRANCH   3   6
ENDBRANCH   1   2
BRANCH   1  18
ATOM     18  C   UNL     1       6.997   5.292  16.143  0.00  0.00    +0.000 C 
ATOM     19  O   UNL     1       7.858   4.515  16.538  0.00  0.00    +0.000 OA
BRANCH  18  21
ATOM     20  C   UNL     1       6.386   4.275  14.111  0.00  0.00    +0.000 C 
ATOM     21  O   UNL     1       6.668   5.481  14.829  0.00  0.00    +0.000 OA
ENDBRANCH  18  21
ENDBRANCH   1  18
BRANCH   1  22
ATOM     22  C   UNL     1       4.728   6.276  16.547  0.00  0.00    +0.000 C 
BRANCH  22  23
ATOM     23  C   UNL     1       3.698   5.932  17.591  0.00  0.00    +0.000 A 
ATOM     24  C   UNL     1       3.199   6.786  18.558  0.00  0.00    +0.000 A 
ATOM     25  N   UNL     1       2.355   6.080  19.372  0.00  0.00    +0.000 N 
ATOM     26  C   UNL     1       2.269   4.775  18.949  0.00  0.00    +0.000 A 
ATOM     27  C   UNL     1       1.542   3.705  19.490  0.00  0.00    +0.000 A 
ATOM     28  C   UNL     1       1.626   2.471  18.841  0.00  0.00    +0.000 A 
ATOM     29  C   UNL     1       2.405   2.319  17.698  0.00  0.00    +0.000 A 
ATOM     30  C   UNL     1       3.138   3.397  17.180  0.00  0.00    +0.000 A 
ATOM     31  C   UNL     1       3.076   4.656  17.818  0.00  0.00    +0.000 A 
ATOM     32  H   UNL     1       1.870   6.453  20.177  0.00  0.00    +0.000 HD
ENDBRANCH  22  23
ENDBRANCH   1  22
TORSDOF 9
ENDMDL
MODEL 6
REMARK VINA RESULT:      -8.7      1.645      2.238
REMARK  Name = 
REMARK  11 active torsions:
REMARK  status: ('A' for Active; 'I' for Inactive)
REMARK    1  A    between atoms: C_1  and  O_2
REMARK    2  A    between atoms: O_2  and  C_3
REMARK    3  A    between atoms: C_3  and  C_5
REMARK    4  A    between atoms: C_5  and  C_6
REMARK    5  A    between atoms: C_5  and  N_16
REMARK    6  A    between atoms: C_6  and  C_7
REMARK    7  A    between atoms: C_17  and  C_19
REMARK    8  A    between atoms: C_20  and  C_21
REMARK    9  A    between atoms: C_24  and  O_25
REMARK   10  A    between atoms: C_26  and  O_27
REMARK   11  A    between atoms: O_27  and  C_28
REMARK                            x       y       z     vdW  Elec       q    Type
REMARK                         _______ _______ _______ _____ _____    ______ ____
ROOT
ATOM      1  C   UNL     1       6.381   5.259  15.960  0.00  0.00    +0.000 C 
ENDROOT
BRANCH   1   2
ATOM      2  N   UNL     1       6.806   6.640  16.228  0.00  0.00    +0.000 N 
ATOM      3  C   UNL     1       7.447   6.941  17.401  0.00  0.00    +0.000 C 
ATOM      4  O   UNL     1       7.685   6.111  18.273  0.00  0.00    +0.000 OA
ATOM      5  H   UNL     1       6.757   7.318  15.479  0.00  0.00    +0.000 HD
BRANCH   3   6
ATOM      6  C   UNL     1       7.811   8.374  17.539  0.00  0.00    +0.000 C 
ATOM      7  C   UNL     1       8.568   8.765  18.581  0.00  0.00    +0.000 C 
BRANCH   7   8
ATOM      8  C   UNL     1       8.923  10.161  18.880  0.00  0.00    +0.000 A 
ATOM      9  C   UNL     1       8.882  11.100  17.842  0.00  0.00    +0.000 A 
ATOM     10  C   UNL     1       9.207  12.438  18.079  0.00  0.00    +0.000 A 
ATOM     11  C   UNL     1       9.563  12.860  19.363  0.00  0.00    +0.000 A 
ATOM     12  C   UNL     1       9.590  11.946  20.422  0.00  0.00    +0.000 A 
ATOM     13  C   UNL     1       9.266  10.603  20.164  0.00  0.00    +0.000 A 
BRANCH  11  14
ATOM     14  O   UNL     1       9.877  14.178  19.544  0.00  0.00    +0.000 OA
ATOM     15  H   UNL     1      10.829  14.302  19.405  0.00  0.00    +0.000 HD
ENDBRANCH  11  14
BRANCH  12  16
ATOM     16  O   UNL     1       9.897  12.177  21.736  0.00  0.00    +0.000 OA
ATOM     17  C   UNL     1       8.826  12.319  22.657  0.00  0.00    +0.000 C 
ENDBRANCH  12  16
ENDBRANCH   7   8
ENDBRANCH   3   6
ENDBRANCH   1   2
BRANCH   1  18
ATOM     18  C   UNL     1       6.845   4.838  14.555  0.00  0.00    +0.000 C 
ATOM     19  O   UNL     1       7.851   5.259  13.994  0.00  0.00    +0.000 OA
BRANCH  18  21
ATOM     20  C   UNL     1       6.308   3.516  12.685  0.00  0.00    +0.000 C 
ATOM     21  O   UNL     1       5.950   3.970  13.994  0.00  0.00    +0.000 OA
ENDBRANCH  18  21
ENDBRANCH   1  18
BRANCH   1  22
ATOM     22  C   UNL     1       4.862   5.073  16.069  0.00  0.00    +0.000 C 
BRANCH  22  23
ATOM     23  C   UNL     1       4.368   4.746  17.454  0.00  0.00    +0.000 A 
ATOM     24  C   UNL     1       4.554   3.550  18.125  0.00  0.00    +0.000 A 
ATOM     25  N   UNL     1       3.880   3.608  19.315  0.00  0.00    +0.000 N 
ATOM     26  C   UNL     1       3.268   4.831  19.456  0.00  0.00    +0.000 A 
ATOM     27  C   UNL     1       2.468   5.316  20.500  0.00  0.00    +0.000 A 
ATOM     28  C   UNL     1       1.979   6.620  20.389  0.00  0.00    +0.000 A 
ATOM     29  C   UNL     1       2.283   7.403  19.279  0.00  0.00    +0.000 A 
ATOM     30  C   UNL     1       3.074   6.895  18.238  0.00  0.00    +0.000 A 
ATOM     31  C   UNL     1       3.578   5.579  18.319  0.00  0.00    +0.000 A 
ATOM     32  H   UNL     1       3.827   2.861  19.994  0.00  0.00    +0.000 HD
ENDBRANCH  22  23
ENDBRANCH   1  22
TORSDOF 9
ENDMDL
MODEL 7
REMARK VINA RESULT:      -8.7      1.617      2.030
REMARK  Name = 
REMARK  11 active torsions:
REMARK  status: ('A' for Active; 'I' for Inactive)
REMARK    1  A    between atoms: C_1  and  O_2
REMARK    2  A    between atoms: O_2  and  C_3
REMARK    3  A    between atoms: C_3  and  C_5
REMARK    4  A    between atoms: C_5  and  C_6
REMARK    5  A    between atoms: C_5  and  N_16
REMARK    6  A    between atoms: C_6  and  C_7
REMARK    7  A    between atoms: C_17  and  C_19
REMARK    8  A    between atoms: C_20  and  C_21
REMARK    9  A    between atoms: C_24  and  O_25
REMARK   10  A    between atoms: C_26  and  O_27
REMARK   11  A    between atoms: O_27  and  C_28
REMARK                            x       y       z     vdW  Elec       q    Type
REMARK                         _______ _______ _______ _____ _____    ______ ____
ROOT
ATOM      1  C   UNL     1       5.903   6.317  17.248  0.00  0.00    +0.000 C 
ENDROOT
BRANCH   1   2
ATOM      2  N   UNL     1       6.684   7.561  17.206  0.00  0.00    +0.000 N 
ATOM      3  C   UNL     1       7.793   7.697  18.001  0.00  0.00    +0.000 C 
ATOM      4  O   UNL     1       8.178   6.829  18.777  0.00  0.00    +0.000 OA
ATOM      5  H   UNL     1       6.485   8.237  16.481  0.00  0.00    +0.000 HD
BRANCH   3   6
ATOM      6  C   UNL     1       8.479   9.006  17.860  0.00  0.00    +0.000 C 
ATOM      7  C   UNL     1       8.906   9.650  18.962  0.00  0.00    +0.000 C 
BRANCH   7   8
ATOM      8  C   UNL     1       9.518  10.988  18.965  0.00  0.00    +0.000 A 
ATOM      9  C   UNL     1      10.187  11.422  17.815  0.00  0.00    +0.000 A 
ATOM     10  C   UNL     1      10.780  12.686  17.770  0.00  0.00    +0.000 A 
ATOM     11  C   UNL     1      10.699  13.541  18.872  0.00  0.00    +0.000 A 
ATOM     12  C   UNL     1      10.017  13.140  20.026  0.00  0.00    +0.000 A 
ATOM     13  C   UNL     1       9.431  11.864  20.055  0.00  0.00    +0.000 A 
BRANCH  11  14
ATOM     14  O   UNL     1      11.299  14.766  18.782  0.00  0.00    +0.000 OA
ATOM     15  H   UNL     1      10.914  15.361  19.444  0.00  0.00    +0.000 HD
ENDBRANCH  11  14
BRANCH  12  16
ATOM     16  O   UNL     1       9.824  13.842  21.186  0.00  0.00    +0.000 OA
ATOM     17  C   UNL     1       9.177  13.184  22.264  0.00  0.00    +0.000 C 
ENDBRANCH  12  16
ENDBRANCH   7   8
ENDBRANCH   3   6
ENDBRANCH   1   2
BRANCH   1  18
ATOM     18  C   UNL     1       6.524   5.283  16.294  0.00  0.00    +0.000 C 
ATOM     19  O   UNL     1       7.261   4.366  16.637  0.00  0.00    +0.000 OA
BRANCH  18  21
ATOM     20  C   UNL     1       6.001   4.404  14.175  0.00  0.00    +0.000 C 
ATOM     21  O   UNL     1       6.183   5.560  14.999  0.00  0.00    +0.000 OA
ENDBRANCH  18  21
ENDBRANCH   1  18
BRANCH   1  22
ATOM     22  C   UNL     1       4.429   6.529  16.876  0.00  0.00    +0.000 C 
BRANCH  22  23
ATOM     23  C   UNL     1       3.445   5.991  17.882  0.00  0.00    +0.000 A 
ATOM     24  C   UNL     1       2.894   6.692  18.941  0.00  0.00    +0.000 A 
ATOM     25  N   UNL     1       2.122   5.836  19.677  0.00  0.00    +0.000 N 
ATOM     26  C   UNL     1       2.133   4.582  19.113  0.00  0.00    +0.000 A 
ATOM     27  C   UNL     1       1.500   3.405  19.538  0.00  0.00    +0.000 A 
ATOM     28  C   UNL     1       1.672   2.260  18.757  0.00  0.00    +0.000 A 
ATOM     29  C   UNL     1       2.444   2.296  17.599  0.00  0.00    +0.000 A 
ATOM     30  C   UNL     1       3.081   3.479  17.199  0.00  0.00    +0.000 A 
ATOM     31  C   UNL     1       2.930   4.652  17.971  0.00  0.00    +0.000 A 
ATOM     32  H   UNL     1       1.621   6.079  20.521  0.00  0.00    +0.000 HD
ENDBRANCH  22  23
ENDBRANCH   1  22
TORSDOF 9
ENDMDL
MODEL 8
REMARK VINA RESULT:      -8.4      2.365      2.691
REMARK  Name = 
REMARK  11 active torsions:
REMARK  status: ('A' for Active; 'I' for Inactive)
REMARK    1  A    between atoms: C_1  and  O_2
REMARK    2  A    between atoms: O_2  and  C_3
REMARK    3  A    between atoms: C_3  and  C_5
REMARK    4  A    between atoms: C_5  and  C_6
REMARK    5  A    between atoms: C_5  and  N_16
REMARK    6  A    between atoms: C_6  and  C_7
REMARK    7  A    between atoms: C_17  and  C_19
REMARK    8  A    between atoms: C_20  and  C_21
REMARK    9  A    between atoms: C_24  and  O_25
REMARK   10  A    between atoms: C_26  and  O_27
REMARK   11  A    between atoms: O_27  and  C_28
REMARK                            x       y       z     vdW  Elec       q    Type
REMARK                         _______ _______ _______ _____ _____    ______ ____
ROOT
ATOM      1  C   UNL     1       6.119   6.267  17.083  0.00  0.00    +0.000 C 
ENDROOT
BRANCH   1   2
ATOM      2  N   UNL     1       6.735   7.600  17.030  0.00  0.00    +0.000 N 
ATOM      3  C   UNL     1       7.783   7.901  17.861  0.00  0.00    +0.000 C 
ATOM      4  O   UNL     1       8.245   7.111  18.678  0.00  0.00    +0.000 OA
ATOM      5  H   UNL     1       6.479   8.225  16.277  0.00  0.00    +0.000 HD
BRANCH   3   6
ATOM      6  C   UNL     1       8.299   9.284  17.704  0.00  0.00    +0.000 C 
ATOM      7  C   UNL     1       9.014   9.839  18.700  0.00  0.00    +0.000 C 
BRANCH   7   8
ATOM      8  C   UNL     1       9.505  11.226  18.706  0.00  0.00    +0.000 A 
ATOM      9  C   UNL     1      10.887  11.448  18.682  0.00  0.00    +0.000 A 
ATOM     10  C   UNL     1      11.400  12.747  18.683  0.00  0.00    +0.000 A 
ATOM     11  C   UNL     1      10.535  13.845  18.691  0.00  0.00    +0.000 A 
ATOM     12  C   UNL     1       9.150  13.651  18.692  0.00  0.00    +0.000 A 
ATOM     13  C   UNL     1       8.652  12.337  18.697  0.00  0.00    +0.000 A 
BRANCH  11  14
ATOM     14  O   UNL     1      11.085  15.097  18.695  0.00  0.00    +0.000 OA
ATOM     15  H   UNL     1      11.670  15.192  17.927  0.00  0.00    +0.000 HD
ENDBRANCH  11  14
BRANCH  12  16
ATOM     16  O   UNL     1       8.160  14.596  18.685  0.00  0.00    +0.000 OA
ATOM     17  C   UNL     1       7.133  14.481  17.711  0.00  0.00    +0.000 C 
ENDBRANCH  12  16
ENDBRANCH   7   8
ENDBRANCH   3   6
ENDBRANCH   1   2
BRANCH   1  18
ATOM     18  C   UNL     1       6.740   5.367  16.001  0.00  0.00    +0.000 C 
ATOM     19  O   UNL     1       7.720   5.659  15.325  0.00  0.00    +0.000 OA
BRANCH  18  21
ATOM     20  C   UNL     1       5.979   3.702  14.524  0.00  0.00    +0.000 C 
ATOM     21  O   UNL     1       6.014   4.218  15.858  0.00  0.00    +0.000 OA
ENDBRANCH  18  21
ENDBRANCH   1  18
BRANCH   1  22
ATOM     22  C   UNL     1       4.596   6.308  16.895  0.00  0.00    +0.000 C 
BRANCH  22  23
ATOM     23  C   UNL     1       3.814   6.508  18.167  0.00  0.00    +0.000 A 
ATOM     24  C   UNL     1       3.811   5.665  19.265  0.00  0.00    +0.000 A 
ATOM     25  N   UNL     1       2.907   6.139  20.177  0.00  0.00    +0.000 N 
ATOM     26  C   UNL     1       2.326   7.295  19.713  0.00  0.00    +0.000 A 
ATOM     27  C   UNL     1       1.344   8.102  20.305  0.00  0.00    +0.000 A 
ATOM     28  C   UNL     1       0.938   9.243  19.610  0.00  0.00    +0.000 A 
ATOM     29  C   UNL     1       1.495   9.561  18.375  0.00  0.00    +0.000 A 
ATOM     30  C   UNL     1       2.465   8.733  17.791  0.00  0.00    +0.000 A 
ATOM     31  C   UNL     1       2.892   7.569  18.469  0.00  0.00    +0.000 A 
ATOM     32  H   UNL     1       2.686   5.702  21.062  0.00  0.00    +0.000 HD
ENDBRANCH  22  23
ENDBRANCH   1  22
TORSDOF 9
ENDMDL
MODEL 9
REMARK VINA RESULT:      -8.4      1.276      1.437
REMARK  Name = 
REMARK  11 active torsions:
REMARK  status: ('A' for Active; 'I' for Inactive)
REMARK    1  A    between atoms: C_1  and  O_2
REMARK    2  A    between atoms: O_2  and  C_3
REMARK    3  A    between atoms: C_3  and  C_5
REMARK    4  A    between atoms: C_5  and  C_6
REMARK    5  A    between atoms: C_5  and  N_16
REMARK    6  A    between atoms: C_6  and  C_7
REMARK    7  A    between atoms: C_17  and  C_19
REMARK    8  A    between atoms: C_20  and  C_21
REMARK    9  A    between atoms: C_24  and  O_25
REMARK   10  A    between atoms: C_26  and  O_27
REMARK   11  A    between atoms: O_27  and  C_28
REMARK                            x       y       z     vdW  Elec       q    Type
REMARK                         _______ _______ _______ _____ _____    ______ ____
ROOT
ATOM      1  C   UNL     1       6.387   5.623  16.256  0.00  0.00    +0.000 C 
ENDROOT
BRANCH   1   2
ATOM      2  N   UNL     1       7.200   6.752  16.729  0.00  0.00    +0.000 N 
ATOM      3  C   UNL     1       7.577   6.817  18.046  0.00  0.00    +0.000 C 
ATOM      4  O   UNL     1       7.259   5.977  18.881  0.00  0.00    +0.000 OA
ATOM      5  H   UNL     1       7.600   7.384  16.048  0.00  0.00    +0.000 HD
BRANCH   3   6
ATOM      6  C   UNL     1       8.389   8.014  18.382  0.00  0.00    +0.000 C 
ATOM      7  C   UNL     1       7.954   9.232  18.009  0.00  0.00    +0.000 C 
BRANCH   7   8
ATOM      8  C   UNL     1       8.703  10.483  18.202  0.00  0.00    +0.000 A 
ATOM      9  C   UNL     1       9.929  10.433  18.876  0.00  0.00    +0.000 A 
ATOM     10  C   UNL     1      10.677  11.595  19.080  0.00  0.00    +0.000 A 
ATOM     11  C   UNL     1      10.217  12.823  18.597  0.00  0.00    +0.000 A 
ATOM     12  C   UNL     1       9.006  12.897  17.900  0.00  0.00    +0.000 A 
ATOM     13  C   UNL     1       8.264  11.719  17.709  0.00  0.00    +0.000 A 
BRANCH  11  14
ATOM     14  O   UNL     1      10.983  13.932  18.825  0.00  0.00    +0.000 OA
ATOM     15  H   UNL     1      11.821  13.664  19.233  0.00  0.00    +0.000 HD
ENDBRANCH  11  14
BRANCH  12  16
ATOM     16  O   UNL     1       8.410  13.998  17.348  0.00  0.00    +0.000 OA
ATOM     17  C   UNL     1       8.061  15.072  18.209  0.00  0.00    +0.000 C 
ENDBRANCH  12  16
ENDBRANCH   7   8
ENDBRANCH   3   6
ENDBRANCH   1   2
BRANCH   1  18
ATOM     18  C   UNL     1       7.015   5.031  14.984  0.00  0.00    +0.000 C 
ATOM     19  O   UNL     1       7.977   5.505  14.390  0.00  0.00    +0.000 OA
BRANCH  18  21
ATOM     20  C   UNL     1       6.276   3.751  13.152  0.00  0.00    +0.000 C 
ATOM     21  O   UNL     1       6.317   3.930  14.572  0.00  0.00    +0.000 OA
ENDBRANCH  18  21
ENDBRANCH   1  18
BRANCH   1  22
ATOM     22  C   UNL     1       4.933   6.020  15.967  0.00  0.00    +0.000 C 
BRANCH  22  23
ATOM     23  C   UNL     1       4.009   5.922  17.153  0.00  0.00    +0.000 A 
ATOM     24  C   UNL     1       3.751   6.924  18.072  0.00  0.00    +0.000 A 
ATOM     25  N   UNL     1       2.935   6.422  19.049  0.00  0.00    +0.000 N 
ATOM     26  C   UNL     1       2.629   5.109  18.783  0.00  0.00    +0.000 A 
ATOM     27  C   UNL     1       1.845   4.207  19.517  0.00  0.00    +0.000 A 
ATOM     28  C   UNL     1       1.687   2.918  19.002  0.00  0.00    +0.000 A 
ATOM     29  C   UNL     1       2.288   2.552  17.801  0.00  0.00    +0.000 A 
ATOM     30  C   UNL     1       3.080   3.464  17.088  0.00  0.00    +0.000 A 
ATOM     31  C   UNL     1       3.263   4.772  17.587  0.00  0.00    +0.000 A 
ATOM     32  H   UNL     1       2.609   6.933  19.858  0.00  0.00    +0.000 HD
ENDBRANCH  22  23
ENDBRANCH   1  22
TORSDOF 9
ENDMDL
