MODEL 1
REMARK VINA RESULT:      -9.0      0.000      0.000
REMARK  Name = 
REMARK  7 active torsions:
REMARK  status: ('A' for Active; 'I' for Inactive)
REMARK    1  A    between atoms: C_1  and  C_2
REMARK    2  A    between atoms: C_4  and  C_5
REMARK    3  A    between atoms: C_9  and  C_10
REMARK    4  A    between atoms: N_12  and  C_13
REMARK    5  A    between atoms: C_19  and  C_20
REMARK    6  A    between atoms: C_20  and  C_21
REMARK    7  A    between atoms: C_24  and  C_25
REMARK                            x       y       z     vdW  Elec       q    Type
REMARK                         _______ _______ _______ _____ _____    ______ ____
ROOT
ATOM      1  C   UNL     1       1.946   7.034  19.698  0.00  0.00    +0.000 A 
ATOM      2  C   UNL     1       1.427   6.212  20.695  0.00  0.00    +0.000 A 
ATOM      3  C   UNL     1       1.872   4.902  20.827  0.00  0.00    +0.000 A 
ATOM      4  F   UNL     1       1.365   4.142  21.804  0.00  0.00    +0.000 F 
ATOM      5  C   UNL     1       2.823   4.385  19.957  0.00  0.00    +0.000 A 
ATOM      6  F   UNL     1       3.244   3.124  20.150  0.00  0.00    +0.000 F 
ATOM      7  C   UNL     1       3.340   5.148  18.904  0.00  0.00    +0.000 A 
ATOM      8  C   UNL     1       2.876   6.490  18.792  0.00  0.00    +0.000 A 
ENDROOT
BRANCH   7   9
ATOM      9  C   UNL     1       4.356   4.542  17.911  0.00  0.00    +0.000 C 
ATOM     10  C   UNL     1       5.781   4.451  18.482  0.00  0.00    +0.000 C 
ATOM     11  C   UNL     1       6.431   5.820  18.490  0.00  0.00    +0.000 C 
ATOM     12  O   UNL     1       6.374   6.401  17.170  0.00  0.00    +0.000 OA
ATOM     13  C   UNL     1       5.307   6.139  16.399  0.00  0.00    +0.000 C 
ATOM     14  N   UNL     1       5.328   6.883  15.275  0.00  0.00    +0.000 N 
ATOM     15  N   UNL     1       4.370   5.312  16.657  0.00  0.00    +0.000 NA
ATOM     16  H   UNL     1       6.243   7.208  14.993  0.00  0.00    +0.000 HD
ATOM     17  H   UNL     1       4.757   6.510  14.527  0.00  0.00    +0.000 HD
BRANCH  11  18
ATOM     18  C   UNL     1       7.883   5.745  18.985  0.00  0.00    +0.000 C 
ATOM     19  F   UNL     1       8.582   6.873  18.723  0.00  0.00    +0.000 F 
ATOM     20  F   UNL     1       7.965   5.528  20.318  0.00  0.00    +0.000 F 
ATOM     21  F   UNL     1       8.537   4.725  18.377  0.00  0.00    +0.000 F 
ENDBRANCH  11  18
BRANCH   9  22
ATOM     22  C   UNL     1       3.930   3.094  17.524  0.00  0.00    +0.000 C 
ATOM     23  F   UNL     1       2.734   3.126  16.859  0.00  0.00    +0.000 F 
ENDBRANCH   9  22
ENDBRANCH   7   9
BRANCH   1  26
ATOM     24  C   UNL     1       1.572   9.143  18.399  0.00  0.00    +0.000 C 
ATOM     25  O   UNL     1       1.911   8.720  17.296  0.00  0.00    +0.000 OA
ATOM     26  N   UNL     1       1.549   8.393  19.575  0.00  0.00    +0.000 N 
ATOM     27  H   UNL     1       1.133   8.856  20.380  0.00  0.00    +0.000 HD
BRANCH  24  34
ATOM     28  C   UNL     1      -1.412   9.953  18.407  0.00  0.00    +0.000 C 
ATOM     29  C   UNL     1      -0.271  10.923  18.542  0.00  0.00    +0.000 A 
ATOM     30  C   UNL     1      -0.582  12.286  18.681  0.00  0.00    +0.000 A 
ATOM     31  C   UNL     1       0.433  13.231  18.809  0.00  0.00    +0.000 A 
ATOM     32  C   UNL     1       1.743  12.784  18.788  0.00  0.00    +0.000 A 
ATOM     33  N   UNL     1       2.103  11.483  18.658  0.00  0.00    +0.000 NA
ATOM     34  C   UNL     1       1.092  10.569  18.532  0.00  0.00    +0.000 A 
BRANCH  31  35
ATOM     35  C   UNL     1       0.135  14.620  18.972  0.00  0.00    +0.000 C 
ATOM     36  N   UNL     1      -0.101  15.743  19.110  0.00  0.00    +0.000 NA
ENDBRANCH  31  35
ENDBRANCH  24  34
ENDBRANCH   1  26
TORSDOF 6
ENDMDL
MODEL 2
REMARK VINA RESULT:      -8.8      1.533      1.694
REMARK  Name = 
REMARK  7 active torsions:
REMARK  status: ('A' for Active; 'I' for Inactive)
REMARK    1  A    between atoms: C_1  and  C_2
REMARK    2  A    between atoms: C_4  and  C_5
REMARK    3  A    between atoms: C_9  and  C_10
REMARK    4  A    between atoms: N_12  and  C_13
REMARK    5  A    between atoms: C_19  and  C_20
REMARK    6  A    between atoms: C_20  and  C_21
REMARK    7  A    between atoms: C_24  and  C_25
REMARK                            x       y       z     vdW  Elec       q    Type
REMARK                         _______ _______ _______ _____ _____    ______ ____
ROOT
ATOM      1  C   UNL     1       1.890   6.735  19.933  0.00  0.00    +0.000 A 
ATOM      2  C   UNL     1       1.431   5.827  20.885  0.00  0.00    +0.000 A 
ATOM      3  C   UNL     1       1.934   4.533  20.921  0.00  0.00    +0.000 A 
ATOM      4  F   UNL     1       1.484   3.689  21.856  0.00  0.00    +0.000 F 
ATOM      5  C   UNL     1       2.887   4.116  19.998  0.00  0.00    +0.000 A 
ATOM      6  F   UNL     1       3.365   2.865  20.099  0.00  0.00    +0.000 F 
ATOM      7  C   UNL     1       3.344   4.968  18.988  0.00  0.00    +0.000 A 
ATOM      8  C   UNL     1       2.822   6.293  18.975  0.00  0.00    +0.000 A 
ENDROOT
BRANCH   7   9
ATOM      9  C   UNL     1       4.363   4.474  17.936  0.00  0.00    +0.000 C 
ATOM     10  C   UNL     1       5.801   4.399  18.473  0.00  0.00    +0.000 C 
ATOM     11  C   UNL     1       6.399   5.788  18.568  0.00  0.00    +0.000 C 
ATOM     12  O   UNL     1       6.293   6.458  17.294  0.00  0.00    +0.000 OA
ATOM     13  C   UNL     1       5.221   6.209  16.525  0.00  0.00    +0.000 C 
ATOM     14  N   UNL     1       5.190   7.031  15.457  0.00  0.00    +0.000 N 
ATOM     15  N   UNL     1       4.321   5.330  16.740  0.00  0.00    +0.000 NA
ATOM     16  H   UNL     1       6.087   7.411  15.182  0.00  0.00    +0.000 HD
ATOM     17  H   UNL     1       4.619   6.689  14.694  0.00  0.00    +0.000 HD
BRANCH  11  18
ATOM     18  C   UNL     1       7.863   5.735  19.030  0.00  0.00    +0.000 C 
ATOM     19  F   UNL     1       8.556   4.729  18.450  0.00  0.00    +0.000 F 
ATOM     20  F   UNL     1       8.531   6.881  18.765  0.00  0.00    +0.000 F 
ATOM     21  F   UNL     1       7.928   5.539  20.369  0.00  0.00    +0.000 F 
ENDBRANCH  11  18
BRANCH   9  22
ATOM     22  C   UNL     1       3.983   3.041  17.456  0.00  0.00    +0.000 C 
ATOM     23  F   UNL     1       2.736   3.057  16.892  0.00  0.00    +0.000 F 
ENDBRANCH   9  22
ENDBRANCH   7   9
BRANCH   1  26
ATOM     24  C   UNL     1       1.265   8.901  21.024  0.00  0.00    +0.000 C 
ATOM     25  O   UNL     1       1.519   8.583  22.183  0.00  0.00    +0.000 OA
ATOM     26  N   UNL     1       1.433   8.080  19.909  0.00  0.00    +0.000 N 
ATOM     27  H   UNL     1       1.288   8.531  19.008  0.00  0.00    +0.000 HD
BRANCH  24  34
ATOM     28  C   UNL     1      -0.663  10.461  22.872  0.00  0.00    +0.000 C 
ATOM     29  C   UNL     1      -0.101  11.000  21.585  0.00  0.00    +0.000 A 
ATOM     30  C   UNL     1      -0.479  12.297  21.198  0.00  0.00    +0.000 A 
ATOM     31  C   UNL     1       0.009  12.849  20.016  0.00  0.00    +0.000 A 
ATOM     32  C   UNL     1       0.862  12.079  19.242  0.00  0.00    +0.000 A 
ATOM     33  N   UNL     1       1.260  10.824  19.566  0.00  0.00    +0.000 NA
ATOM     34  C   UNL     1       0.770  10.298  20.730  0.00  0.00    +0.000 A 
BRANCH  31  35
ATOM     35  C   UNL     1      -0.347  14.175  19.615  0.00  0.00    +0.000 C 
ATOM     36  N   UNL     1      -0.634  15.244  19.284  0.00  0.00    +0.000 NA
ENDBRANCH  31  35
ENDBRANCH  24  34
ENDBRANCH   1  26
TORSDOF 6
ENDMDL
MODEL 3
REMARK VINA RESULT:      -8.8      1.196      1.364
REMARK  Name = 
REMARK  7 active torsions:
REMARK  status: ('A' for Active; 'I' for Inactive)
REMARK    1  A    between atoms: C_1  and  C_2
REMARK    2  A    between atoms: C_4  and  C_5
REMARK    3  A    between atoms: C_9  and  C_10
REMARK    4  A    between atoms: N_12  and  C_13
REMARK    5  A    between atoms: C_19  and  C_20
REMARK    6  A    between atoms: C_20  and  C_21
REMARK    7  A    between atoms: C_24  and  C_25
REMARK                            x       y       z     vdW  Elec       q    Type
REMARK                         _______ _______ _______ _____ _____    ______ ____
ROOT
ATOM      1  C   UNL     1       1.982   6.987  19.837  0.00  0.00    +0.000 A 
ATOM      2  C   UNL     1       1.448   6.126  20.792  0.00  0.00    +0.000 A 
ATOM      3  C   UNL     1       1.866   4.803  20.857  0.00  0.00    +0.000 A 
ATOM      4  F   UNL     1       1.346   4.005  21.795  0.00  0.00    +0.000 F 
ATOM      5  C   UNL     1       2.807   4.312  19.959  0.00  0.00    +0.000 A 
ATOM      6  F   UNL     1       3.202   3.035  20.087  0.00  0.00    +0.000 F 
ATOM      7  C   UNL     1       3.337   5.117  18.946  0.00  0.00    +0.000 A 
ATOM      8  C   UNL     1       2.900   6.472  18.902  0.00  0.00    +0.000 A 
ENDROOT
BRANCH   7   9
ATOM      9  C   UNL     1       4.340   4.542  17.921  0.00  0.00    +0.000 C 
ATOM     10  C   UNL     1       5.770   4.422  18.473  0.00  0.00    +0.000 C 
ATOM     11  C   UNL     1       6.428   5.786  18.526  0.00  0.00    +0.000 C 
ATOM     12  O   UNL     1       6.362   6.415  17.228  0.00  0.00    +0.000 OA
ATOM     13  C   UNL     1       5.286   6.188  16.459  0.00  0.00    +0.000 C 
ATOM     14  N   UNL     1       5.300   6.973  15.363  0.00  0.00    +0.000 N 
ATOM     15  N   UNL     1       4.346   5.358  16.696  0.00  0.00    +0.000 NA
ATOM     16  H   UNL     1       6.215   7.303  15.083  0.00  0.00    +0.000 HD
ATOM     17  H   UNL     1       4.720   6.630  14.607  0.00  0.00    +0.000 HD
BRANCH  11  18
ATOM     18  C   UNL     1       7.884   5.684  19.003  0.00  0.00    +0.000 C 
ATOM     19  F   UNL     1       7.982   5.488  20.338  0.00  0.00    +0.000 F 
ATOM     20  F   UNL     1       8.556   4.675  18.404  0.00  0.00    +0.000 F 
ATOM     21  F   UNL     1       8.554   6.829  18.722  0.00  0.00    +0.000 F 
ENDBRANCH  11  18
BRANCH   9  22
ATOM     22  C   UNL     1       3.901   3.112  17.486  0.00  0.00    +0.000 C 
ATOM     23  F   UNL     1       2.703   3.176  16.827  0.00  0.00    +0.000 F 
ENDBRANCH   9  22
ENDBRANCH   7   9
BRANCH   1  26
ATOM     24  C   UNL     1       0.620   8.963  20.557  0.00  0.00    +0.000 C 
ATOM     25  O   UNL     1      -0.052   8.397  21.415  0.00  0.00    +0.000 OA
ATOM     26  N   UNL     1       1.612   8.358  19.784  0.00  0.00    +0.000 N 
ATOM     27  H   UNL     1       2.158   8.990  19.201  0.00  0.00    +0.000 HD
BRANCH  24  34
ATOM     28  C   UNL     1      -1.269  10.110  18.394  0.00  0.00    +0.000 C 
ATOM     29  C   UNL     1      -0.447  10.949  19.332  0.00  0.00    +0.000 A 
ATOM     30  C   UNL     1      -0.544  12.347  19.216  0.00  0.00    +0.000 A 
ATOM     31  C   UNL     1       0.194  13.176  20.057  0.00  0.00    +0.000 A 
ATOM     32  C   UNL     1       1.022  12.580  20.994  0.00  0.00    +0.000 A 
ATOM     33  N   UNL     1       1.156  11.241  21.151  0.00  0.00    +0.000 NA
ATOM     34  C   UNL     1       0.424  10.441  20.315  0.00  0.00    +0.000 A 
BRANCH  31  35
ATOM     35  C   UNL     1       0.092  14.599  19.969  0.00  0.00    +0.000 C 
ATOM     36  N   UNL     1       0.016  15.751  19.903  0.00  0.00    +0.000 NA
ENDBRANCH  31  35
ENDBRANCH  24  34
ENDBRANCH   1  26
TORSDOF 6
ENDMDL
MODEL 4
REMARK VINA RESULT:      -8.7      0.814      1.060
REMARK  Name = 
REMARK  7 active torsions:
REMARK  status: ('A' for Active; 'I' for Inactive)
REMARK    1  A    between atoms: C_1  and  C_2
REMARK    2  A    between atoms: C_4  and  C_5
REMARK    3  A    between atoms: C_9  and  C_10
REMARK    4  A    between atoms: N_12  and  C_13
REMARK    5  A    between atoms: C_19  and  C_20
REMARK    6  A    between atoms: C_20  and  C_21
REMARK    7  A    between atoms: C_24  and  C_25
REMARK                            x       y       z     vdW  Elec       q    Type
REMARK                         _______ _______ _______ _____ _____    ______ ____
ROOT
ATOM      1  C   UNL     1       2.027   6.882  19.928  0.00  0.00    +0.000 A 
ATOM      2  C   UNL     1       1.392   5.965  20.762  0.00  0.00    +0.000 A 
ATOM      3  C   UNL     1       1.726   4.618  20.708  0.00  0.00    +0.000 A 
ATOM      4  F   UNL     1       1.109   3.765  21.532  0.00  0.00    +0.000 F 
ATOM      5  C   UNL     1       2.681   4.160  19.808  0.00  0.00    +0.000 A 
ATOM      6  F   UNL     1       2.992   2.853  19.821  0.00  0.00    +0.000 F 
ATOM      7  C   UNL     1       3.312   5.027  18.910  0.00  0.00    +0.000 A 
ATOM      8  C   UNL     1       2.961   6.405  18.988  0.00  0.00    +0.000 A 
ENDROOT
BRANCH   7   9
ATOM      9  C   UNL     1       4.332   4.494  17.879  0.00  0.00    +0.000 C 
ATOM     10  C   UNL     1       5.762   4.396  18.435  0.00  0.00    +0.000 C 
ATOM     11  C   UNL     1       6.389   5.772  18.517  0.00  0.00    +0.000 C 
ATOM     12  O   UNL     1       6.314   6.425  17.232  0.00  0.00    +0.000 OA
ATOM     13  C   UNL     1       5.247   6.189  16.454  0.00  0.00    +0.000 C 
ATOM     14  N   UNL     1       5.248   6.995  15.373  0.00  0.00    +0.000 N 
ATOM     15  N   UNL     1       4.324   5.334  16.670  0.00  0.00    +0.000 NA
ATOM     16  H   UNL     1       6.156   7.351  15.104  0.00  0.00    +0.000 HD
ATOM     17  H   UNL     1       4.678   6.655  14.608  0.00  0.00    +0.000 HD
BRANCH  11  18
ATOM     18  C   UNL     1       7.846   5.694  18.999  0.00  0.00    +0.000 C 
ATOM     19  F   UNL     1       8.527   4.672  18.433  0.00  0.00    +0.000 F 
ATOM     20  F   UNL     1       8.539   6.825  18.738  0.00  0.00    +0.000 F 
ATOM     21  F   UNL     1       7.889   5.502  20.340  0.00  0.00    +0.000 F 
ENDBRANCH  11  18
BRANCH   9  22
ATOM     22  C   UNL     1       3.926   3.064  17.414  0.00  0.00    +0.000 C 
ATOM     23  F   UNL     1       2.730   3.114  16.751  0.00  0.00    +0.000 F 
ENDBRANCH   9  22
ENDBRANCH   7   9
BRANCH   1  26
ATOM     24  C   UNL     1       1.449   9.100  18.917  0.00  0.00    +0.000 C 
ATOM     25  O   UNL     1       1.363   8.732  17.748  0.00  0.00    +0.000 OA
ATOM     26  N   UNL     1       1.744   8.273  20.001  0.00  0.00    +0.000 N 
ATOM     27  H   UNL     1       1.662   8.708  20.917  0.00  0.00    +0.000 HD
BRANCH  24  34
ATOM     28  C   UNL     1      -0.444   9.994  21.193  0.00  0.00    +0.000 C 
ATOM     29  C   UNL     1       0.320  10.939  20.307  0.00  0.00    +0.000 A 
ATOM     30  C   UNL     1       0.162  12.317  20.528  0.00  0.00    +0.000 A 
ATOM     31  C   UNL     1       0.843  13.240  19.738  0.00  0.00    +0.000 A 
ATOM     32  C   UNL     1       1.665  12.755  18.734  0.00  0.00    +0.000 A 
ATOM     33  N   UNL     1       1.856  11.438  18.476  0.00  0.00    +0.000 NA
ATOM     34  C   UNL     1       1.178  10.546  19.261  0.00  0.00    +0.000 A 
BRANCH  31  35
ATOM     35  C   UNL     1       0.711  14.646  19.961  0.00  0.00    +0.000 C 
ATOM     36  N   UNL     1       0.599  15.781  20.148  0.00  0.00    +0.000 NA
ENDBRANCH  31  35
ENDBRANCH  24  34
ENDBRANCH   1  26
TORSDOF 6
ENDMDL
MODEL 5
REMARK VINA RESULT:      -8.6      2.071      2.388
REMARK  Name = 
REMARK  7 active torsions:
REMARK  status: ('A' for Active; 'I' for Inactive)
REMARK    1  A    between atoms: C_1  and  C_2
REMARK    2  A    between atoms: C_4  and  C_5
REMARK    3  A    between atoms: C_9  and  C_10
REMARK    4  A    between atoms: N_12  and  C_13
REMARK    5  A    between atoms: C_19  and  C_20
REMARK    6  A    between atoms: C_20  and  C_21
REMARK    7  A    between atoms: C_24  and  C_25
REMARK                            x       y       z     vdW  Elec       q    Type
REMARK                         _______ _______ _______ _____ _____    ______ ____
ROOT
ATOM      1  C   UNL     1       1.902   5.475  20.714  0.00  0.00    +0.000 A 
ATOM      2  C   UNL     1       1.730   4.316  21.467  0.00  0.00    +0.000 A 
ATOM      3  C   UNL     1       2.419   3.156  21.136  0.00  0.00    +0.000 A 
ATOM      4  F   UNL     1       2.244   2.063  21.887  0.00  0.00    +0.000 F 
ATOM      5  C   UNL     1       3.273   3.126  20.040  0.00  0.00    +0.000 A 
ATOM      6  F   UNL     1       3.942   1.989  19.786  0.00  0.00    +0.000 F 
ATOM      7  C   UNL     1       3.443   4.245  19.218  0.00  0.00    +0.000 A 
ATOM      8  C   UNL     1       2.734   5.426  19.579  0.00  0.00    +0.000 A 
ENDROOT
BRANCH   7   9
ATOM      9  C   UNL     1       4.354   4.180  17.971  0.00  0.00    +0.000 C 
ATOM     10  C   UNL     1       5.853   4.185  18.314  0.00  0.00    +0.000 C 
ATOM     11  C   UNL     1       6.296   5.579  18.708  0.00  0.00    +0.000 C 
ATOM     12  O   UNL     1       5.937   6.521  17.674  0.00  0.00    +0.000 OA
ATOM     13  C   UNL     1       4.804   6.317  16.985  0.00  0.00    +0.000 C 
ATOM     14  N   UNL     1       4.531   7.364  16.181  0.00  0.00    +0.000 N 
ATOM     15  N   UNL     1       4.048   5.290  17.055  0.00  0.00    +0.000 NA
ATOM     16  H   UNL     1       5.331   7.926  15.923  0.00  0.00    +0.000 HD
ATOM     17  H   UNL     1       3.901   7.141  15.420  0.00  0.00    +0.000 HD
BRANCH  11  18
ATOM     18  C   UNL     1       7.806   5.628  18.982  0.00  0.00    +0.000 C 
ATOM     19  F   UNL     1       8.370   6.793  18.588  0.00  0.00    +0.000 F 
ATOM     20  F   UNL     1       8.099   5.469  20.293  0.00  0.00    +0.000 F 
ATOM     21  F   UNL     1       8.440   4.636  18.311  0.00  0.00    +0.000 F 
ENDBRANCH  11  18
BRANCH   9  22
ATOM     22  C   UNL     1       4.076   2.871  17.172  0.00  0.00    +0.000 C 
ATOM     23  F   UNL     1       2.733   2.748  16.938  0.00  0.00    +0.000 F 
ENDBRANCH   9  22
ENDBRANCH   7   9
BRANCH   1  26
ATOM     24  C   UNL     1       1.455   7.926  20.447  0.00  0.00    +0.000 C 
ATOM     25  O   UNL     1       2.205   8.128  19.495  0.00  0.00    +0.000 OA
ATOM     26  N   UNL     1       1.252   6.690  21.062  0.00  0.00    +0.000 N 
ATOM     27  H   UNL     1       0.512   6.666  21.760  0.00  0.00    +0.000 HD
BRANCH  24  34
ATOM     28  C   UNL     1       0.102  10.077  18.685  0.00  0.00    +0.000 C 
ATOM     29  C   UNL     1       0.016  10.035  20.186  0.00  0.00    +0.000 A 
ATOM     30  C   UNL     1      -0.727  11.039  20.828  0.00  0.00    +0.000 A 
ATOM     31  C   UNL     1      -0.841  11.053  22.216  0.00  0.00    +0.000 A 
ATOM     32  C   UNL     1      -0.197  10.056  22.930  0.00  0.00    +0.000 A 
ATOM     33  N   UNL     1       0.532   9.063  22.366  0.00  0.00    +0.000 NA
ATOM     34  C   UNL     1       0.634   9.066  21.001  0.00  0.00    +0.000 A 
BRANCH  31  35
ATOM     35  C   UNL     1      -1.610  12.055  22.886  0.00  0.00    +0.000 C 
ATOM     36  N   UNL     1      -2.235  12.867  23.420  0.00  0.00    +0.000 NA
ENDBRANCH  31  35
ENDBRANCH  24  34
ENDBRANCH   1  26
TORSDOF 6
ENDMDL
MODEL 6
REMARK VINA RESULT:      -8.6      1.444      1.717
REMARK  Name = 
REMARK  7 active torsions:
REMARK  status: ('A' for Active; 'I' for Inactive)
REMARK    1  A    between atoms: C_1  and  C_2
REMARK    2  A    between atoms: C_4  and  C_5
REMARK    3  A    between atoms: C_9  and  C_10
REMARK    4  A    between atoms: N_12  and  C_13
REMARK    5  A    between atoms: C_19  and  C_20
REMARK    6  A    between atoms: C_20  and  C_21
REMARK    7  A    between atoms: C_24  and  C_25
REMARK                            x       y       z     vdW  Elec       q    Type
REMARK                         _______ _______ _______ _____ _____    ______ ____
ROOT
ATOM      1  C   UNL     1       1.912   6.746  19.950  0.00  0.00    +0.000 A 
ATOM      2  C   UNL     1       1.455   5.845  20.910  0.00  0.00    +0.000 A 
ATOM      3  C   UNL     1       1.955   4.550  20.950  0.00  0.00    +0.000 A 
ATOM      4  F   UNL     1       1.508   3.713  21.892  0.00  0.00    +0.000 F 
ATOM      5  C   UNL     1       2.901   4.125  20.025  0.00  0.00    +0.000 A 
ATOM      6  F   UNL     1       3.377   2.874  20.130  0.00  0.00    +0.000 F 
ATOM      7  C   UNL     1       3.356   4.971  19.007  0.00  0.00    +0.000 A 
ATOM      8  C   UNL     1       2.836   6.297  18.989  0.00  0.00    +0.000 A 
ENDROOT
BRANCH   7   9
ATOM      9  C   UNL     1       4.367   4.467  17.953  0.00  0.00    +0.000 C 
ATOM     10  C   UNL     1       5.808   4.388  18.483  0.00  0.00    +0.000 C 
ATOM     11  C   UNL     1       6.412   5.775  18.568  0.00  0.00    +0.000 C 
ATOM     12  O   UNL     1       6.303   6.440  17.292  0.00  0.00    +0.000 OA
ATOM     13  C   UNL     1       5.226   6.193  16.530  0.00  0.00    +0.000 C 
ATOM     14  N   UNL     1       5.194   7.010  15.458  0.00  0.00    +0.000 N 
ATOM     15  N   UNL     1       4.323   5.319  16.753  0.00  0.00    +0.000 NA
ATOM     16  H   UNL     1       6.090   7.385  15.178  0.00  0.00    +0.000 HD
ATOM     17  H   UNL     1       4.617   6.668  14.700  0.00  0.00    +0.000 HD
BRANCH  11  18
ATOM     18  C   UNL     1       7.878   5.717  19.024  0.00  0.00    +0.000 C 
ATOM     19  F   UNL     1       8.565   4.709  18.441  0.00  0.00    +0.000 F 
ATOM     20  F   UNL     1       8.548   6.861  18.756  0.00  0.00    +0.000 F 
ATOM     21  F   UNL     1       7.948   5.521  20.363  0.00  0.00    +0.000 F 
ENDBRANCH  11  18
BRANCH   9  22
ATOM     22  C   UNL     1       3.979   3.035  17.479  0.00  0.00    +0.000 C 
ATOM     23  F   UNL     1       2.756   3.065  16.865  0.00  0.00    +0.000 F 
ENDBRANCH   9  22
ENDBRANCH   7   9
BRANCH   1  26
ATOM     24  C   UNL     1       1.309   8.924  21.031  0.00  0.00    +0.000 C 
ATOM     25  O   UNL     1       1.579   8.615  22.189  0.00  0.00    +0.000 OA
ATOM     26  N   UNL     1       1.458   8.092  19.921  0.00  0.00    +0.000 N 
ATOM     27  H   UNL     1       1.301   8.536  19.018  0.00  0.00    +0.000 HD
BRANCH  24  34
ATOM     28  C   UNL     1       1.475  10.239  18.237  0.00  0.00    +0.000 C 
ATOM     29  C   UNL     1       0.888  10.903  19.452  0.00  0.00    +0.000 A 
ATOM     30  C   UNL     1       0.383  12.206  19.307  0.00  0.00    +0.000 A 
ATOM     31  C   UNL     1      -0.171  12.873  20.397  0.00  0.00    +0.000 A 
ATOM     32  C   UNL     1      -0.199  12.214  21.615  0.00  0.00    +0.000 A 
ATOM     33  N   UNL     1       0.272  10.958  21.814  0.00  0.00    +0.000 NA
ATOM     34  C   UNL     1       0.814  10.320  20.732  0.00  0.00    +0.000 A 
BRANCH  31  35
ATOM     35  C   UNL     1      -0.709  14.191  20.264  0.00  0.00    +0.000 C 
ATOM     36  N   UNL     1      -1.143  15.256  20.149  0.00  0.00    +0.000 NA
ENDBRANCH  31  35
ENDBRANCH  24  34
ENDBRANCH   1  26
TORSDOF 6
ENDMDL
MODEL 7
REMARK VINA RESULT:      -8.5      0.950      1.450
REMARK  Name = 
REMARK  7 active torsions:
REMARK  status: ('A' for Active; 'I' for Inactive)
REMARK    1  A    between atoms: C_1  and  C_2
REMARK    2  A    between atoms: C_4  and  C_5
REMARK    3  A    between atoms: C_9  and  C_10
REMARK    4  A    between atoms: N_12  and  C_13
REMARK    5  A    between atoms: C_19  and  C_20
REMARK    6  A    between atoms: C_20  and  C_21
REMARK    7  A    between atoms: C_24  and  C_25
REMARK                            x       y       z     vdW  Elec       q    Type
REMARK                         _______ _______ _______ _____ _____    ______ ____
ROOT
ATOM      1  C   UNL     1       1.963   6.791  20.034  0.00  0.00    +0.000 A 
ATOM      2  C   UNL     1       1.470   5.854  20.939  0.00  0.00    +0.000 A 
ATOM      3  C   UNL     1       1.928   4.543  20.911  0.00  0.00    +0.000 A 
ATOM      4  F   UNL     1       1.446   3.670  21.803  0.00  0.00    +0.000 F 
ATOM      5  C   UNL     1       2.868   4.139  19.970  0.00  0.00    +0.000 A 
ATOM      6  F   UNL     1       3.303   2.869  20.010  0.00  0.00    +0.000 F 
ATOM      7  C   UNL     1       3.358   5.024  19.004  0.00  0.00    +0.000 A 
ATOM      8  C   UNL     1       2.881   6.365  19.055  0.00  0.00    +0.000 A 
ENDROOT
BRANCH   7   9
ATOM      9  C   UNL     1       4.361   4.547  17.930  0.00  0.00    +0.000 C 
ATOM     10  C   UNL     1       5.804   4.444  18.451  0.00  0.00    +0.000 C 
ATOM     11  C   UNL     1       6.416   5.825  18.575  0.00  0.00    +0.000 C 
ATOM     12  O   UNL     1       6.305   6.528  17.319  0.00  0.00    +0.000 OA
ATOM     13  C   UNL     1       5.223   6.310  16.555  0.00  0.00    +0.000 C 
ATOM     14  N   UNL     1       5.190   7.158  15.508  0.00  0.00    +0.000 N 
ATOM     15  N   UNL     1       4.316   5.434  16.757  0.00  0.00    +0.000 NA
ATOM     16  H   UNL     1       6.087   7.537  15.235  0.00  0.00    +0.000 HD
ATOM     17  H   UNL     1       4.608   6.842  14.743  0.00  0.00    +0.000 HD
BRANCH  11  18
ATOM     18  C   UNL     1       7.884   5.746  19.021  0.00  0.00    +0.000 C 
ATOM     19  F   UNL     1       8.554   4.730  18.432  0.00  0.00    +0.000 F 
ATOM     20  F   UNL     1       8.568   6.881  18.752  0.00  0.00    +0.000 F 
ATOM     21  F   UNL     1       7.960   5.546  20.359  0.00  0.00    +0.000 F 
ENDBRANCH  11  18
BRANCH   9  22
ATOM     22  C   UNL     1       3.963   3.131  17.417  0.00  0.00    +0.000 C 
ATOM     23  F   UNL     1       2.781   3.202  16.731  0.00  0.00    +0.000 F 
ENDBRANCH   9  22
ENDBRANCH   7   9
BRANCH   1  26
ATOM     24  C   UNL     1       1.306   8.959  18.965  0.00  0.00    +0.000 C 
ATOM     25  O   UNL     1       1.382   8.596  17.794  0.00  0.00    +0.000 OA
ATOM     26  N   UNL     1       1.553   8.150  20.076  0.00  0.00    +0.000 N 
ATOM     27  H   UNL     1       1.333   8.568  20.977  0.00  0.00    +0.000 HD
BRANCH  24  34
ATOM     28  C   UNL     1       2.671  11.470  17.784  0.00  0.00    +0.000 C 
ATOM     29  C   UNL     1       1.499  11.507  18.726  0.00  0.00    +0.000 A 
ATOM     30  C   UNL     1       0.993  12.765  19.093  0.00  0.00    +0.000 A 
ATOM     31  C   UNL     1      -0.090  12.862  19.963  0.00  0.00    +0.000 A 
ATOM     32  C   UNL     1      -0.638  11.688  20.452  0.00  0.00    +0.000 A 
ATOM     33  N   UNL     1      -0.192  10.448  20.133  0.00  0.00    +0.000 NA
ATOM     34  C   UNL     1       0.874  10.372  19.278  0.00  0.00    +0.000 A 
BRANCH  31  35
ATOM     35  C   UNL     1      -0.633  14.133  20.331  0.00  0.00    +0.000 C 
ATOM     36  N   UNL     1      -1.071  15.162  20.622  0.00  0.00    +0.000 NA
ENDBRANCH  31  35
ENDBRANCH  24  34
ENDBRANCH   1  26
TORSDOF 6
ENDMDL
MODEL 8
REMARK VINA RESULT:      -8.1      1.548      1.929
REMARK  Name = 
REMARK  7 active torsions:
REMARK  status: ('A' for Active; 'I' for Inactive)
REMARK    1  A    between atoms: C_1  and  C_2
REMARK    2  A    between atoms: C_4  and  C_5
REMARK    3  A    between atoms: C_9  and  C_10
REMARK    4  A    between atoms: N_12  and  C_13
REMARK    5  A    between atoms: C_19  and  C_20
REMARK    6  A    between atoms: C_20  and  C_21
REMARK    7  A    between atoms: C_24  and  C_25
REMARK                            x       y       z     vdW  Elec       q    Type
REMARK                         _______ _______ _______ _____ _____    ______ ____
ROOT
ATOM      1  C   UNL     1       1.842   5.905  20.322  0.00  0.00    +0.000 A 
ATOM      2  C   UNL     1       1.579   4.847  21.189  0.00  0.00    +0.000 A 
ATOM      3  C   UNL     1       2.251   3.640  21.048  0.00  0.00    +0.000 A 
ATOM      4  F   UNL     1       1.987   2.648  21.906  0.00  0.00    +0.000 F 
ATOM      5  C   UNL     1       3.180   3.460  20.030  0.00  0.00    +0.000 A 
ATOM      6  F   UNL     1       3.827   2.286  19.960  0.00  0.00    +0.000 F 
ATOM      7  C   UNL     1       3.445   4.470  19.099  0.00  0.00    +0.000 A 
ATOM      8  C   UNL     1       2.751   5.702  19.266  0.00  0.00    +0.000 A 
ENDROOT
BRANCH   7   9
ATOM      9  C   UNL     1       4.440   4.236  17.940  0.00  0.00    +0.000 C 
ATOM     10  C   UNL     1       5.908   4.218  18.396  0.00  0.00    +0.000 C 
ATOM     11  C   UNL     1       6.388   5.627  18.677  0.00  0.00    +0.000 C 
ATOM     12  O   UNL     1       6.152   6.467  17.527  0.00  0.00    +0.000 OA
ATOM     13  C   UNL     1       5.063   6.236  16.777  0.00  0.00    +0.000 C 
ATOM     14  N   UNL     1       4.900   7.201  15.850  0.00  0.00    +0.000 N 
ATOM     15  N   UNL     1       4.256   5.254  16.893  0.00  0.00    +0.000 NA
ATOM     16  H   UNL     1       5.742   7.701  15.598  0.00  0.00    +0.000 HD
ATOM     17  H   UNL     1       4.317   6.925  15.070  0.00  0.00    +0.000 HD
BRANCH  11  18
ATOM     18  C   UNL     1       7.875   5.644  19.061  0.00  0.00    +0.000 C 
ATOM     19  F   UNL     1       8.071   5.493  20.391  0.00  0.00    +0.000 F 
ATOM     20  F   UNL     1       8.580   4.669  18.443  0.00  0.00    +0.000 F 
ATOM     21  F   UNL     1       8.440   6.825  18.710  0.00  0.00    +0.000 F 
ENDBRANCH  11  18
BRANCH   9  22
ATOM     22  C   UNL     1       4.159   2.862  17.261  0.00  0.00    +0.000 C 
ATOM     23  F   UNL     1       2.827   2.754  16.968  0.00  0.00    +0.000 F 
ENDBRANCH   9  22
ENDBRANCH   7   9
BRANCH   1  26
ATOM     24  C   UNL     1       1.493   8.316  19.737  0.00  0.00    +0.000 C 
ATOM     25  O   UNL     1       2.312   8.385  18.824  0.00  0.00    +0.000 OA
ATOM     26  N   UNL     1       1.208   7.168  20.477  0.00  0.00    +0.000 N 
ATOM     27  H   UNL     1       0.422   7.245  21.119  0.00  0.00    +0.000 HD
BRANCH  24  34
ATOM     28  C   UNL     1       1.072   9.314  22.633  0.00  0.00    +0.000 C 
ATOM     29  C   UNL     1       0.496   9.982  21.415  0.00  0.00    +0.000 A 
ATOM     30  C   UNL     1      -0.284  11.134  21.608  0.00  0.00    +0.000 A 
ATOM     31  C   UNL     1      -0.844  11.796  20.518  0.00  0.00    +0.000 A 
ATOM     32  C   UNL     1      -0.613  11.277  19.254  0.00  0.00    +0.000 A 
ATOM     33  N   UNL     1       0.131  10.171  19.009  0.00  0.00    +0.000 NA
ATOM     34  C   UNL     1       0.673   9.534  20.092  0.00  0.00    +0.000 A 
BRANCH  31  35
ATOM     35  C   UNL     1      -1.624  12.982  20.691  0.00  0.00    +0.000 C 
ATOM     36  N   UNL     1      -2.257  13.940  20.824  0.00  0.00    +0.000 NA
ENDBRANCH  31  35
ENDBRANCH  24  34
ENDBRANCH   1  26
TORSDOF 6
ENDMDL
MODEL 9
REMARK VINA RESULT:      -8.1      4.689      9.362
REMARK  Name = 
REMARK  7 active torsions:
REMARK  status: ('A' for Active; 'I' for Inactive)
REMARK    1  A    between atoms: C_1  and  C_2
REMARK    2  A    between atoms: C_4  and  C_5
REMARK    3  A    between atoms: C_9  and  C_10
REMARK    4  A    between atoms: N_12  and  C_13
REMARK    5  A    between atoms: C_19  and  C_20
REMARK    6  A    between atoms: C_20  and  C_21
REMARK    7  A    between atoms: C_24  and  C_25
REMARK                            x       y       z     vdW  Elec       q    Type
REMARK                         _______ _______ _______ _____ _____    ______ ____
ROOT
ATOM      1  C   UNL     1       1.289   8.956  20.168  0.00  0.00    +0.000 A 
ATOM      2  C   UNL     1       1.075   8.729  21.525  0.00  0.00    +0.000 A 
ATOM      3  C   UNL     1       0.316   9.620  22.274  0.00  0.00    +0.000 A 
ATOM      4  F   UNL     1       0.116   9.367  23.572  0.00  0.00    +0.000 F 
ATOM      5  C   UNL     1      -0.223  10.759  21.689  0.00  0.00    +0.000 A 
ATOM      6  F   UNL     1      -0.978  11.569  22.451  0.00  0.00    +0.000 F 
ATOM      7  C   UNL     1       0.004  11.065  20.344  0.00  0.00    +0.000 A 
ATOM      8  C   UNL     1       0.777  10.135  19.592  0.00  0.00    +0.000 A 
ENDROOT
BRANCH   7   9
ATOM      9  C   UNL     1      -0.557  12.363  19.721  0.00  0.00    +0.000 C 
ATOM     10  C   UNL     1      -1.871  12.828  20.369  0.00  0.00    +0.000 C 
ATOM     11  C   UNL     1      -3.023  11.967  19.895  0.00  0.00    +0.000 C 
ATOM     12  O   UNL     1      -3.066  11.951  18.453  0.00  0.00    +0.000 OA
ATOM     13  C   UNL     1      -1.908  12.002  17.776  0.00  0.00    +0.000 C 
ATOM     14  N   UNL     1      -2.110  11.812  16.456  0.00  0.00    +0.000 N 
ATOM     15  N   UNL     1      -0.748  12.195  18.271  0.00  0.00    +0.000 NA
ATOM     16  H   UNL     1      -3.040  12.033  16.128  0.00  0.00    +0.000 HD
ATOM     17  H   UNL     1      -1.357  12.157  15.874  0.00  0.00    +0.000 HD
BRANCH  11  18
ATOM     18  C   UNL     1      -4.361  12.459  20.470  0.00  0.00    +0.000 C 
ATOM     19  F   UNL     1      -4.597  13.762  20.196  0.00  0.00    +0.000 F 
ATOM     20  F   UNL     1      -5.416  11.756  19.998  0.00  0.00    +0.000 F 
ATOM     21  F   UNL     1      -4.370  12.331  21.819  0.00  0.00    +0.000 F 
ENDBRANCH  11  18
BRANCH   9  22
ATOM     22  C   UNL     1       0.468  13.524  19.890  0.00  0.00    +0.000 C 
ATOM     23  F   UNL     1       0.904  13.940  18.661  0.00  0.00    +0.000 F 
ENDBRANCH   9  22
ENDBRANCH   7   9
BRANCH   1  26
ATOM     24  C   UNL     1       2.223   6.687  19.665  0.00  0.00    +0.000 C 
ATOM     25  O   UNL     1       1.780   6.103  20.651  0.00  0.00    +0.000 OA
ATOM     26  N   UNL     1       2.014   8.034  19.366  0.00  0.00    +0.000 N 
ATOM     27  H   UNL     1       2.349   8.336  18.454  0.00  0.00    +0.000 HD
BRANCH  24  34
ATOM     28  C   UNL     1       1.414   3.897  18.602  0.00  0.00    +0.000 C 
ATOM     29  C   UNL     1       2.640   4.649  18.162  0.00  0.00    +0.000 A 
ATOM     30  C   UNL     1       3.473   4.042  17.206  0.00  0.00    +0.000 A 
ATOM     31  C   UNL     1       4.623   4.689  16.761  0.00  0.00    +0.000 A 
ATOM     32  C   UNL     1       4.915   5.933  17.294  0.00  0.00    +0.000 A 
ATOM     33  N   UNL     1       4.150   6.566  18.217  0.00  0.00    +0.000 NA
ATOM     34  C   UNL     1       3.025   5.915  18.644  0.00  0.00    +0.000 A 
BRANCH  31  35
ATOM     35  C   UNL     1       5.470   4.097  15.774  0.00  0.00    +0.000 C 
ATOM     36  N   UNL     1       6.158   3.612  14.981  0.00  0.00    +0.000 NA
ENDBRANCH  31  35
ENDBRANCH  24  34
ENDBRANCH   1  26
TORSDOF 6
ENDMDL
