MODEL 1
REMARK VINA RESULT:      -7.6      0.000      0.000
REMARK  Name = 
REMARK  5 active torsions:
REMARK  status: ('A' for Active; 'I' for Inactive)
REMARK    1  A    between atoms: C_1  and  C_2
REMARK    2  A    between atoms: C_4  and  C_5
REMARK    3  A    between atoms: C_12  and  C_13
REMARK    4  A    between atoms: N_22  and  C_23
REMARK    5  A    between atoms: C_23  and  C_24
REMARK                            x       y       z     vdW  Elec       q    Type
REMARK                         _______ _______ _______ _____ _____    ______ ____
ROOT
ATOM      1  C   UNL     1      -6.101  12.696  19.891  0.00  0.00    +0.000 C 
ATOM      2  C   UNL     1      -4.717  12.592  20.479  0.00  0.00    +0.000 A 
ATOM      3  C   UNL     1      -4.464  12.915  21.872  0.00  0.00    +0.000 A 
ATOM      4  C   UNL     1      -5.403  13.166  22.940  0.00  0.00    +0.000 A 
ATOM      5  N   UNL     1      -5.076  13.519  24.228  0.00  0.00    +0.000 NA
ATOM      6  C   UNL     1      -3.781  13.572  24.529  0.00  0.00    +0.000 A 
ATOM      7  C   UNL     1      -2.793  13.359  23.594  0.00  0.00    +0.000 A 
ATOM      8  C   UNL     1      -3.102  13.067  22.249  0.00  0.00    +0.000 A 
ATOM      9  C   UNL     1      -2.037  12.957  21.298  0.00  0.00    +0.000 A 
ATOM     10  C   UNL     1      -0.675  13.523  21.628  0.00  0.00    +0.000 C 
ATOM     11  C   UNL     1      -2.321  12.371  20.042  0.00  0.00    +0.000 A 
ATOM     12  C   UNL     1      -3.642  12.187  19.622  0.00  0.00    +0.000 A 
ATOM     13  C   UNL     1      -3.596  11.650  18.281  0.00  0.00    +0.000 A 
ATOM     14  C   UNL     1      -4.575  11.238  17.345  0.00  0.00    +0.000 A 
ATOM     15  C   UNL     1      -4.203  10.801  16.070  0.00  0.00    +0.000 A 
ATOM     16  C   UNL     1      -2.863  10.738  15.717  0.00  0.00    +0.000 A 
ATOM     17  C   UNL     1      -1.870  11.087  16.633  0.00  0.00    +0.000 A 
ATOM     18  C   UNL     1      -2.259  11.540  17.911  0.00  0.00    +0.000 A 
ATOM     19  N   UNL     1      -1.502  11.921  19.007  0.00  0.00    +0.000 N 
ENDROOT
BRANCH   4  20
ATOM     20  C   UNL     1      -6.910  13.053  22.841  0.00  0.00    +0.000 C 
ATOM     21  N   UNL     1      -7.394  11.774  22.998  0.00  0.00    +0.000 N 
ATOM     22  O   UNL     1      -7.674  13.970  22.570  0.00  0.00    +0.000 OA
ATOM     23  H   UNL     1      -6.727  11.014  22.900  0.00  0.00    +0.000 HD
ATOM     24  H   UNL     1      -8.359  11.607  22.753  0.00  0.00    +0.000 HD
ENDBRANCH   4  20
BRANCH  19  25
ATOM     25  C   UNL     1      -0.055  11.667  19.075  0.00  0.00    +0.000 C 
BRANCH  25  26
ATOM     26  C   UNL     1       0.350  10.340  19.686  0.00  0.00    +0.000 A 
ATOM     27  C   UNL     1      -0.125   9.878  20.922  0.00  0.00    +0.000 A 
ATOM     28  C   UNL     1       0.336   8.675  21.462  0.00  0.00    +0.000 A 
ATOM     29  C   UNL     1       1.266   7.903  20.770  0.00  0.00    +0.000 A 
ATOM     30  C   UNL     1       1.718   8.322  19.522  0.00  0.00    +0.000 A 
ATOM     31  C   UNL     1       1.260   9.527  18.981  0.00  0.00    +0.000 A 
ENDBRANCH  25  26
ENDBRANCH  19  25
TORSDOF 3
ENDMDL
MODEL 2
REMARK VINA RESULT:      -7.4      0.658      1.108
REMARK  Name = 
REMARK  5 active torsions:
REMARK  status: ('A' for Active; 'I' for Inactive)
REMARK    1  A    between atoms: C_1  and  C_2
REMARK    2  A    between atoms: C_4  and  C_5
REMARK    3  A    between atoms: C_12  and  C_13
REMARK    4  A    between atoms: N_22  and  C_23
REMARK    5  A    between atoms: C_23  and  C_24
REMARK                            x       y       z     vdW  Elec       q    Type
REMARK                         _______ _______ _______ _____ _____    ______ ____
ROOT
ATOM      1  C   UNL     1      -6.281  12.378  19.805  0.00  0.00    +0.000 C 
ATOM      2  C   UNL     1      -4.904  12.380  20.421  0.00  0.00    +0.000 A 
ATOM      3  C   UNL     1      -4.706  12.698  21.824  0.00  0.00    +0.000 A 
ATOM      4  C   UNL     1      -5.685  12.851  22.877  0.00  0.00    +0.000 A 
ATOM      5  N   UNL     1      -5.413  13.206  24.177  0.00  0.00    +0.000 NA
ATOM      6  C   UNL     1      -4.134  13.362  24.505  0.00  0.00    +0.000 A 
ATOM      7  C   UNL     1      -3.113  13.248  23.589  0.00  0.00    +0.000 A 
ATOM      8  C   UNL     1      -3.369  12.955  22.233  0.00  0.00    +0.000 A 
ATOM      9  C   UNL     1      -2.281  12.950  21.303  0.00  0.00    +0.000 A 
ATOM     10  C   UNL     1      -0.977  13.621  21.670  0.00  0.00    +0.000 C 
ATOM     11  C   UNL     1      -2.490  12.365  20.032  0.00  0.00    +0.000 A 
ATOM     12  C   UNL     1      -3.782  12.080  19.581  0.00  0.00    +0.000 A 
ATOM     13  C   UNL     1      -3.665  11.572  18.233  0.00  0.00    +0.000 A 
ATOM     14  C   UNL     1      -4.588  11.097  17.270  0.00  0.00    +0.000 A 
ATOM     15  C   UNL     1      -4.155  10.715  15.996  0.00  0.00    +0.000 A 
ATOM     16  C   UNL     1      -2.809  10.770  15.670  0.00  0.00    +0.000 A 
ATOM     17  C   UNL     1      -1.866  11.183  16.613  0.00  0.00    +0.000 A 
ATOM     18  C   UNL     1      -2.317  11.579  17.889  0.00  0.00    +0.000 A 
ATOM     19  N   UNL     1      -1.616  12.003  19.007  0.00  0.00    +0.000 N 
ENDROOT
BRANCH   4  20
ATOM     20  C   UNL     1      -7.175  12.615  22.744  0.00  0.00    +0.000 C 
ATOM     21  N   UNL     1      -7.917  13.763  22.581  0.00  0.00    +0.000 N 
ATOM     22  O   UNL     1      -7.733  11.531  22.843  0.00  0.00    +0.000 OA
ATOM     23  H   UNL     1      -7.467  14.641  22.823  0.00  0.00    +0.000 HD
ATOM     24  H   UNL     1      -8.919  13.689  22.681  0.00  0.00    +0.000 HD
ENDBRANCH   4  20
BRANCH  19  25
ATOM     25  C   UNL     1      -0.155  11.868  19.103  0.00  0.00    +0.000 C 
BRANCH  25  26
ATOM     26  C   UNL     1       0.348  10.556  19.672  0.00  0.00    +0.000 A 
ATOM     27  C   UNL     1       1.171   9.669  18.964  0.00  0.00    +0.000 A 
ATOM     28  C   UNL     1       1.550   8.445  19.519  0.00  0.00    +0.000 A 
ATOM     29  C   UNL     1       1.129   8.092  20.799  0.00  0.00    +0.000 A 
ATOM     30  C   UNL     1       0.347   8.977  21.536  0.00  0.00    +0.000 A 
ATOM     31  C   UNL     1      -0.035  10.202  20.981  0.00  0.00    +0.000 A 
ENDBRANCH  25  26
ENDBRANCH  19  25
TORSDOF 3
ENDMDL
MODEL 3
REMARK VINA RESULT:      -7.3      0.995      1.438
REMARK  Name = 
REMARK  5 active torsions:
REMARK  status: ('A' for Active; 'I' for Inactive)
REMARK    1  A    between atoms: C_1  and  C_2
REMARK    2  A    between atoms: C_4  and  C_5
REMARK    3  A    between atoms: C_12  and  C_13
REMARK    4  A    between atoms: N_22  and  C_23
REMARK    5  A    between atoms: C_23  and  C_24
REMARK                            x       y       z     vdW  Elec       q    Type
REMARK                         _______ _______ _______ _____ _____    ______ ____
ROOT
ATOM      1  C   UNL     1      -5.457  12.962  20.775  0.00  0.00    +0.000 C 
ATOM      2  C   UNL     1      -3.973  12.964  21.042  0.00  0.00    +0.000 A 
ATOM      3  C   UNL     1      -3.434  13.445  22.302  0.00  0.00    +0.000 A 
ATOM      4  C   UNL     1      -4.125  13.783  23.525  0.00  0.00    +0.000 A 
ATOM      5  N   UNL     1      -3.539  14.284  24.664  0.00  0.00    +0.000 NA
ATOM      6  C   UNL     1      -2.215  14.408  24.657  0.00  0.00    +0.000 A 
ATOM      7  C   UNL     1      -1.449  14.123  23.549  0.00  0.00    +0.000 A 
ATOM      8  C   UNL     1      -2.032  13.677  22.344  0.00  0.00    +0.000 A 
ATOM      9  C   UNL     1      -1.201  13.494  21.193  0.00  0.00    +0.000 A 
ATOM     10  C   UNL     1       0.169  14.131  21.148  0.00  0.00    +0.000 C 
ATOM     11  C   UNL     1      -1.725  12.766  20.100  0.00  0.00    +0.000 A 
ATOM     12  C   UNL     1      -3.095  12.499  20.009  0.00  0.00    +0.000 A 
ATOM     13  C   UNL     1      -3.319  11.820  18.754  0.00  0.00    +0.000 A 
ATOM     14  C   UNL     1      -4.458  11.280  18.109  0.00  0.00    +0.000 A 
ATOM     15  C   UNL     1      -4.355  10.717  16.833  0.00  0.00    +0.000 A 
ATOM     16  C   UNL     1      -3.126  10.655  16.194  0.00  0.00    +0.000 A 
ATOM     17  C   UNL     1      -1.974  11.131  16.823  0.00  0.00    +0.000 A 
ATOM     18  C   UNL     1      -2.093  11.708  18.103  0.00  0.00    +0.000 A 
ATOM     19  N   UNL     1      -1.133  12.230  18.956  0.00  0.00    +0.000 N 
ENDROOT
BRANCH   4  20
ATOM     20  C   UNL     1      -5.609  13.617  23.781  0.00  0.00    +0.000 C 
ATOM     21  N   UNL     1      -5.978  12.348  24.164  0.00  0.00    +0.000 N 
ATOM     22  O   UNL     1      -6.460  14.478  23.604  0.00  0.00    +0.000 OA
ATOM     23  H   UNL     1      -5.311  11.601  23.989  0.00  0.00    +0.000 HD
ATOM     24  H   UNL     1      -6.963  12.128  24.160  0.00  0.00    +0.000 HD
ENDBRANCH   4  20
BRANCH  19  25
ATOM     25  C   UNL     1       0.304  12.026  18.721  0.00  0.00    +0.000 C 
BRANCH  25  26
ATOM     26  C   UNL     1       0.841  10.654  19.079  0.00  0.00    +0.000 A 
ATOM     27  C   UNL     1       1.507   9.822  18.169  0.00  0.00    +0.000 A 
ATOM     28  C   UNL     1       1.923   8.541  18.541  0.00  0.00    +0.000 A 
ATOM     29  C   UNL     1       1.696   8.075  19.834  0.00  0.00    +0.000 A 
ATOM     30  C   UNL     1       1.074   8.903  20.766  0.00  0.00    +0.000 A 
ATOM     31  C   UNL     1       0.655  10.183  20.394  0.00  0.00    +0.000 A 
ENDBRANCH  25  26
ENDBRANCH  19  25
TORSDOF 3
ENDMDL
MODEL 4
REMARK VINA RESULT:      -7.2      4.715      8.191
REMARK  Name = 
REMARK  5 active torsions:
REMARK  status: ('A' for Active; 'I' for Inactive)
REMARK    1  A    between atoms: C_1  and  C_2
REMARK    2  A    between atoms: C_4  and  C_5
REMARK    3  A    between atoms: C_12  and  C_13
REMARK    4  A    between atoms: N_22  and  C_23
REMARK    5  A    between atoms: C_23  and  C_24
REMARK                            x       y       z     vdW  Elec       q    Type
REMARK                         _______ _______ _______ _____ _____    ______ ____
ROOT
ATOM      1  C   UNL     1       0.239   7.449  21.614  0.00  0.00    +0.000 C 
ATOM      2  C   UNL     1       1.223   7.760  20.514  0.00  0.00    +0.000 A 
ATOM      3  C   UNL     1       1.351   9.101  19.973  0.00  0.00    +0.000 A 
ATOM      4  C   UNL     1       0.792  10.342  20.457  0.00  0.00    +0.000 A 
ATOM      5  N   UNL     1       0.922  11.569  19.851  0.00  0.00    +0.000 NA
ATOM      6  C   UNL     1       1.679  11.626  18.759  0.00  0.00    +0.000 A 
ATOM      7  C   UNL     1       2.259  10.510  18.199  0.00  0.00    +0.000 A 
ATOM      8  C   UNL     1       2.082   9.228  18.760  0.00  0.00    +0.000 A 
ATOM      9  C   UNL     1       2.622   8.089  18.081  0.00  0.00    +0.000 A 
ATOM     10  C   UNL     1       3.015   8.201  16.625  0.00  0.00    +0.000 C 
ATOM     11  C   UNL     1       2.709   6.868  18.789  0.00  0.00    +0.000 A 
ATOM     12  C   UNL     1       2.020   6.688  19.992  0.00  0.00    +0.000 A 
ATOM     13  C   UNL     1       2.245   5.326  20.418  0.00  0.00    +0.000 A 
ATOM     14  C   UNL     1       1.847   4.560  21.540  0.00  0.00    +0.000 A 
ATOM     15  C   UNL     1       2.191   3.209  21.640  0.00  0.00    +0.000 A 
ATOM     16  C   UNL     1       2.954   2.608  20.651  0.00  0.00    +0.000 A 
ATOM     17  C   UNL     1       3.408   3.347  19.556  0.00  0.00    +0.000 A 
ATOM     18  C   UNL     1       3.042   4.705  19.461  0.00  0.00    +0.000 A 
ATOM     19  N   UNL     1       3.364   5.666  18.515  0.00  0.00    +0.000 N 
ENDROOT
BRANCH   4  20
ATOM     20  C   UNL     1      -0.006  10.518  21.733  0.00  0.00    +0.000 C 
ATOM     21  N   UNL     1      -1.267  11.035  21.544  0.00  0.00    +0.000 N 
ATOM     22  O   UNL     1       0.411  10.310  22.864  0.00  0.00    +0.000 OA
ATOM     23  H   UNL     1      -1.452  11.486  20.653  0.00  0.00    +0.000 HD
ATOM     24  H   UNL     1      -1.768  11.352  22.361  0.00  0.00    +0.000 HD
ENDBRANCH   4  20
BRANCH  19  25
ATOM     25  C   UNL     1       4.414   5.444  17.512  0.00  0.00    +0.000 C 
BRANCH  25  26
ATOM     26  C   UNL     1       5.797   5.941  17.886  0.00  0.00    +0.000 A 
ATOM     27  C   UNL     1       6.572   5.376  18.908  0.00  0.00    +0.000 A 
ATOM     28  C   UNL     1       7.813   5.919  19.249  0.00  0.00    +0.000 A 
ATOM     29  C   UNL     1       8.310   7.025  18.564  0.00  0.00    +0.000 A 
ATOM     30  C   UNL     1       7.575   7.574  17.516  0.00  0.00    +0.000 A 
ATOM     31  C   UNL     1       6.332   7.034  17.176  0.00  0.00    +0.000 A 
ENDBRANCH  25  26
ENDBRANCH  19  25
TORSDOF 3
ENDMDL
MODEL 5
REMARK VINA RESULT:      -7.0      2.519      5.622
REMARK  Name = 
REMARK  5 active torsions:
REMARK  status: ('A' for Active; 'I' for Inactive)
REMARK    1  A    between atoms: C_1  and  C_2
REMARK    2  A    between atoms: C_4  and  C_5
REMARK    3  A    between atoms: C_12  and  C_13
REMARK    4  A    between atoms: N_22  and  C_23
REMARK    5  A    between atoms: C_23  and  C_24
REMARK                            x       y       z     vdW  Elec       q    Type
REMARK                         _______ _______ _______ _____ _____    ______ ____
ROOT
ATOM      1  C   UNL     1      -5.327  12.678  20.335  0.00  0.00    +0.000 C 
ATOM      2  C   UNL     1      -3.954  12.425  19.767  0.00  0.00    +0.000 A 
ATOM      3  C   UNL     1      -3.779  11.829  18.454  0.00  0.00    +0.000 A 
ATOM      4  C   UNL     1      -4.760  11.578  17.423  0.00  0.00    +0.000 A 
ATOM      5  N   UNL     1      -4.516  10.958  16.221  0.00  0.00    +0.000 NA
ATOM      6  C   UNL     1      -3.257  10.618  15.961  0.00  0.00    +0.000 A 
ATOM      7  C   UNL     1      -2.237  10.802  16.866  0.00  0.00    +0.000 A 
ATOM      8  C   UNL     1      -2.472  11.369  18.136  0.00  0.00    +0.000 A 
ATOM      9  C   UNL     1      -1.395  11.442  19.077  0.00  0.00    +0.000 A 
ATOM     10  C   UNL     1      -0.164  10.589  18.876  0.00  0.00    +0.000 C 
ATOM     11  C   UNL     1      -1.554  12.274  20.210  0.00  0.00    +0.000 A 
ATOM     12  C   UNL     1      -2.813  12.766  20.566  0.00  0.00    +0.000 A 
ATOM     13  C   UNL     1      -2.655  13.505  21.797  0.00  0.00    +0.000 A 
ATOM     14  C   UNL     1      -3.531  14.242  22.630  0.00  0.00    +0.000 A 
ATOM     15  C   UNL     1      -3.072  14.813  23.821  0.00  0.00    +0.000 A 
ATOM     16  C   UNL     1      -1.740  14.688  24.186  0.00  0.00    +0.000 A 
ATOM     17  C   UNL     1      -0.838  14.013  23.362  0.00  0.00    +0.000 A 
ATOM     18  C   UNL     1      -1.317  13.429  22.172  0.00  0.00    +0.000 A 
ATOM     19  N   UNL     1      -0.654  12.735  21.171  0.00  0.00    +0.000 N 
ENDROOT
BRANCH   4  20
ATOM     20  C   UNL     1      -6.219  11.979  17.471  0.00  0.00    +0.000 C 
ATOM     21  N   UNL     1      -7.055  11.017  17.990  0.00  0.00    +0.000 N 
ATOM     22  O   UNL     1      -6.682  13.022  17.028  0.00  0.00    +0.000 OA
ATOM     23  H   UNL     1      -6.691  10.070  18.043  0.00  0.00    +0.000 HD
ATOM     24  H   UNL     1      -8.049  11.148  17.870  0.00  0.00    +0.000 HD
ENDBRANCH   4  20
BRANCH  19  25
ATOM     25  C   UNL     1       0.813  12.706  21.091  0.00  0.00    +0.000 C 
BRANCH  25  26
ATOM     26  C   UNL     1       1.439  13.689  20.122  0.00  0.00    +0.000 A 
ATOM     27  C   UNL     1       1.079  15.042  20.050  0.00  0.00    +0.000 A 
ATOM     28  C   UNL     1       1.646  15.885  19.092  0.00  0.00    +0.000 A 
ATOM     29  C   UNL     1       2.596  15.395  18.198  0.00  0.00    +0.000 A 
ATOM     30  C   UNL     1       2.999  14.065  18.280  0.00  0.00    +0.000 A 
ATOM     31  C   UNL     1       2.430  13.220  19.237  0.00  0.00    +0.000 A 
ENDBRANCH  25  26
ENDBRANCH  19  25
TORSDOF 3
ENDMDL
MODEL 6
REMARK VINA RESULT:      -7.0      1.431      2.514
REMARK  Name = 
REMARK  5 active torsions:
REMARK  status: ('A' for Active; 'I' for Inactive)
REMARK    1  A    between atoms: C_1  and  C_2
REMARK    2  A    between atoms: C_4  and  C_5
REMARK    3  A    between atoms: C_12  and  C_13
REMARK    4  A    between atoms: N_22  and  C_23
REMARK    5  A    between atoms: C_23  and  C_24
REMARK                            x       y       z     vdW  Elec       q    Type
REMARK                         _______ _______ _______ _____ _____    ______ ____
ROOT
ATOM      1  C   UNL     1      -6.250  12.695  19.835  0.00  0.00    +0.000 C 
ATOM      2  C   UNL     1      -4.910  12.471  20.490  0.00  0.00    +0.000 A 
ATOM      3  C   UNL     1      -4.729  12.656  21.919  0.00  0.00    +0.000 A 
ATOM      4  C   UNL     1      -5.721  12.857  22.950  0.00  0.00    +0.000 A 
ATOM      5  N   UNL     1      -5.458  13.077  24.282  0.00  0.00    +0.000 NA
ATOM      6  C   UNL     1      -4.184  13.040  24.660  0.00  0.00    +0.000 A 
ATOM      7  C   UNL     1      -3.150  12.862  23.768  0.00  0.00    +0.000 A 
ATOM      8  C   UNL     1      -3.388  12.706  22.386  0.00  0.00    +0.000 A 
ATOM      9  C   UNL     1      -2.272  12.628  21.492  0.00  0.00    +0.000 A 
ATOM     10  C   UNL     1      -0.909  13.094  21.950  0.00  0.00    +0.000 C 
ATOM     11  C   UNL     1      -2.504  12.171  20.174  0.00  0.00    +0.000 A 
ATOM     12  C   UNL     1      -3.803  12.090  19.662  0.00  0.00    +0.000 A 
ATOM     13  C   UNL     1      -3.698  11.673  18.284  0.00  0.00    +0.000 A 
ATOM     14  C   UNL     1      -4.634  11.395  17.258  0.00  0.00    +0.000 A 
ATOM     15  C   UNL     1      -4.204  11.055  15.972  0.00  0.00    +0.000 A 
ATOM     16  C   UNL     1      -2.849  10.958  15.692  0.00  0.00    +0.000 A 
ATOM     17  C   UNL     1      -1.900  11.174  16.693  0.00  0.00    +0.000 A 
ATOM     18  C   UNL     1      -2.347  11.530  17.982  0.00  0.00    +0.000 A 
ATOM     19  N   UNL     1      -1.643  11.775  19.150  0.00  0.00    +0.000 N 
ENDROOT
BRANCH   4  20
ATOM     20  C   UNL     1      -7.223  12.828  22.755  0.00  0.00    +0.000 C 
ATOM     21  N   UNL     1      -7.784  11.576  22.861  0.00  0.00    +0.000 N 
ATOM     22  O   UNL     1      -7.916  13.789  22.449  0.00  0.00    +0.000 OA
ATOM     23  H   UNL     1      -7.154  10.781  22.793  0.00  0.00    +0.000 HD
ATOM     24  H   UNL     1      -8.739  11.465  22.553  0.00  0.00    +0.000 HD
ENDBRANCH   4  20
BRANCH  19  25
ATOM     25  C   UNL     1      -0.216  11.443  19.278  0.00  0.00    +0.000 C 
BRANCH  25  26
ATOM     26  C   UNL     1       0.752  12.547  18.900  0.00  0.00    +0.000 A 
ATOM     27  C   UNL     1       2.079  12.315  18.512  0.00  0.00    +0.000 A 
ATOM     28  C   UNL     1       2.942  13.377  18.237  0.00  0.00    +0.000 A 
ATOM     29  C   UNL     1       2.490  14.692  18.328  0.00  0.00    +0.000 A 
ATOM     30  C   UNL     1       1.164  14.944  18.670  0.00  0.00    +0.000 A 
ATOM     31  C   UNL     1       0.301  13.881  18.948  0.00  0.00    +0.000 A 
ENDBRANCH  25  26
ENDBRANCH  19  25
TORSDOF 3
ENDMDL
MODEL 7
REMARK VINA RESULT:      -6.7      1.657      4.141
REMARK  Name = 
REMARK  5 active torsions:
REMARK  status: ('A' for Active; 'I' for Inactive)
REMARK    1  A    between atoms: C_1  and  C_2
REMARK    2  A    between atoms: C_4  and  C_5
REMARK    3  A    between atoms: C_12  and  C_13
REMARK    4  A    between atoms: N_22  and  C_23
REMARK    5  A    between atoms: C_23  and  C_24
REMARK                            x       y       z     vdW  Elec       q    Type
REMARK                         _______ _______ _______ _____ _____    ______ ____
ROOT
ATOM      1  C   UNL     1      -4.534  13.974  21.890  0.00  0.00    +0.000 C 
ATOM      2  C   UNL     1      -4.068  13.235  20.661  0.00  0.00    +0.000 A 
ATOM      3  C   UNL     1      -5.015  12.635  19.738  0.00  0.00    +0.000 A 
ATOM      4  C   UNL     1      -6.451  12.781  19.674  0.00  0.00    +0.000 A 
ATOM      5  N   UNL     1      -7.283  12.131  18.793  0.00  0.00    +0.000 NA
ATOM      6  C   UNL     1      -6.708  11.350  17.883  0.00  0.00    +0.000 A 
ATOM      7  C   UNL     1      -5.350  11.128  17.848  0.00  0.00    +0.000 A 
ATOM      8  C   UNL     1      -4.481  11.725  18.786  0.00  0.00    +0.000 A 
ATOM      9  C   UNL     1      -3.092  11.379  18.766  0.00  0.00    +0.000 A 
ATOM     10  C   UNL     1      -2.638  10.132  18.044  0.00  0.00    +0.000 C 
ATOM     11  C   UNL     1      -2.190  12.195  19.490  0.00  0.00    +0.000 A 
ATOM     12  C   UNL     1      -2.658  13.116  20.433  0.00  0.00    +0.000 A 
ATOM     13  C   UNL     1      -1.502  13.726  21.048  0.00  0.00    +0.000 A 
ATOM     14  C   UNL     1      -1.316  14.725  22.035  0.00  0.00    +0.000 A 
ATOM     15  C   UNL     1      -0.032  15.068  22.470  0.00  0.00    +0.000 A 
ATOM     16  C   UNL     1       1.080  14.451  21.917  0.00  0.00    +0.000 A 
ATOM     17  C   UNL     1       0.935  13.499  20.906  0.00  0.00    +0.000 A 
ATOM     18  C   UNL     1      -0.365  13.152  20.486  0.00  0.00    +0.000 A 
ATOM     19  N   UNL     1      -0.798  12.275  19.504  0.00  0.00    +0.000 N 
ENDROOT
BRANCH   4  20
ATOM     20  C   UNL     1      -7.289  13.697  20.541  0.00  0.00    +0.000 C 
ATOM     21  N   UNL     1      -7.909  13.067  21.596  0.00  0.00    +0.000 N 
ATOM     22  O   UNL     1      -7.497  14.883  20.326  0.00  0.00    +0.000 OA
ATOM     23  H   UNL     1      -7.974  12.054  21.554  0.00  0.00    +0.000 HD
ATOM     24  H   UNL     1      -8.626  13.578  22.089  0.00  0.00    +0.000 HD
ENDBRANCH   4  20
BRANCH  19  25
ATOM     25  C   UNL     1       0.128  11.702  18.516  0.00  0.00    +0.000 C 
BRANCH  25  26
ATOM     26  C   UNL     1       0.739  10.365  18.886  0.00  0.00    +0.000 A 
ATOM     27  C   UNL     1       0.618   9.782  20.155  0.00  0.00    +0.000 A 
ATOM     28  C   UNL     1       1.258   8.578  20.455  0.00  0.00    +0.000 A 
ATOM     29  C   UNL     1       2.016   7.923  19.486  0.00  0.00    +0.000 A 
ATOM     30  C   UNL     1       2.113   8.463  18.206  0.00  0.00    +0.000 A 
ATOM     31  C   UNL     1       1.475   9.670  17.906  0.00  0.00    +0.000 A 
ENDBRANCH  25  26
ENDBRANCH  19  25
TORSDOF 3
ENDMDL
MODEL 8
REMARK VINA RESULT:      -6.7      1.650      4.279
REMARK  Name = 
REMARK  5 active torsions:
REMARK  status: ('A' for Active; 'I' for Inactive)
REMARK    1  A    between atoms: C_1  and  C_2
REMARK    2  A    between atoms: C_4  and  C_5
REMARK    3  A    between atoms: C_12  and  C_13
REMARK    4  A    between atoms: N_22  and  C_23
REMARK    5  A    between atoms: C_23  and  C_24
REMARK                            x       y       z     vdW  Elec       q    Type
REMARK                         _______ _______ _______ _____ _____    ______ ____
ROOT
ATOM      1  C   UNL     1      -4.007  14.044  21.742  0.00  0.00    +0.000 C 
ATOM      2  C   UNL     1      -3.580  13.262  20.527  0.00  0.00    +0.000 A 
ATOM      3  C   UNL     1      -4.556  12.653  19.640  0.00  0.00    +0.000 A 
ATOM      4  C   UNL     1      -5.990  12.824  19.600  0.00  0.00    +0.000 A 
ATOM      5  N   UNL     1      -6.851  12.165  18.755  0.00  0.00    +0.000 NA
ATOM      6  C   UNL     1      -6.309  11.347  17.857  0.00  0.00    +0.000 A 
ATOM      7  C   UNL     1      -4.956  11.099  17.802  0.00  0.00    +0.000 A 
ATOM      8  C   UNL     1      -4.057  11.706  18.705  0.00  0.00    +0.000 A 
ATOM      9  C   UNL     1      -2.675  11.334  18.669  0.00  0.00    +0.000 A 
ATOM     10  C   UNL     1      -2.260  10.057  17.974  0.00  0.00    +0.000 C 
ATOM     11  C   UNL     1      -1.745  12.153  19.350  0.00  0.00    +0.000 A 
ATOM     12  C   UNL     1      -2.177  13.109  20.274  0.00  0.00    +0.000 A 
ATOM     13  C   UNL     1      -0.998  13.715  20.849  0.00  0.00    +0.000 A 
ATOM     14  C   UNL     1      -0.774  14.738  21.802  0.00  0.00    +0.000 A 
ATOM     15  C   UNL     1       0.524  15.069  22.202  0.00  0.00    +0.000 A 
ATOM     16  C   UNL     1       1.613  14.416  21.646  0.00  0.00    +0.000 A 
ATOM     17  C   UNL     1       1.431  13.438  20.666  0.00  0.00    +0.000 A 
ATOM     18  C   UNL     1       0.116  13.104  20.282  0.00  0.00    +0.000 A 
ATOM     19  N   UNL     1      -0.351  12.207  19.335  0.00  0.00    +0.000 N 
ENDROOT
BRANCH   4  20
ATOM     20  C   UNL     1      -6.794  13.781  20.456  0.00  0.00    +0.000 C 
ATOM     21  N   UNL     1      -7.460  13.182  21.500  0.00  0.00    +0.000 N 
ATOM     22  O   UNL     1      -6.937  14.976  20.239  0.00  0.00    +0.000 OA
ATOM     23  H   UNL     1      -7.577  12.173  21.455  0.00  0.00    +0.000 HD
ATOM     24  H   UNL     1      -8.159  13.728  21.983  0.00  0.00    +0.000 HD
ENDBRANCH   4  20
BRANCH  19  25
ATOM     25  C   UNL     1       0.544  11.588  18.347  0.00  0.00    +0.000 C 
BRANCH  25  26
ATOM     26  C   UNL     1       1.119  10.240  18.734  0.00  0.00    +0.000 A 
ATOM     27  C   UNL     1       1.871   9.440  17.862  0.00  0.00    +0.000 A 
ATOM     28  C   UNL     1       2.321   8.177  18.256  0.00  0.00    +0.000 A 
ATOM     29  C   UNL     1       2.042   7.698  19.535  0.00  0.00    +0.000 A 
ATOM     30  C   UNL     1       1.334   8.495  20.430  0.00  0.00    +0.000 A 
ATOM     31  C   UNL     1       0.881   9.758  20.036  0.00  0.00    +0.000 A 
ENDBRANCH  25  26
ENDBRANCH  19  25
TORSDOF 3
ENDMDL
MODEL 9
REMARK VINA RESULT:      -6.6      2.582      5.909
REMARK  Name = 
REMARK  5 active torsions:
REMARK  status: ('A' for Active; 'I' for Inactive)
REMARK    1  A    between atoms: C_1  and  C_2
REMARK    2  A    between atoms: C_4  and  C_5
REMARK    3  A    between atoms: C_12  and  C_13
REMARK    4  A    between atoms: N_22  and  C_23
REMARK    5  A    between atoms: C_23  and  C_24
REMARK                            x       y       z     vdW  Elec       q    Type
REMARK                         _______ _______ _______ _____ _____    ______ ____
ROOT
ATOM      1  C   UNL     1      -5.473  12.464  20.553  0.00  0.00    +0.000 C 
ATOM      2  C   UNL     1      -4.080  12.421  19.978  0.00  0.00    +0.000 A 
ATOM      3  C   UNL     1      -3.832  11.920  18.637  0.00  0.00    +0.000 A 
ATOM      4  C   UNL     1      -4.774  11.595  17.592  0.00  0.00    +0.000 A 
ATOM      5  N   UNL     1      -4.455  11.074  16.360  0.00  0.00    +0.000 NA
ATOM      6  C   UNL     1      -3.163  10.914  16.088  0.00  0.00    +0.000 A 
ATOM      7  C   UNL     1      -2.173  11.184  17.006  0.00  0.00    +0.000 A 
ATOM      8  C   UNL     1      -2.477  11.651  18.302  0.00  0.00    +0.000 A 
ATOM      9  C   UNL     1      -1.416  11.817  19.250  0.00  0.00    +0.000 A 
ATOM     10  C   UNL     1      -0.085  11.143  19.011  0.00  0.00    +0.000 C 
ATOM     11  C   UNL     1      -1.679  12.563  20.422  0.00  0.00    +0.000 A 
ATOM     12  C   UNL     1      -2.991  12.868  20.797  0.00  0.00    +0.000 A 
ATOM     13  C   UNL     1      -2.928  13.558  22.065  0.00  0.00    +0.000 A 
ATOM     14  C   UNL     1      -3.890  14.131  22.930  0.00  0.00    +0.000 A 
ATOM     15  C   UNL     1      -3.506  14.697  24.150  0.00  0.00    +0.000 A 
ATOM     16  C   UNL     1      -2.169  14.729  24.514  0.00  0.00    +0.000 A 
ATOM     17  C   UNL     1      -1.188  14.220  23.661  0.00  0.00    +0.000 A 
ATOM     18  C   UNL     1      -1.590  13.640  22.440  0.00  0.00    +0.000 A 
ATOM     19  N   UNL     1      -0.845  13.089  21.409  0.00  0.00    +0.000 N 
ENDROOT
BRANCH   4  20
ATOM     20  C   UNL     1      -6.274  11.800  17.653  0.00  0.00    +0.000 C 
ATOM     21  N   UNL     1      -6.700  13.011  17.159  0.00  0.00    +0.000 N 
ATOM     22  O   UNL     1      -7.075  11.025  18.158  0.00  0.00    +0.000 OA
ATOM     23  H   UNL     1      -5.998  13.739  17.052  0.00  0.00    +0.000 HD
ATOM     24  H   UNL     1      -7.654  13.283  17.348  0.00  0.00    +0.000 HD
ENDBRANCH   4  20
BRANCH  19  25
ATOM     25  C   UNL     1       0.613  13.255  21.334  0.00  0.00    +0.000 C 
BRANCH  25  26
ATOM     26  C   UNL     1       1.097  14.514  20.642  0.00  0.00    +0.000 A 
ATOM     27  C   UNL     1       1.121  14.673  19.249  0.00  0.00    +0.000 A 
ATOM     28  C   UNL     1       1.637  15.833  18.668  0.00  0.00    +0.000 A 
ATOM     29  C   UNL     1       2.124  16.864  19.469  0.00  0.00    +0.000 A 
ATOM     30  C   UNL     1       2.070  16.745  20.855  0.00  0.00    +0.000 A 
ATOM     31  C   UNL     1       1.555  15.583  21.437  0.00  0.00    +0.000 A 
ENDBRANCH  25  26
ENDBRANCH  19  25
TORSDOF 3
ENDMDL
