MODEL 1
REMARK VINA RESULT:      -8.2      0.000      0.000
REMARK  Name = 
REMARK  9 active torsions:
REMARK  status: ('A' for Active; 'I' for Inactive)
REMARK    1  A    between atoms: C_1  and  C_2
REMARK    2  A    between atoms: C_5  and  O_6
REMARK    3  A    between atoms: O_6  and  C_7
REMARK    4  A    between atoms: C_12  and  S_13
REMARK    5  A    between atoms: S_13  and  N_16
REMARK    6  A    between atoms: N_16  and  C_17
REMARK    7  A    between atoms: C_17  and  C_18
REMARK    8  A    between atoms: C_17  and  C_20
REMARK    9  A    between atoms: C_20  and  O_22
REMARK                            x       y       z     vdW  Elec       q    Type
REMARK                         _______ _______ _______ _____ _____    ______ ____
ROOT
ATOM      1  C   UNL     1       2.440   4.774  19.548  0.00  0.00    +0.000 A 
ATOM      2  C   UNL     1       1.248   4.462  20.231  0.00  0.00    +0.000 A 
ATOM      3  C   UNL     1       0.535   3.296  19.953  0.00  0.00    +0.000 A 
ATOM      4  C   UNL     1       1.014   2.401  19.009  0.00  0.00    +0.000 A 
ATOM      5  C   UNL     1       2.237   2.646  18.390  0.00  0.00    +0.000 A 
ATOM      6  C   UNL     1       2.971   3.815  18.676  0.00  0.00    +0.000 A 
ENDROOT
BRANCH   6   7
ATOM      7  S   UNL     1       4.664   3.830  18.137  0.00  0.00    +0.000 S 
ATOM      8  O   UNL     1       5.489   3.518  19.285  0.00  0.00    +0.000 OA
ATOM      9  O   UNL     1       4.734   3.041  16.927  0.00  0.00    +0.000 OA
BRANCH   7  10
ATOM     10  N   UNL     1       5.052   5.414  17.723  0.00  0.00    +0.000 NA
ATOM     11  H   UNL     1       4.477   6.030  18.307  0.00  0.00    +0.000 HD
BRANCH  10  12
ATOM     12  C   UNL     1       6.482   5.816  17.658  0.00  0.00    +0.000 C 
BRANCH  12  13
ATOM     13  C   UNL     1       6.536   7.263  17.262  0.00  0.00    +0.000 C 
ATOM     14  O   UNL     1       7.580   7.904  17.151  0.00  0.00    +0.000 OA
ENDBRANCH  12  13
BRANCH  12  15
ATOM     15  C   UNL     1       7.431   4.867  16.944  0.00  0.00    +0.000 C 
ATOM     16  O   UNL     1       7.462   4.791  15.716  0.00  0.00    +0.000 OA
BRANCH  15  17
ATOM     17  O   UNL     1       8.184   4.043  17.707  0.00  0.00    +0.000 OA
ATOM     18  H   UNL     1       9.118   4.334  17.838  0.00  0.00    +0.000 HD
ENDBRANCH  15  17
ENDBRANCH  12  15
ENDBRANCH  10  12
ENDBRANCH   7  10
ENDBRANCH   6   7
BRANCH   1  19
ATOM     19  O   UNL     1       3.093   5.972  19.758  0.00  0.00    +0.000 OA
BRANCH  19  24
ATOM     20  C   UNL     1       0.272  10.812  18.651  0.00  0.00    +0.000 C 
ATOM     21  C   UNL     1       1.025   9.547  18.954  0.00  0.00    +0.000 A 
ATOM     22  C   UNL     1       1.682   8.831  17.946  0.00  0.00    +0.000 A 
ATOM     23  C   UNL     1       2.364   7.643  18.243  0.00  0.00    +0.000 A 
ATOM     24  C   UNL     1       2.404   7.157  19.551  0.00  0.00    +0.000 A 
ATOM     25  C   UNL     1       1.726   7.858  20.556  0.00  0.00    +0.000 A 
ATOM     26  C   UNL     1       1.068   9.059  20.264  0.00  0.00    +0.000 A 
ENDBRANCH  19  24
ENDBRANCH   1  19
TORSDOF 8
ENDMDL
MODEL 2
REMARK VINA RESULT:      -8.1      1.151      2.062
REMARK  Name = 
REMARK  9 active torsions:
REMARK  status: ('A' for Active; 'I' for Inactive)
REMARK    1  A    between atoms: C_1  and  C_2
REMARK    2  A    between atoms: C_5  and  O_6
REMARK    3  A    between atoms: O_6  and  C_7
REMARK    4  A    between atoms: C_12  and  S_13
REMARK    5  A    between atoms: S_13  and  N_16
REMARK    6  A    between atoms: N_16  and  C_17
REMARK    7  A    between atoms: C_17  and  C_18
REMARK    8  A    between atoms: C_17  and  C_20
REMARK    9  A    between atoms: C_20  and  O_22
REMARK                            x       y       z     vdW  Elec       q    Type
REMARK                         _______ _______ _______ _____ _____    ______ ____
ROOT
ATOM      1  C   UNL     1       2.448   5.068  19.463  0.00  0.00    +0.000 A 
ATOM      2  C   UNL     1       1.485   4.575  20.364  0.00  0.00    +0.000 A 
ATOM      3  C   UNL     1       0.809   3.379  20.123  0.00  0.00    +0.000 A 
ATOM      4  C   UNL     1       1.104   2.634  18.991  0.00  0.00    +0.000 A 
ATOM      5  C   UNL     1       2.118   3.058  18.137  0.00  0.00    +0.000 A 
ATOM      6  C   UNL     1       2.816   4.258  18.381  0.00  0.00    +0.000 A 
ENDROOT
BRANCH   6   7
ATOM      7  S   UNL     1       4.320   4.493  17.464  0.00  0.00    +0.000 S 
ATOM      8  O   UNL     1       4.578   3.271  16.732  0.00  0.00    +0.000 OA
ATOM      9  O   UNL     1       4.212   5.765  16.784  0.00  0.00    +0.000 OA
BRANCH   7  10
ATOM     10  N   UNL     1       5.577   4.626  18.574  0.00  0.00    +0.000 NA
ATOM     11  H   UNL     1       5.736   3.692  18.967  0.00  0.00    +0.000 HD
BRANCH  10  12
ATOM     12  C   UNL     1       6.825   5.325  18.174  0.00  0.00    +0.000 C 
BRANCH  12  13
ATOM     13  C   UNL     1       7.493   4.505  17.108  0.00  0.00    +0.000 C 
ATOM     14  O   UNL     1       7.608   4.865  15.938  0.00  0.00    +0.000 OA
ENDBRANCH  12  13
BRANCH  12  15
ATOM     15  C   UNL     1       7.708   5.853  19.294  0.00  0.00    +0.000 C 
ATOM     16  O   UNL     1       7.719   5.327  20.406  0.00  0.00    +0.000 OA
BRANCH  15  17
ATOM     17  O   UNL     1       8.420   6.976  19.052  0.00  0.00    +0.000 OA
ATOM     18  H   UNL     1       7.946   7.821  19.245  0.00  0.00    +0.000 HD
ENDBRANCH  15  17
ENDBRANCH  12  15
ENDBRANCH  10  12
ENDBRANCH   7  10
ENDBRANCH   6   7
BRANCH   1  19
ATOM     19  O   UNL     1       3.046   6.297  19.656  0.00  0.00    +0.000 OA
BRANCH  19  24
ATOM     20  C   UNL     1       0.010  11.067  18.856  0.00  0.00    +0.000 C 
ATOM     21  C   UNL     1       0.798   9.803  19.055  0.00  0.00    +0.000 A 
ATOM     22  C   UNL     1       0.899   9.197  20.313  0.00  0.00    +0.000 A 
ATOM     23  C   UNL     1       1.654   8.028  20.484  0.00  0.00    +0.000 A 
ATOM     24  C   UNL     1       2.315   7.447  19.400  0.00  0.00    +0.000 A 
ATOM     25  C   UNL     1       2.237   8.066  18.146  0.00  0.00    +0.000 A 
ATOM     26  C   UNL     1       1.460   9.217  17.970  0.00  0.00    +0.000 A 
ENDBRANCH  19  24
ENDBRANCH   1  19
TORSDOF 8
ENDMDL
MODEL 3
REMARK VINA RESULT:      -8.0      0.727      1.451
REMARK  Name = 
REMARK  9 active torsions:
REMARK  status: ('A' for Active; 'I' for Inactive)
REMARK    1  A    between atoms: C_1  and  C_2
REMARK    2  A    between atoms: C_5  and  O_6
REMARK    3  A    between atoms: O_6  and  C_7
REMARK    4  A    between atoms: C_12  and  S_13
REMARK    5  A    between atoms: S_13  and  N_16
REMARK    6  A    between atoms: N_16  and  C_17
REMARK    7  A    between atoms: C_17  and  C_18
REMARK    8  A    between atoms: C_17  and  C_20
REMARK    9  A    between atoms: C_20  and  O_22
REMARK                            x       y       z     vdW  Elec       q    Type
REMARK                         _______ _______ _______ _____ _____    ______ ____
ROOT
ATOM      1  C   UNL     1       2.402   4.698  19.565  0.00  0.00    +0.000 A 
ATOM      2  C   UNL     1       1.159   4.279  20.080  0.00  0.00    +0.000 A 
ATOM      3  C   UNL     1       0.538   3.117  19.625  0.00  0.00    +0.000 A 
ATOM      4  C   UNL     1       1.160   2.330  18.668  0.00  0.00    +0.000 A 
ATOM      5  C   UNL     1       2.430   2.677  18.214  0.00  0.00    +0.000 A 
ATOM      6  C   UNL     1       3.071   3.843  18.680  0.00  0.00    +0.000 A 
ENDROOT
BRANCH   6   7
ATOM      7  S   UNL     1       4.810   3.973  18.338  0.00  0.00    +0.000 S 
ATOM      8  O   UNL     1       5.519   3.440  19.482  0.00  0.00    +0.000 OA
ATOM      9  O   UNL     1       5.025   3.444  17.010  0.00  0.00    +0.000 OA
BRANCH   7  10
ATOM     10  N   UNL     1       5.198   5.609  18.293  0.00  0.00    +0.000 NA
ATOM     11  H   UNL     1       4.820   6.036  19.145  0.00  0.00    +0.000 HD
BRANCH  10  12
ATOM     12  C   UNL     1       6.597   6.013  17.993  0.00  0.00    +0.000 C 
BRANCH  12  13
ATOM     13  C   UNL     1       6.659   6.423  16.550  0.00  0.00    +0.000 C 
ATOM     14  O   UNL     1       7.366   5.868  15.710  0.00  0.00    +0.000 OA
ENDBRANCH  12  13
BRANCH  12  15
ATOM     15  C   UNL     1       7.701   5.099  18.500  0.00  0.00    +0.000 C 
ATOM     16  O   UNL     1       8.254   5.298  19.581  0.00  0.00    +0.000 OA
BRANCH  15  17
ATOM     17  O   UNL     1       8.115   4.106  17.682  0.00  0.00    +0.000 OA
ATOM     18  H   UNL     1       8.358   4.391  16.769  0.00  0.00    +0.000 HD
ENDBRANCH  15  17
ENDBRANCH  12  15
ENDBRANCH  10  12
ENDBRANCH   7  10
ENDBRANCH   6   7
BRANCH   1  19
ATOM     19  O   UNL     1       2.969   5.897  19.948  0.00  0.00    +0.000 OA
BRANCH  19  24
ATOM     20  C   UNL     1       0.377  10.826  18.686  0.00  0.00    +0.000 C 
ATOM     21  C   UNL     1       1.048   9.520  19.006  0.00  0.00    +0.000 A 
ATOM     22  C   UNL     1       1.047   9.000  20.306  0.00  0.00    +0.000 A 
ATOM     23  C   UNL     1       1.694   7.789  20.591  0.00  0.00    +0.000 A 
ATOM     24  C   UNL     1       2.347   7.081  19.581  0.00  0.00    +0.000 A 
ATOM     25  C   UNL     1       2.372   7.612  18.285  0.00  0.00    +0.000 A 
ATOM     26  C   UNL     1       1.701   8.807  17.995  0.00  0.00    +0.000 A 
ENDBRANCH  19  24
ENDBRANCH   1  19
TORSDOF 8
ENDMDL
MODEL 4
REMARK VINA RESULT:      -7.9      0.743      1.102
REMARK  Name = 
REMARK  9 active torsions:
REMARK  status: ('A' for Active; 'I' for Inactive)
REMARK    1  A    between atoms: C_1  and  C_2
REMARK    2  A    between atoms: C_5  and  O_6
REMARK    3  A    between atoms: O_6  and  C_7
REMARK    4  A    between atoms: C_12  and  S_13
REMARK    5  A    between atoms: S_13  and  N_16
REMARK    6  A    between atoms: N_16  and  C_17
REMARK    7  A    between atoms: C_17  and  C_18
REMARK    8  A    between atoms: C_17  and  C_20
REMARK    9  A    between atoms: C_20  and  O_22
REMARK                            x       y       z     vdW  Elec       q    Type
REMARK                         _______ _______ _______ _____ _____    ______ ____
ROOT
ATOM      1  C   UNL     1       2.371   4.787  19.592  0.00  0.00    +0.000 A 
ATOM      2  C   UNL     1       1.163   4.440  20.228  0.00  0.00    +0.000 A 
ATOM      3  C   UNL     1       0.464   3.285  19.878  0.00  0.00    +0.000 A 
ATOM      4  C   UNL     1       0.972   2.436  18.908  0.00  0.00    +0.000 A 
ATOM      5  C   UNL     1       2.209   2.713  18.333  0.00  0.00    +0.000 A 
ATOM      6  C   UNL     1       2.930   3.871  18.692  0.00  0.00    +0.000 A 
ENDROOT
BRANCH   6   7
ATOM      7  S   UNL     1       4.637   3.918  18.199  0.00  0.00    +0.000 S 
ATOM      8  O   UNL     1       5.432   3.558  19.353  0.00  0.00    +0.000 OA
ATOM      9  O   UNL     1       4.743   3.184  16.957  0.00  0.00    +0.000 OA
BRANCH   7  10
ATOM     10  N   UNL     1       5.026   5.520  17.866  0.00  0.00    +0.000 NA
ATOM     11  H   UNL     1       4.705   6.083  18.661  0.00  0.00    +0.000 HD
BRANCH  10  12
ATOM     12  C   UNL     1       6.404   5.852  17.418  0.00  0.00    +0.000 C 
BRANCH  12  13
ATOM     13  C   UNL     1       6.467   5.647  15.932  0.00  0.00    +0.000 C 
ATOM     14  O   UNL     1       7.516   5.553  15.297  0.00  0.00    +0.000 OA
ENDBRANCH  12  13
BRANCH  12  15
ATOM     15  C   UNL     1       7.551   5.289  18.242  0.00  0.00    +0.000 C 
ATOM     16  O   UNL     1       8.040   5.919  19.179  0.00  0.00    +0.000 OA
BRANCH  15  17
ATOM     17  O   UNL     1       8.074   4.104  17.857  0.00  0.00    +0.000 OA
ATOM     18  H   UNL     1       8.138   3.973  16.881  0.00  0.00    +0.000 HD
ENDBRANCH  15  17
ENDBRANCH  12  15
ENDBRANCH  10  12
ENDBRANCH   7  10
ENDBRANCH   6   7
BRANCH   1  19
ATOM     19  O   UNL     1       3.012   5.977  19.873  0.00  0.00    +0.000 OA
BRANCH  19  24
ATOM     20  C   UNL     1       0.286  10.848  18.666  0.00  0.00    +0.000 C 
ATOM     21  C   UNL     1       1.014   9.575  18.996  0.00  0.00    +0.000 A 
ATOM     22  C   UNL     1       1.691   8.847  18.010  0.00  0.00    +0.000 A 
ATOM     23  C   UNL     1       2.350   7.651  18.331  0.00  0.00    +0.000 A 
ATOM     24  C   UNL     1       2.344   7.170  19.641  0.00  0.00    +0.000 A 
ATOM     25  C   UNL     1       1.645   7.883  20.624  0.00  0.00    +0.000 A 
ATOM     26  C   UNL     1       1.012   9.091  20.308  0.00  0.00    +0.000 A 
ENDBRANCH  19  24
ENDBRANCH   1  19
TORSDOF 8
ENDMDL
MODEL 5
REMARK VINA RESULT:      -7.9      1.164      2.096
REMARK  Name = 
REMARK  9 active torsions:
REMARK  status: ('A' for Active; 'I' for Inactive)
REMARK    1  A    between atoms: C_1  and  C_2
REMARK    2  A    between atoms: C_5  and  O_6
REMARK    3  A    between atoms: O_6  and  C_7
REMARK    4  A    between atoms: C_12  and  S_13
REMARK    5  A    between atoms: S_13  and  N_16
REMARK    6  A    between atoms: N_16  and  C_17
REMARK    7  A    between atoms: C_17  and  C_18
REMARK    8  A    between atoms: C_17  and  C_20
REMARK    9  A    between atoms: C_20  and  O_22
REMARK                            x       y       z     vdW  Elec       q    Type
REMARK                         _______ _______ _______ _____ _____    ______ ____
ROOT
ATOM      1  C   UNL     1       2.369   4.932  19.721  0.00  0.00    +0.000 A 
ATOM      2  C   UNL     1       1.176   4.394  20.240  0.00  0.00    +0.000 A 
ATOM      3  C   UNL     1       0.632   3.213  19.737  0.00  0.00    +0.000 A 
ATOM      4  C   UNL     1       1.285   2.526  18.725  0.00  0.00    +0.000 A 
ATOM      5  C   UNL     1       2.513   2.992  18.262  0.00  0.00    +0.000 A 
ATOM      6  C   UNL     1       3.077   4.178  18.776  0.00  0.00    +0.000 A 
ENDROOT
BRANCH   6   7
ATOM      7  S   UNL     1       4.791   4.458  18.403  0.00  0.00    +0.000 S 
ATOM      8  O   UNL     1       4.968   5.883  18.216  0.00  0.00    +0.000 OA
ATOM      9  O   UNL     1       5.566   3.729  19.382  0.00  0.00    +0.000 OA
BRANCH   7  10
ATOM     10  N   UNL     1       5.105   3.766  16.902  0.00  0.00    +0.000 NA
ATOM     11  H   UNL     1       4.206   3.466  16.512  0.00  0.00    +0.000 HD
BRANCH  10  12
ATOM     12  C   UNL     1       5.963   4.497  15.933  0.00  0.00    +0.000 C 
BRANCH  12  13
ATOM     13  C   UNL     1       5.962   3.726  14.644  0.00  0.00    +0.000 C 
ATOM     14  O   UNL     1       6.625   4.041  13.658  0.00  0.00    +0.000 OA
ENDBRANCH  12  13
BRANCH  12  15
ATOM     15  C   UNL     1       7.308   4.992  16.441  0.00  0.00    +0.000 C 
ATOM     16  O   UNL     1       8.116   4.230  16.970  0.00  0.00    +0.000 OA
BRANCH  15  17
ATOM     17  O   UNL     1       7.552   6.319  16.370  0.00  0.00    +0.000 OA
ATOM     18  H   UNL     1       6.840   6.896  16.738  0.00  0.00    +0.000 HD
ENDBRANCH  15  17
ENDBRANCH  12  15
ENDBRANCH  10  12
ENDBRANCH   7  10
ENDBRANCH   6   7
BRANCH   1  19
ATOM     19  O   UNL     1       2.855   6.149  20.156  0.00  0.00    +0.000 OA
BRANCH  19  24
ATOM     20  C   UNL     1       0.164  10.986  18.751  0.00  0.00    +0.000 C 
ATOM     21  C   UNL     1       0.862   9.704  19.109  0.00  0.00    +0.000 A 
ATOM     22  C   UNL     1       0.831   9.197  20.413  0.00  0.00    +0.000 A 
ATOM     23  C   UNL     1       1.503   8.009  20.733  0.00  0.00    +0.000 A 
ATOM     24  C   UNL     1       2.212   7.310  19.754  0.00  0.00    +0.000 A 
ATOM     25  C   UNL     1       2.266   7.830  18.455  0.00  0.00    +0.000 A 
ATOM     26  C   UNL     1       1.571   9.001  18.129  0.00  0.00    +0.000 A 
ENDBRANCH  19  24
ENDBRANCH   1  19
TORSDOF 8
ENDMDL
MODEL 6
REMARK VINA RESULT:      -7.9      1.039      1.653
REMARK  Name = 
REMARK  9 active torsions:
REMARK  status: ('A' for Active; 'I' for Inactive)
REMARK    1  A    between atoms: C_1  and  C_2
REMARK    2  A    between atoms: C_5  and  O_6
REMARK    3  A    between atoms: O_6  and  C_7
REMARK    4  A    between atoms: C_12  and  S_13
REMARK    5  A    between atoms: S_13  and  N_16
REMARK    6  A    between atoms: N_16  and  C_17
REMARK    7  A    between atoms: C_17  and  C_18
REMARK    8  A    between atoms: C_17  and  C_20
REMARK    9  A    between atoms: C_20  and  O_22
REMARK                            x       y       z     vdW  Elec       q    Type
REMARK                         _______ _______ _______ _____ _____    ______ ____
ROOT
ATOM      1  C   UNL     1       2.416   5.075  19.471  0.00  0.00    +0.000 A 
ATOM      2  C   UNL     1       1.442   4.539  20.335  0.00  0.00    +0.000 A 
ATOM      3  C   UNL     1       0.783   3.347  20.038  0.00  0.00    +0.000 A 
ATOM      4  C   UNL     1       1.107   2.647  18.885  0.00  0.00    +0.000 A 
ATOM      5  C   UNL     1       2.131   3.112  18.066  0.00  0.00    +0.000 A 
ATOM      6  C   UNL     1       2.812   4.310  18.367  0.00  0.00    +0.000 A 
ENDROOT
BRANCH   6   7
ATOM      7  S   UNL     1       4.330   4.593  17.488  0.00  0.00    +0.000 S 
ATOM      8  O   UNL     1       4.746   3.328  16.920  0.00  0.00    +0.000 OA
ATOM      9  O   UNL     1       4.130   5.759  16.655  0.00  0.00    +0.000 OA
BRANCH   7  10
ATOM     10  N   UNL     1       5.509   4.986  18.622  0.00  0.00    +0.000 NA
ATOM     11  H   UNL     1       5.329   4.420  19.457  0.00  0.00    +0.000 HD
BRANCH  10  12
ATOM     12  C   UNL     1       6.936   5.001  18.207  0.00  0.00    +0.000 C 
BRANCH  12  13
ATOM     13  C   UNL     1       7.708   5.772  19.238  0.00  0.00    +0.000 C 
ATOM     14  O   UNL     1       8.294   6.828  19.006  0.00  0.00    +0.000 OA
ENDBRANCH  12  13
BRANCH  12  15
ATOM     15  C   UNL     1       7.225   5.316  16.747  0.00  0.00    +0.000 C 
ATOM     16  O   UNL     1       7.736   4.484  15.999  0.00  0.00    +0.000 OA
BRANCH  15  17
ATOM     17  O   UNL     1       6.980   6.574  16.319  0.00  0.00    +0.000 OA
ATOM     18  H   UNL     1       6.196   6.669  15.728  0.00  0.00    +0.000 HD
ENDBRANCH  15  17
ENDBRANCH  12  15
ENDBRANCH  10  12
ENDBRANCH   7  10
ENDBRANCH   6   7
BRANCH   1  19
ATOM     19  O   UNL     1       2.998   6.302  19.721  0.00  0.00    +0.000 OA
BRANCH  19  24
ATOM     20  C   UNL     1       0.023  11.088  18.798  0.00  0.00    +0.000 C 
ATOM     21  C   UNL     1       0.795   9.820  19.029  0.00  0.00    +0.000 A 
ATOM     22  C   UNL     1       0.878   9.239  20.300  0.00  0.00    +0.000 A 
ATOM     23  C   UNL     1       1.618   8.065  20.501  0.00  0.00    +0.000 A 
ATOM     24  C   UNL     1       2.282   7.455  19.436  0.00  0.00    +0.000 A 
ATOM     25  C   UNL     1       2.222   8.049  18.168  0.00  0.00    +0.000 A 
ATOM     26  C   UNL     1       1.459   9.205  17.962  0.00  0.00    +0.000 A 
ENDBRANCH  19  24
ENDBRANCH   1  19
TORSDOF 8
ENDMDL
MODEL 7
REMARK VINA RESULT:      -7.8      0.756      1.384
REMARK  Name = 
REMARK  9 active torsions:
REMARK  status: ('A' for Active; 'I' for Inactive)
REMARK    1  A    between atoms: C_1  and  C_2
REMARK    2  A    between atoms: C_5  and  O_6
REMARK    3  A    between atoms: O_6  and  C_7
REMARK    4  A    between atoms: C_12  and  S_13
REMARK    5  A    between atoms: S_13  and  N_16
REMARK    6  A    between atoms: N_16  and  C_17
REMARK    7  A    between atoms: C_17  and  C_18
REMARK    8  A    between atoms: C_17  and  C_20
REMARK    9  A    between atoms: C_20  and  O_22
REMARK                            x       y       z     vdW  Elec       q    Type
REMARK                         _______ _______ _______ _____ _____    ______ ____
ROOT
ATOM      1  C   UNL     1       2.499   4.949  19.604  0.00  0.00    +0.000 A 
ATOM      2  C   UNL     1       1.373   4.659  20.399  0.00  0.00    +0.000 A 
ATOM      3  C   UNL     1       0.674   3.460  20.261  0.00  0.00    +0.000 A 
ATOM      4  C   UNL     1       1.104   2.511  19.346  0.00  0.00    +0.000 A 
ATOM      5  C   UNL     1       2.268   2.739  18.617  0.00  0.00    +0.000 A 
ATOM      6  C   UNL     1       2.988   3.943  18.762  0.00  0.00    +0.000 A 
ENDROOT
BRANCH   6   7
ATOM      7  S   UNL     1       4.633   3.959  18.090  0.00  0.00    +0.000 S 
ATOM      8  O   UNL     1       5.555   3.792  19.194  0.00  0.00    +0.000 OA
ATOM      9  O   UNL     1       4.643   3.054  16.962  0.00  0.00    +0.000 OA
BRANCH   7  10
ATOM     10  N   UNL     1       4.924   5.504  17.493  0.00  0.00    +0.000 NA
ATOM     11  H   UNL     1       4.618   6.170  18.210  0.00  0.00    +0.000 HD
BRANCH  10  12
ATOM     12  C   UNL     1       6.256   5.818  16.915  0.00  0.00    +0.000 C 
BRANCH  12  13
ATOM     13  C   UNL     1       6.561   7.258  17.213  0.00  0.00    +0.000 C 
ATOM     14  O   UNL     1       7.691   7.741  17.174  0.00  0.00    +0.000 OA
ENDBRANCH  12  13
BRANCH  12  15
ATOM     15  C   UNL     1       6.523   5.334  15.498  0.00  0.00    +0.000 C 
ATOM     16  O   UNL     1       7.662   5.299  15.034  0.00  0.00    +0.000 OA
BRANCH  15  17
ATOM     17  O   UNL     1       5.454   5.024  14.732  0.00  0.00    +0.000 OA
ATOM     18  H   UNL     1       4.835   4.363  15.126  0.00  0.00    +0.000 HD
ENDBRANCH  15  17
ENDBRANCH  12  15
ENDBRANCH  10  12
ENDBRANCH   7  10
ENDBRANCH   6   7
BRANCH   1  19
ATOM     19  O   UNL     1       3.131   6.174  19.677  0.00  0.00    +0.000 OA
BRANCH  19  24
ATOM     20  C   UNL     1       0.125  10.939  18.748  0.00  0.00    +0.000 C 
ATOM     21  C   UNL     1       0.905   9.676  18.981  0.00  0.00    +0.000 A 
ATOM     22  C   UNL     1       1.004   9.105  20.255  0.00  0.00    +0.000 A 
ATOM     23  C   UNL     1       1.751   7.937  20.458  0.00  0.00    +0.000 A 
ATOM     24  C   UNL     1       2.407   7.321  19.390  0.00  0.00    +0.000 A 
ATOM     25  C   UNL     1       2.331   7.905  18.119  0.00  0.00    +0.000 A 
ATOM     26  C   UNL     1       1.561   9.056  17.912  0.00  0.00    +0.000 A 
ENDBRANCH  19  24
ENDBRANCH   1  19
TORSDOF 8
ENDMDL
MODEL 8
REMARK VINA RESULT:      -7.7      0.901      1.748
REMARK  Name = 
REMARK  9 active torsions:
REMARK  status: ('A' for Active; 'I' for Inactive)
REMARK    1  A    between atoms: C_1  and  C_2
REMARK    2  A    between atoms: C_5  and  O_6
REMARK    3  A    between atoms: O_6  and  C_7
REMARK    4  A    between atoms: C_12  and  S_13
REMARK    5  A    between atoms: S_13  and  N_16
REMARK    6  A    between atoms: N_16  and  C_17
REMARK    7  A    between atoms: C_17  and  C_18
REMARK    8  A    between atoms: C_17  and  C_20
REMARK    9  A    between atoms: C_20  and  O_22
REMARK                            x       y       z     vdW  Elec       q    Type
REMARK                         _______ _______ _______ _____ _____    ______ ____
ROOT
ATOM      1  C   UNL     1       2.351   4.694  19.642  0.00  0.00    +0.000 A 
ATOM      2  C   UNL     1       1.089   4.361  20.170  0.00  0.00    +0.000 A 
ATOM      3  C   UNL     1       0.418   3.203  19.777  0.00  0.00    +0.000 A 
ATOM      4  C   UNL     1       1.008   2.337  18.870  0.00  0.00    +0.000 A 
ATOM      5  C   UNL     1       2.294   2.600  18.407  0.00  0.00    +0.000 A 
ATOM      6  C   UNL     1       2.985   3.761  18.811  0.00  0.00    +0.000 A 
ENDROOT
BRANCH   6   7
ATOM      7  S   UNL     1       4.730   3.794  18.475  0.00  0.00    +0.000 S 
ATOM      8  O   UNL     1       5.390   3.064  19.536  0.00  0.00    +0.000 OA
ATOM      9  O   UNL     1       4.904   3.423  17.088  0.00  0.00    +0.000 OA
BRANCH   7  10
ATOM     10  N   UNL     1       5.249   5.386  18.634  0.00  0.00    +0.000 NA
ATOM     11  H   UNL     1       5.078   5.666  19.606  0.00  0.00    +0.000 HD
BRANCH  10  12
ATOM     12  C   UNL     1       6.596   5.762  18.133  0.00  0.00    +0.000 C 
BRANCH  12  13
ATOM     13  C   UNL     1       7.477   6.015  19.322  0.00  0.00    +0.000 C 
ATOM     14  O   UNL     1       7.699   5.182  20.199  0.00  0.00    +0.000 OA
ENDBRANCH  12  13
BRANCH  12  15
ATOM     15  C   UNL     1       6.651   6.778  17.003  0.00  0.00    +0.000 C 
ATOM     16  O   UNL     1       5.866   6.731  16.057  0.00  0.00    +0.000 OA
BRANCH  15  17
ATOM     17  O   UNL     1       7.650   7.689  17.030  0.00  0.00    +0.000 OA
ATOM     18  H   UNL     1       8.486   7.379  17.452  0.00  0.00    +0.000 HD
ENDBRANCH  15  17
ENDBRANCH  12  15
ENDBRANCH  10  12
ENDBRANCH   7  10
ENDBRANCH   6   7
BRANCH   1  19
ATOM     19  O   UNL     1       2.970   5.886  19.961  0.00  0.00    +0.000 OA
BRANCH  19  24
ATOM     20  C   UNL     1       0.444  10.844  18.677  0.00  0.00    +0.000 C 
ATOM     21  C   UNL     1       1.098   9.530  19.003  0.00  0.00    +0.000 A 
ATOM     22  C   UNL     1       1.077   9.009  20.302  0.00  0.00    +0.000 A 
ATOM     23  C   UNL     1       1.709   7.791  20.593  0.00  0.00    +0.000 A 
ATOM     24  C   UNL     1       2.365   7.077  19.589  0.00  0.00    +0.000 A 
ATOM     25  C   UNL     1       2.409   7.609  18.294  0.00  0.00    +0.000 A 
ATOM     26  C   UNL     1       1.754   8.811  17.998  0.00  0.00    +0.000 A 
ENDBRANCH  19  24
ENDBRANCH   1  19
TORSDOF 8
ENDMDL
MODEL 9
REMARK VINA RESULT:      -7.7      0.944      1.755
REMARK  Name = 
REMARK  9 active torsions:
REMARK  status: ('A' for Active; 'I' for Inactive)
REMARK    1  A    between atoms: C_1  and  C_2
REMARK    2  A    between atoms: C_5  and  O_6
REMARK    3  A    between atoms: O_6  and  C_7
REMARK    4  A    between atoms: C_12  and  S_13
REMARK    5  A    between atoms: S_13  and  N_16
REMARK    6  A    between atoms: N_16  and  C_17
REMARK    7  A    between atoms: C_17  and  C_18
REMARK    8  A    between atoms: C_17  and  C_20
REMARK    9  A    between atoms: C_20  and  O_22
REMARK                            x       y       z     vdW  Elec       q    Type
REMARK                         _______ _______ _______ _____ _____    ______ ____
ROOT
ATOM      1  C   UNL     1       2.527   5.018  19.615  0.00  0.00    +0.000 A 
ATOM      2  C   UNL     1       1.465   4.721  20.491  0.00  0.00    +0.000 A 
ATOM      3  C   UNL     1       0.776   3.512  20.415  0.00  0.00    +0.000 A 
ATOM      4  C   UNL     1       1.152   2.559  19.481  0.00  0.00    +0.000 A 
ATOM      5  C   UNL     1       2.257   2.795  18.668  0.00  0.00    +0.000 A 
ATOM      6  C   UNL     1       2.969   4.010  18.749  0.00  0.00    +0.000 A 
ENDROOT
BRANCH   6   7
ATOM      7  S   UNL     1       4.561   4.042  17.960  0.00  0.00    +0.000 S 
ATOM      8  O   UNL     1       5.558   4.188  19.000  0.00  0.00    +0.000 OA
ATOM      9  O   UNL     1       4.602   2.932  17.034  0.00  0.00    +0.000 OA
BRANCH   7  10
ATOM     10  N   UNL     1       4.651   5.454  17.051  0.00  0.00    +0.000 NA
ATOM     11  H   UNL     1       4.581   6.241  17.704  0.00  0.00    +0.000 HD
BRANCH  10  12
ATOM     12  C   UNL     1       5.740   5.603  16.051  0.00  0.00    +0.000 C 
BRANCH  12  13
ATOM     13  C   UNL     1       5.482   4.627  14.940  0.00  0.00    +0.000 C 
ATOM     14  O   UNL     1       6.362   4.168  14.214  0.00  0.00    +0.000 OA
ENDBRANCH  12  13
BRANCH  12  15
ATOM     15  C   UNL     1       7.161   5.681  16.587  0.00  0.00    +0.000 C 
ATOM     16  O   UNL     1       7.713   6.762  16.791  0.00  0.00    +0.000 OA
BRANCH  15  17
ATOM     17  O   UNL     1       7.831   4.519  16.753  0.00  0.00    +0.000 OA
ATOM     18  H   UNL     1       8.775   4.617  17.025  0.00  0.00    +0.000 HD
ENDBRANCH  15  17
ENDBRANCH  12  15
ENDBRANCH  10  12
ENDBRANCH   7  10
ENDBRANCH   6   7
BRANCH   1  19
ATOM     19  O   UNL     1       3.145   6.253  19.631  0.00  0.00    +0.000 OA
BRANCH  19  24
ATOM     20  C   UNL     1       0.024  10.953  18.752  0.00  0.00    +0.000 C 
ATOM     21  C   UNL     1       0.835   9.707  18.972  0.00  0.00    +0.000 A 
ATOM     22  C   UNL     1       0.973   9.143  20.246  0.00  0.00    +0.000 A 
ATOM     23  C   UNL     1       1.748   7.990  20.436  0.00  0.00    +0.000 A 
ATOM     24  C   UNL     1       2.392   7.384  19.356  0.00  0.00    +0.000 A 
ATOM     25  C   UNL     1       2.277   7.962  18.085  0.00  0.00    +0.000 A 
ATOM     26  C   UNL     1       1.479   9.096  17.891  0.00  0.00    +0.000 A 
ENDBRANCH  19  24
ENDBRANCH   1  19
TORSDOF 8
ENDMDL
