MODEL 1
REMARK VINA RESULT:      -7.1      0.000      0.000
REMARK  Name = 
REMARK  6 active torsions:
REMARK  status: ('A' for Active; 'I' for Inactive)
REMARK    1  A    between atoms: C_1  and  C_2
REMARK    2  A    between atoms: C_2  and  C_3
REMARK    3  A    between atoms: C_3  and  N_4
REMARK    4  A    between atoms: C_6  and  C_7
REMARK    5  A    between atoms: C_10  and  O_11
REMARK    6  A    between atoms: O_11  and  C_12
REMARK                            x       y       z     vdW  Elec       q    Type
REMARK                         _______ _______ _______ _____ _____    ______ ____
ROOT
ATOM      1  C   UNL     1       4.279   4.608  17.134  0.00  0.00    +0.000 A 
ATOM      2  C   UNL     1       3.355   5.399  17.824  0.00  0.00    +0.000 A 
ATOM      3  C   UNL     1       2.557   4.837  18.830  0.00  0.00    +0.000 A 
ATOM      4  C   UNL     1       2.671   3.476  19.157  0.00  0.00    +0.000 A 
ATOM      5  C   UNL     1       3.625   2.692  18.481  0.00  0.00    +0.000 A 
ATOM      6  C   UNL     1       4.418   3.255  17.473  0.00  0.00    +0.000 A 
ENDROOT
BRANCH   1   9
ATOM      7  C   UNL     1       6.498   5.560  16.280  0.00  0.00    +0.000 C 
ATOM      8  C   UNL     1       5.460   6.627  15.904  0.00  0.00    +0.000 C 
ATOM      9  C   UNL     1       5.031   5.175  15.960  0.00  0.00    +0.000 C 
BRANCH   7  10
ATOM     10  N   UNL     1       7.442   5.334  15.172  0.00  0.00    +0.000 NA
ATOM     11  H   UNL     1       8.418   5.170  15.501  0.00  0.00    +0.000 HD
ATOM     12  H   UNL     1       7.462   6.204  14.593  0.00  0.00    +0.000 HD
ENDBRANCH   7  10
BRANCH   7  14
ATOM     13  C   UNL     1       7.553   7.594  17.431  0.00  0.00    +0.000 C 
ATOM     14  C   UNL     1       7.161   6.125  17.560  0.00  0.00    +0.000 C 
ENDBRANCH   7  14
ENDBRANCH   1   9
BRANCH   4  15
ATOM     15  O   UNL     1       1.835   2.989  20.116  0.00  0.00    +0.000 OA
BRANCH  15  16
ATOM     16  C   UNL     1       2.005   2.952  21.493  0.00  0.00    +0.000 C 
ATOM     17  F   UNL     1       0.903   2.456  22.162  0.00  0.00    +0.000 F 
ATOM     18  F   UNL     1       3.113   2.188  21.796  0.00  0.00    +0.000 F 
ATOM     19  F   UNL     1       2.224   4.245  21.939  0.00  0.00    +0.000 F 
ENDBRANCH  15  16
ENDBRANCH   4  15
TORSDOF 5
ENDMDL
MODEL 2
REMARK VINA RESULT:      -7.0      0.971      1.679
REMARK  Name = 
REMARK  6 active torsions:
REMARK  status: ('A' for Active; 'I' for Inactive)
REMARK    1  A    between atoms: C_1  and  C_2
REMARK    2  A    between atoms: C_2  and  C_3
REMARK    3  A    between atoms: C_3  and  N_4
REMARK    4  A    between atoms: C_6  and  C_7
REMARK    5  A    between atoms: C_10  and  O_11
REMARK    6  A    between atoms: O_11  and  C_12
REMARK                            x       y       z     vdW  Elec       q    Type
REMARK                         _______ _______ _______ _____ _____    ______ ____
ROOT
ATOM      1  C   UNL     1       4.358   4.647  16.848  0.00  0.00    +0.000 A 
ATOM      2  C   UNL     1       4.379   3.308  17.251  0.00  0.00    +0.000 A 
ATOM      3  C   UNL     1       3.718   2.913  18.423  0.00  0.00    +0.000 A 
ATOM      4  C   UNL     1       3.032   3.854  19.208  0.00  0.00    +0.000 A 
ATOM      5  C   UNL     1       2.988   5.194  18.780  0.00  0.00    +0.000 A 
ATOM      6  C   UNL     1       3.653   5.587  17.612  0.00  0.00    +0.000 A 
ENDROOT
BRANCH   1   9
ATOM      7  C   UNL     1       6.594   5.613  16.054  0.00  0.00    +0.000 C 
ATOM      8  C   UNL     1       5.540   6.548  15.443  0.00  0.00    +0.000 C 
ATOM      9  C   UNL     1       5.185   5.094  15.671  0.00  0.00    +0.000 C 
BRANCH   7  10
ATOM     10  N   UNL     1       7.646   5.297  15.073  0.00  0.00    +0.000 NA
ATOM     11  H   UNL     1       8.125   4.392  15.273  0.00  0.00    +0.000 HD
ATOM     12  H   UNL     1       8.374   6.045  15.141  0.00  0.00    +0.000 HD
ENDBRANCH   7  10
BRANCH   7  14
ATOM     13  C   UNL     1       7.597   5.480  18.411  0.00  0.00    +0.000 C 
ATOM     14  C   UNL     1       7.105   6.392  17.290  0.00  0.00    +0.000 C 
ENDBRANCH   7  14
ENDBRANCH   1   9
BRANCH   4  15
ATOM     15  O   UNL     1       2.449   3.407  20.355  0.00  0.00    +0.000 OA
BRANCH  15  16
ATOM     16  C   UNL     1       1.103   3.244  20.650  0.00  0.00    +0.000 C 
ATOM     17  F   UNL     1       0.425   2.504  19.701  0.00  0.00    +0.000 F 
ATOM     18  F   UNL     1       0.976   2.640  21.884  0.00  0.00    +0.000 F 
ATOM     19  F   UNL     1       0.514   4.496  20.707  0.00  0.00    +0.000 F 
ENDBRANCH  15  16
ENDBRANCH   4  15
TORSDOF 5
ENDMDL
MODEL 3
REMARK VINA RESULT:      -6.9      0.723      1.375
REMARK  Name = 
REMARK  6 active torsions:
REMARK  status: ('A' for Active; 'I' for Inactive)
REMARK    1  A    between atoms: C_1  and  C_2
REMARK    2  A    between atoms: C_2  and  C_3
REMARK    3  A    between atoms: C_3  and  N_4
REMARK    4  A    between atoms: C_6  and  C_7
REMARK    5  A    between atoms: C_10  and  O_11
REMARK    6  A    between atoms: O_11  and  C_12
REMARK                            x       y       z     vdW  Elec       q    Type
REMARK                         _______ _______ _______ _____ _____    ______ ____
ROOT
ATOM      1  C   UNL     1       4.283   5.173  17.160  0.00  0.00    +0.000 A 
ATOM      2  C   UNL     1       4.030   3.799  17.109  0.00  0.00    +0.000 A 
ATOM      3  C   UNL     1       3.197   3.198  18.063  0.00  0.00    +0.000 A 
ATOM      4  C   UNL     1       2.609   3.965  19.083  0.00  0.00    +0.000 A 
ATOM      5  C   UNL     1       2.841   5.353  19.110  0.00  0.00    +0.000 A 
ATOM      6  C   UNL     1       3.678   5.949  18.158  0.00  0.00    +0.000 A 
ENDROOT
BRANCH   1   9
ATOM      7  C   UNL     1       6.743   5.311  16.460  0.00  0.00    +0.000 C 
ATOM      8  C   UNL     1       6.338   6.771  16.706  0.00  0.00    +0.000 C 
ATOM      9  C   UNL     1       5.288   5.792  16.225  0.00  0.00    +0.000 C 
BRANCH   7  10
ATOM     10  N   UNL     1       7.549   5.190  15.234  0.00  0.00    +0.000 NA
ATOM     11  H   UNL     1       8.377   5.825  15.231  0.00  0.00    +0.000 HD
ATOM     12  H   UNL     1       6.946   5.478  14.430  0.00  0.00    +0.000 HD
ENDBRANCH   7  10
BRANCH   7  14
ATOM     13  C   UNL     1       7.705   6.089  18.707  0.00  0.00    +0.000 C 
ATOM     14  C   UNL     1       7.504   4.918  17.750  0.00  0.00    +0.000 C 
ENDBRANCH   7  14
ENDBRANCH   1   9
BRANCH   4  15
ATOM     15  O   UNL     1       1.845   3.308  19.999  0.00  0.00    +0.000 OA
BRANCH  15  16
ATOM     16  C   UNL     1       2.089   3.081  21.346  0.00  0.00    +0.000 C 
ATOM     17  F   UNL     1       1.027   2.486  21.998  0.00  0.00    +0.000 F 
ATOM     18  F   UNL     1       3.214   2.293  21.480  0.00  0.00    +0.000 F 
ATOM     19  F   UNL     1       2.329   4.301  21.957  0.00  0.00    +0.000 F 
ENDBRANCH  15  16
ENDBRANCH   4  15
TORSDOF 5
ENDMDL
MODEL 4
REMARK VINA RESULT:      -6.9      0.912      1.719
REMARK  Name = 
REMARK  6 active torsions:
REMARK  status: ('A' for Active; 'I' for Inactive)
REMARK    1  A    between atoms: C_1  and  C_2
REMARK    2  A    between atoms: C_2  and  C_3
REMARK    3  A    between atoms: C_3  and  N_4
REMARK    4  A    between atoms: C_6  and  C_7
REMARK    5  A    between atoms: C_10  and  O_11
REMARK    6  A    between atoms: O_11  and  C_12
REMARK                            x       y       z     vdW  Elec       q    Type
REMARK                         _______ _______ _______ _____ _____    ______ ____
ROOT
ATOM      1  C   UNL     1       4.402   4.841  17.053  0.00  0.00    +0.000 A 
ATOM      2  C   UNL     1       4.403   3.479  17.370  0.00  0.00    +0.000 A 
ATOM      3  C   UNL     1       3.764   3.025  18.532  0.00  0.00    +0.000 A 
ATOM      4  C   UNL     1       3.119   3.927  19.393  0.00  0.00    +0.000 A 
ATOM      5  C   UNL     1       3.094   5.293  19.051  0.00  0.00    +0.000 A 
ATOM      6  C   UNL     1       3.737   5.745  17.893  0.00  0.00    +0.000 A 
ENDROOT
BRANCH   1   9
ATOM      7  C   UNL     1       6.703   5.594  16.215  0.00  0.00    +0.000 C 
ATOM      8  C   UNL     1       5.766   6.752  15.840  0.00  0.00    +0.000 C 
ATOM      9  C   UNL     1       5.209   5.345  15.885  0.00  0.00    +0.000 C 
BRANCH   7  10
ATOM     10  N   UNL     1       7.628   5.290  15.111  0.00  0.00    +0.000 NA
ATOM     11  H   UNL     1       7.307   5.677  14.197  0.00  0.00    +0.000 HD
ATOM     12  H   UNL     1       7.660   4.250  15.003  0.00  0.00    +0.000 HD
ENDBRANCH   7  10
BRANCH   7  14
ATOM     13  C   UNL     1       7.595   7.606  17.532  0.00  0.00    +0.000 C 
ATOM     14  C   UNL     1       7.406   6.092  17.501  0.00  0.00    +0.000 C 
ENDBRANCH   7  14
ENDBRANCH   1   9
BRANCH   4  15
ATOM     15  O   UNL     1       2.554   3.421  20.524  0.00  0.00    +0.000 OA
BRANCH  15  16
ATOM     16  C   UNL     1       1.224   3.122  20.784  0.00  0.00    +0.000 C 
ATOM     17  F   UNL     1       1.026   2.575  22.037  0.00  0.00    +0.000 F 
ATOM     18  F   UNL     1       0.465   4.267  20.654  0.00  0.00    +0.000 F 
ATOM     19  F   UNL     1       0.794   2.197  19.848  0.00  0.00    +0.000 F 
ENDBRANCH  15  16
ENDBRANCH   4  15
TORSDOF 5
ENDMDL
MODEL 5
REMARK VINA RESULT:      -6.9      0.919      1.271
REMARK  Name = 
REMARK  6 active torsions:
REMARK  status: ('A' for Active; 'I' for Inactive)
REMARK    1  A    between atoms: C_1  and  C_2
REMARK    2  A    between atoms: C_2  and  C_3
REMARK    3  A    between atoms: C_3  and  N_4
REMARK    4  A    between atoms: C_6  and  C_7
REMARK    5  A    between atoms: C_10  and  O_11
REMARK    6  A    between atoms: O_11  and  C_12
REMARK                            x       y       z     vdW  Elec       q    Type
REMARK                         _______ _______ _______ _____ _____    ______ ____
ROOT
ATOM      1  C   UNL     1       4.576   4.668  17.369  0.00  0.00    +0.000 A 
ATOM      2  C   UNL     1       4.242   5.466  18.468  0.00  0.00    +0.000 A 
ATOM      3  C   UNL     1       3.576   4.909  19.568  0.00  0.00    +0.000 A 
ATOM      4  C   UNL     1       3.233   3.548  19.582  0.00  0.00    +0.000 A 
ATOM      5  C   UNL     1       3.600   2.742  18.487  0.00  0.00    +0.000 A 
ATOM      6  C   UNL     1       4.262   3.302  17.387  0.00  0.00    +0.000 A 
ENDROOT
BRANCH   1   9
ATOM      7  C   UNL     1       6.657   5.675  16.266  0.00  0.00    +0.000 C 
ATOM      8  C   UNL     1       5.576   6.750  16.084  0.00  0.00    +0.000 C 
ATOM      9  C   UNL     1       5.161   5.295  16.131  0.00  0.00    +0.000 C 
BRANCH   7  10
ATOM     10  N   UNL     1       7.442   5.508  15.031  0.00  0.00    +0.000 NA
ATOM     11  H   UNL     1       8.470   5.563  15.196  0.00  0.00    +0.000 HD
ATOM     12  H   UNL     1       7.196   6.298  14.392  0.00  0.00    +0.000 HD
ENDBRANCH   7  10
BRANCH   7  14
ATOM     13  C   UNL     1       7.610   7.708  17.507  0.00  0.00    +0.000 C 
ATOM     14  C   UNL     1       7.487   6.187  17.469  0.00  0.00    +0.000 C 
ENDBRANCH   7  14
ENDBRANCH   1   9
BRANCH   4  15
ATOM     15  O   UNL     1       2.551   3.084  20.666  0.00  0.00    +0.000 OA
BRANCH  15  16
ATOM     16  C   UNL     1       1.186   3.093  20.914  0.00  0.00    +0.000 C 
ATOM     17  F   UNL     1       0.848   2.501  22.116  0.00  0.00    +0.000 F 
ATOM     18  F   UNL     1       0.727   4.395  20.895  0.00  0.00    +0.000 F 
ATOM     19  F   UNL     1       0.554   2.387  19.904  0.00  0.00    +0.000 F 
ENDBRANCH  15  16
ENDBRANCH   4  15
TORSDOF 5
ENDMDL
MODEL 6
REMARK VINA RESULT:      -6.8      0.990      1.377
REMARK  Name = 
REMARK  6 active torsions:
REMARK  status: ('A' for Active; 'I' for Inactive)
REMARK    1  A    between atoms: C_1  and  C_2
REMARK    2  A    between atoms: C_2  and  C_3
REMARK    3  A    between atoms: C_3  and  N_4
REMARK    4  A    between atoms: C_6  and  C_7
REMARK    5  A    between atoms: C_10  and  O_11
REMARK    6  A    between atoms: O_11  and  C_12
REMARK                            x       y       z     vdW  Elec       q    Type
REMARK                         _______ _______ _______ _____ _____    ______ ____
ROOT
ATOM      1  C   UNL     1       4.526   4.594  17.093  0.00  0.00    +0.000 A 
ATOM      2  C   UNL     1       3.750   5.476  17.851  0.00  0.00    +0.000 A 
ATOM      3  C   UNL     1       3.062   5.017  18.983  0.00  0.00    +0.000 A 
ATOM      4  C   UNL     1       3.138   3.669  19.368  0.00  0.00    +0.000 A 
ATOM      5  C   UNL     1       3.946   2.793  18.619  0.00  0.00    +0.000 A 
ATOM      6  C   UNL     1       4.630   3.253  17.487  0.00  0.00    +0.000 A 
ENDROOT
BRANCH   1   9
ATOM      7  C   UNL     1       6.556   5.680  15.968  0.00  0.00    +0.000 C 
ATOM      8  C   UNL     1       5.364   6.520  15.489  0.00  0.00    +0.000 C 
ATOM      9  C   UNL     1       5.148   5.054  15.801  0.00  0.00    +0.000 C 
BRANCH   7  10
ATOM     10  N   UNL     1       7.481   5.402  14.858  0.00  0.00    +0.000 NA
ATOM     11  H   UNL     1       7.308   4.475  14.411  0.00  0.00    +0.000 HD
ATOM     12  H   UNL     1       8.448   5.369  15.254  0.00  0.00    +0.000 HD
ENDBRANCH   7  10
BRANCH   7  14
ATOM     13  C   UNL     1       7.629   5.703  18.298  0.00  0.00    +0.000 C 
ATOM     14  C   UNL     1       7.177   6.534  17.101  0.00  0.00    +0.000 C 
ENDBRANCH   7  14
ENDBRANCH   1   9
BRANCH   4  15
ATOM     15  O   UNL     1       2.410   3.284  20.453  0.00  0.00    +0.000 OA
BRANCH  15  16
ATOM     16  C   UNL     1       1.035   3.291  20.636  0.00  0.00    +0.000 C 
ATOM     17  F   UNL     1       0.508   4.563  20.742  0.00  0.00    +0.000 F 
ATOM     18  F   UNL     1       0.432   2.627  19.587  0.00  0.00    +0.000 F 
ATOM     19  F   UNL     1       0.748   2.616  21.810  0.00  0.00    +0.000 F 
ENDBRANCH  15  16
ENDBRANCH   4  15
TORSDOF 5
ENDMDL
MODEL 7
REMARK VINA RESULT:      -6.8      0.517      1.595
REMARK  Name = 
REMARK  6 active torsions:
REMARK  status: ('A' for Active; 'I' for Inactive)
REMARK    1  A    between atoms: C_1  and  C_2
REMARK    2  A    between atoms: C_2  and  C_3
REMARK    3  A    between atoms: C_3  and  N_4
REMARK    4  A    between atoms: C_6  and  C_7
REMARK    5  A    between atoms: C_10  and  O_11
REMARK    6  A    between atoms: O_11  and  C_12
REMARK                            x       y       z     vdW  Elec       q    Type
REMARK                         _______ _______ _______ _____ _____    ______ ____
ROOT
ATOM      1  C   UNL     1       4.097   4.097  17.010  0.00  0.00    +0.000 A 
ATOM      2  C   UNL     1       4.209   2.801  17.524  0.00  0.00    +0.000 A 
ATOM      3  C   UNL     1       3.386   2.387  18.581  0.00  0.00    +0.000 A 
ATOM      4  C   UNL     1       2.444   3.266  19.140  0.00  0.00    +0.000 A 
ATOM      5  C   UNL     1       2.314   4.558  18.598  0.00  0.00    +0.000 A 
ATOM      6  C   UNL     1       3.140   4.971  17.545  0.00  0.00    +0.000 A 
ENDROOT
BRANCH   1   9
ATOM      7  C   UNL     1       6.262   5.390  16.563  0.00  0.00    +0.000 C 
ATOM      8  C   UNL     1       5.228   6.055  15.643  0.00  0.00    +0.000 C 
ATOM      9  C   UNL     1       5.075   4.586  15.975  0.00  0.00    +0.000 C 
BRANCH   7  10
ATOM     10  N   UNL     1       7.540   5.192  15.858  0.00  0.00    +0.000 NA
ATOM     11  H   UNL     1       7.518   4.381  15.202  0.00  0.00    +0.000 HD
ATOM     12  H   UNL     1       8.267   4.977  16.578  0.00  0.00    +0.000 HD
ENDBRANCH   7  10
BRANCH   7  14
ATOM     13  C   UNL     1       7.775   6.863  18.021  0.00  0.00    +0.000 C 
ATOM     14  C   UNL     1       6.357   6.356  17.769  0.00  0.00    +0.000 C 
ENDBRANCH   7  14
ENDBRANCH   1   9
BRANCH   4  15
ATOM     15  O   UNL     1       1.708   2.810  20.192  0.00  0.00    +0.000 OA
BRANCH  15  16
ATOM     16  C   UNL     1       1.942   2.947  21.552  0.00  0.00    +0.000 C 
ATOM     17  F   UNL     1       2.238   4.243  21.925  0.00  0.00    +0.000 F 
ATOM     18  F   UNL     1       0.837   2.506  22.252  0.00  0.00    +0.000 F 
ATOM     19  F   UNL     1       3.025   2.153  21.891  0.00  0.00    +0.000 F 
ENDBRANCH  15  16
ENDBRANCH   4  15
TORSDOF 5
ENDMDL
MODEL 8
REMARK VINA RESULT:      -6.8      1.381      1.913
REMARK  Name = 
REMARK  6 active torsions:
REMARK  status: ('A' for Active; 'I' for Inactive)
REMARK    1  A    between atoms: C_1  and  C_2
REMARK    2  A    between atoms: C_2  and  C_3
REMARK    3  A    between atoms: C_3  and  N_4
REMARK    4  A    between atoms: C_6  and  C_7
REMARK    5  A    between atoms: C_10  and  O_11
REMARK    6  A    between atoms: O_11  and  C_12
REMARK                            x       y       z     vdW  Elec       q    Type
REMARK                         _______ _______ _______ _____ _____    ______ ____
ROOT
ATOM      1  C   UNL     1       4.793   3.660  17.127  0.00  0.00    +0.000 A 
ATOM      2  C   UNL     1       3.464   3.325  16.849  0.00  0.00    +0.000 A 
ATOM      3  C   UNL     1       2.589   2.985  17.891  0.00  0.00    +0.000 A 
ATOM      4  C   UNL     1       3.034   2.973  19.222  0.00  0.00    +0.000 A 
ATOM      5  C   UNL     1       4.363   3.342  19.499  0.00  0.00    +0.000 A 
ATOM      6  C   UNL     1       5.237   3.677  18.456  0.00  0.00    +0.000 A 
ENDROOT
BRANCH   1   9
ATOM      7  C   UNL     1       6.039   5.378  15.693  0.00  0.00    +0.000 C 
ATOM      8  C   UNL     1       5.338   4.471  14.671  0.00  0.00    +0.000 C 
ATOM      9  C   UNL     1       5.766   3.884  16.000  0.00  0.00    +0.000 C 
BRANCH   7  10
ATOM     10  N   UNL     1       7.419   5.672  15.273  0.00  0.00    +0.000 NA
ATOM     11  H   UNL     1       8.072   4.877  15.449  0.00  0.00    +0.000 HD
ATOM     12  H   UNL     1       7.760   6.474  15.850  0.00  0.00    +0.000 HD
ENDBRANCH   7  10
BRANCH   7  14
ATOM     13  C   UNL     1       4.910   7.134  17.185  0.00  0.00    +0.000 C 
ATOM     14  C   UNL     1       5.127   6.628  15.761  0.00  0.00    +0.000 C 
ENDBRANCH   7  14
ENDBRANCH   1   9
BRANCH   4  15
ATOM     15  O   UNL     1       2.140   2.593  20.178  0.00  0.00    +0.000 OA
BRANCH  15  16
ATOM     16  C   UNL     1       1.457   3.372  21.101  0.00  0.00    +0.000 C 
ATOM     17  F   UNL     1       2.281   4.230  21.804  0.00  0.00    +0.000 F 
ATOM     18  F   UNL     1       0.480   4.099  20.451  0.00  0.00    +0.000 F 
ATOM     19  F   UNL     1       0.847   2.530  22.015  0.00  0.00    +0.000 F 
ENDBRANCH  15  16
ENDBRANCH   4  15
TORSDOF 5
ENDMDL
MODEL 9
REMARK VINA RESULT:      -6.8      4.329      6.167
REMARK  Name = 
REMARK  6 active torsions:
REMARK  status: ('A' for Active; 'I' for Inactive)
REMARK    1  A    between atoms: C_1  and  C_2
REMARK    2  A    between atoms: C_2  and  C_3
REMARK    3  A    between atoms: C_3  and  N_4
REMARK    4  A    between atoms: C_6  and  C_7
REMARK    5  A    between atoms: C_10  and  O_11
REMARK    6  A    between atoms: O_11  and  C_12
REMARK                            x       y       z     vdW  Elec       q    Type
REMARK                         _______ _______ _______ _____ _____    ______ ____
ROOT
ATOM      1  C   UNL     1       2.626   4.737  17.659  0.00  0.00    +0.000 A 
ATOM      2  C   UNL     1       2.568   6.071  18.077  0.00  0.00    +0.000 A 
ATOM      3  C   UNL     1       3.667   6.920  17.883  0.00  0.00    +0.000 A 
ATOM      4  C   UNL     1       4.838   6.445  17.271  0.00  0.00    +0.000 A 
ATOM      5  C   UNL     1       4.879   5.111  16.824  0.00  0.00    +0.000 A 
ATOM      6  C   UNL     1       3.782   4.263  17.023  0.00  0.00    +0.000 A 
ENDROOT
BRANCH   1   9
ATOM      7  C   UNL     1       1.555   3.249  19.447  0.00  0.00    +0.000 C 
ATOM      8  C   UNL     1       1.743   2.316  18.242  0.00  0.00    +0.000 C 
ATOM      9  C   UNL     1       1.504   3.791  17.996  0.00  0.00    +0.000 C 
BRANCH   7  10
ATOM     10  N   UNL     1       0.235   3.045  20.067  0.00  0.00    +0.000 NA
ATOM     11  H   UNL     1      -0.153   3.918  20.486  0.00  0.00    +0.000 HD
ATOM     12  H   UNL     1       0.356   2.363  20.850  0.00  0.00    +0.000 HD
ENDBRANCH   7  10
BRANCH   7  14
ATOM     13  C   UNL     1       2.335   2.746  21.838  0.00  0.00    +0.000 C 
ATOM     14  C   UNL     1       2.742   2.894  20.375  0.00  0.00    +0.000 C 
ENDBRANCH   7  14
ENDBRANCH   1   9
BRANCH   4  15
ATOM     15  O   UNL     1       5.880   7.314  17.152  0.00  0.00    +0.000 OA
BRANCH  15  16
ATOM     16  C   UNL     1       7.223   7.121  17.445  0.00  0.00    +0.000 C 
ATOM     17  F   UNL     1       7.953   8.293  17.443  0.00  0.00    +0.000 F 
ATOM     18  F   UNL     1       7.338   6.506  18.676  0.00  0.00    +0.000 F 
ATOM     19  F   UNL     1       7.763   6.285  16.482  0.00  0.00    +0.000 F 
ENDBRANCH  15  16
ENDBRANCH   4  15
TORSDOF 5
ENDMDL
