MODEL 1
REMARK VINA RESULT:      -6.8      0.000      0.000
REMARK  Name = 
REMARK  17 active torsions:
REMARK  status: ('A' for Active; 'I' for Inactive)
REMARK    1  A    between atoms: C_1  and  C_2
REMARK    2  A    between atoms: C_2  and  C_3
REMARK    3  A    between atoms: C_3  and  C_4
REMARK    4  A    between atoms: C_4  and  C_5
REMARK    5  A    between atoms: C_5  and  C_6
REMARK    6  A    between atoms: C_6  and  C_7
REMARK    7  A    between atoms: C_7  and  C_8
REMARK    8  A    between atoms: C_8  and  C_9
REMARK    9  A    between atoms: C_9  and  C_10
REMARK   10  A    between atoms: C_10  and  C_11
REMARK   11  A    between atoms: C_11  and  C_12
REMARK   12  A    between atoms: C_12  and  C_13
REMARK   13  A    between atoms: C_13  and  C_14
REMARK   14  A    between atoms: C_14  and  C_15
REMARK   15  A    between atoms: C_15  and  N_16
REMARK   16  A    between atoms: N_16  and  C_17
REMARK   17  A    between atoms: N_16  and  C_18
REMARK                            x       y       z     vdW  Elec       q    Type
REMARK                         _______ _______ _______ _____ _____    ______ ____
ROOT
ATOM      1  N   UNL     1       1.640   4.473  20.483  0.00  0.00    +0.000 N 
ATOM      2  C   UNL     1       2.508   4.077  21.594  0.00  0.00    +0.000 C 
ENDROOT
BRANCH   1   3
ATOM      3  C   UNL     1       1.733   5.805  20.039  0.00  0.00    +0.000 A 
ATOM      4  C   UNL     1       2.290   6.160  18.807  0.00  0.00    +0.000 A 
ATOM      5  C   UNL     1       2.324   7.492  18.382  0.00  0.00    +0.000 A 
ATOM      6  C   UNL     1       1.823   8.527  19.177  0.00  0.00    +0.000 A 
ATOM      7  N   UNL     1       1.882   9.820  18.646  0.00  0.00    +0.000 NA
ATOM      8  C   UNL     1       1.438  10.841  19.313  0.00  0.00    +0.000 A 
ATOM      9  C   UNL     1       1.555  12.153  18.631  0.00  0.00    +0.000 A 
ATOM     10  C   UNL     1       1.141  13.290  19.190  0.00  0.00    +0.000 A 
ATOM     11  C   UNL     1       0.538  13.295  20.529  0.00  0.00    +0.000 A 
ATOM     12  O   UNL     1       0.157  14.336  21.052  0.00  0.00    +0.000 OA
ATOM     13  C   UNL     1       0.411  12.010  21.228  0.00  0.00    +0.000 A 
ATOM     14  C   UNL     1       0.824  10.863  20.676  0.00  0.00    +0.000 A 
ATOM     15  S   UNL     1       0.644   9.396  21.559  0.00  0.00    +0.000 S 
ATOM     16  C   UNL     1       1.304   8.203  20.427  0.00  0.00    +0.000 A 
ATOM     17  C   UNL     1       1.277   6.864  20.842  0.00  0.00    +0.000 A 
ENDBRANCH   1   3
BRANCH   1  18
ATOM     18  C   UNL     1       1.363   3.494  19.410  0.00  0.00    +0.000 C 
BRANCH  18  19
ATOM     19  C   UNL     1       2.275   2.279  19.432  0.00  0.00    +0.000 C 
BRANCH  19  20
ATOM     20  C   UNL     1       2.806   1.957  18.042  0.00  0.00    +0.000 C 
BRANCH  20  21
ATOM     21  C   UNL     1       2.794   3.232  17.216  0.00  0.00    +0.000 C 
BRANCH  21  22
ATOM     22  C   UNL     1       4.202   3.658  16.847  0.00  0.00    +0.000 C 
BRANCH  22  23
ATOM     23  C   UNL     1       4.912   4.182  18.085  0.00  0.00    +0.000 C 
BRANCH  23  24
ATOM     24  C   UNL     1       5.912   5.255  17.697  0.00  0.00    +0.000 C 
BRANCH  24  25
ATOM     25  C   UNL     1       5.865   5.502  16.199  0.00  0.00    +0.000 C 
BRANCH  25  26
ATOM     26  C   UNL     1       7.138   4.984  15.549  0.00  0.00    +0.000 C 
BRANCH  26  27
ATOM     27  C   UNL     1       6.978   4.928  14.038  0.00  0.00    +0.000 C 
BRANCH  27  28
ATOM     28  C   UNL     1       6.065   3.774  13.649  0.00  0.00    +0.000 C 
BRANCH  28  29
ATOM     29  C   UNL     1       6.321   3.352  12.208  0.00  0.00    +0.000 C 
BRANCH  29  30
ATOM     30  C   UNL     1       5.096   2.656  11.626  0.00  0.00    +0.000 C 
BRANCH  30  32
ATOM     31  C   UNL     1       3.111   3.101  10.161  0.00  0.00    +0.000 C 
ATOM     32  C   UNL     1       4.032   3.671  11.224  0.00  0.00    +0.000 C 
ENDBRANCH  30  32
ENDBRANCH  29  30
ENDBRANCH  28  29
ENDBRANCH  27  28
ENDBRANCH  26  27
ENDBRANCH  25  26
ENDBRANCH  24  25
ENDBRANCH  23  24
ENDBRANCH  22  23
ENDBRANCH  21  22
ENDBRANCH  20  21
ENDBRANCH  19  20
ENDBRANCH  18  19
ENDBRANCH   1  18
TORSDOF 15
ENDMDL
MODEL 2
REMARK VINA RESULT:      -6.8      2.970      5.016
REMARK  Name = 
REMARK  17 active torsions:
REMARK  status: ('A' for Active; 'I' for Inactive)
REMARK    1  A    between atoms: C_1  and  C_2
REMARK    2  A    between atoms: C_2  and  C_3
REMARK    3  A    between atoms: C_3  and  C_4
REMARK    4  A    between atoms: C_4  and  C_5
REMARK    5  A    between atoms: C_5  and  C_6
REMARK    6  A    between atoms: C_6  and  C_7
REMARK    7  A    between atoms: C_7  and  C_8
REMARK    8  A    between atoms: C_8  and  C_9
REMARK    9  A    between atoms: C_9  and  C_10
REMARK   10  A    between atoms: C_10  and  C_11
REMARK   11  A    between atoms: C_11  and  C_12
REMARK   12  A    between atoms: C_12  and  C_13
REMARK   13  A    between atoms: C_13  and  C_14
REMARK   14  A    between atoms: C_14  and  C_15
REMARK   15  A    between atoms: C_15  and  N_16
REMARK   16  A    between atoms: N_16  and  C_17
REMARK   17  A    between atoms: N_16  and  C_18
REMARK                            x       y       z     vdW  Elec       q    Type
REMARK                         _______ _______ _______ _____ _____    ______ ____
ROOT
ATOM      1  N   UNL     1       1.817   7.711  20.078  0.00  0.00    +0.000 N 
ATOM      2  C   UNL     1       2.246   8.123  18.739  0.00  0.00    +0.000 C 
ENDROOT
BRANCH   1   3
ATOM      3  C   UNL     1       1.074   8.641  20.828  0.00  0.00    +0.000 A 
ATOM      4  C   UNL     1       1.010   8.616  22.224  0.00  0.00    +0.000 A 
ATOM      5  C   UNL     1       0.296   9.586  22.936  0.00  0.00    +0.000 A 
ATOM      6  C   UNL     1      -0.398  10.609  22.284  0.00  0.00    +0.000 A 
ATOM      7  N   UNL     1      -1.057  11.542  23.091  0.00  0.00    +0.000 NA
ATOM      8  C   UNL     1      -1.725  12.526  22.572  0.00  0.00    +0.000 A 
ATOM      9  C   UNL     1      -2.370  13.447  23.541  0.00  0.00    +0.000 A 
ATOM     10  C   UNL     1      -3.087  14.502  23.158  0.00  0.00    +0.000 A 
ATOM     11  C   UNL     1      -3.273  14.809  21.734  0.00  0.00    +0.000 A 
ATOM     12  O   UNL     1      -3.933  15.777  21.373  0.00  0.00    +0.000 OA
ATOM     13  C   UNL     1      -2.647  13.915  20.752  0.00  0.00    +0.000 A 
ATOM     14  C   UNL     1      -1.926  12.851  21.127  0.00  0.00    +0.000 A 
ATOM     15  S   UNL     1      -1.225  11.847  19.917  0.00  0.00    +0.000 S 
ATOM     16  C   UNL     1      -0.385  10.628  20.892  0.00  0.00    +0.000 A 
ATOM     17  C   UNL     1       0.332   9.649  20.190  0.00  0.00    +0.000 A 
ENDBRANCH   1   3
BRANCH   1  18
ATOM     18  C   UNL     1       1.426   6.302  20.299  0.00  0.00    +0.000 C 
BRANCH  18  19
ATOM     19  C   UNL     1       2.521   5.446  20.915  0.00  0.00    +0.000 C 
BRANCH  19  20
ATOM     20  C   UNL     1       2.024   4.039  21.215  0.00  0.00    +0.000 C 
BRANCH  20  21
ATOM     21  C   UNL     1       0.822   3.755  20.329  0.00  0.00    +0.000 C 
BRANCH  21  22
ATOM     22  C   UNL     1       1.054   2.529  19.469  0.00  0.00    +0.000 C 
BRANCH  22  23
ATOM     23  C   UNL     1       1.647   2.953  18.135  0.00  0.00    +0.000 C 
BRANCH  23  24
ATOM     24  C   UNL     1       2.810   2.049  17.771  0.00  0.00    +0.000 C 
BRANCH  24  25
ATOM     25  C   UNL     1       3.917   2.853  17.113  0.00  0.00    +0.000 C 
BRANCH  25  26
ATOM     26  C   UNL     1       4.083   4.185  17.826  0.00  0.00    +0.000 C 
BRANCH  26  27
ATOM     27  C   UNL     1       5.181   4.092  18.874  0.00  0.00    +0.000 C 
BRANCH  27  28
ATOM     28  C   UNL     1       5.846   5.449  19.061  0.00  0.00    +0.000 C 
BRANCH  28  29
ATOM     29  C   UNL     1       5.669   6.308  17.816  0.00  0.00    +0.000 C 
BRANCH  29  30
ATOM     30  C   UNL     1       7.017   6.598  17.168  0.00  0.00    +0.000 C 
BRANCH  30  32
ATOM     31  C   UNL     1       8.080   8.749  17.896  0.00  0.00    +0.000 C 
ATOM     32  C   UNL     1       7.968   7.259  18.159  0.00  0.00    +0.000 C 
ENDBRANCH  30  32
ENDBRANCH  29  30
ENDBRANCH  28  29
ENDBRANCH  27  28
ENDBRANCH  26  27
ENDBRANCH  25  26
ENDBRANCH  24  25
ENDBRANCH  23  24
ENDBRANCH  22  23
ENDBRANCH  21  22
ENDBRANCH  20  21
ENDBRANCH  19  20
ENDBRANCH  18  19
ENDBRANCH   1  18
TORSDOF 15
ENDMDL
MODEL 3
REMARK VINA RESULT:      -6.8      4.975      6.986
REMARK  Name = 
REMARK  17 active torsions:
REMARK  status: ('A' for Active; 'I' for Inactive)
REMARK    1  A    between atoms: C_1  and  C_2
REMARK    2  A    between atoms: C_2  and  C_3
REMARK    3  A    between atoms: C_3  and  C_4
REMARK    4  A    between atoms: C_4  and  C_5
REMARK    5  A    between atoms: C_5  and  C_6
REMARK    6  A    between atoms: C_6  and  C_7
REMARK    7  A    between atoms: C_7  and  C_8
REMARK    8  A    between atoms: C_8  and  C_9
REMARK    9  A    between atoms: C_9  and  C_10
REMARK   10  A    between atoms: C_10  and  C_11
REMARK   11  A    between atoms: C_11  and  C_12
REMARK   12  A    between atoms: C_12  and  C_13
REMARK   13  A    between atoms: C_13  and  C_14
REMARK   14  A    between atoms: C_14  and  C_15
REMARK   15  A    between atoms: C_15  and  N_16
REMARK   16  A    between atoms: N_16  and  C_17
REMARK   17  A    between atoms: N_16  and  C_18
REMARK                            x       y       z     vdW  Elec       q    Type
REMARK                         _______ _______ _______ _____ _____    ______ ____
ROOT
ATOM      1  N   UNL     1       3.322   6.150  18.592  0.00  0.00    +0.000 N 
ATOM      2  C   UNL     1       3.488   5.280  19.758  0.00  0.00    +0.000 C 
ENDROOT
BRANCH   1   3
ATOM      3  C   UNL     1       2.562   7.321  18.767  0.00  0.00    +0.000 A 
ATOM      4  C   UNL     1       2.326   8.238  17.739  0.00  0.00    +0.000 A 
ATOM      5  C   UNL     1       1.527   9.367  17.942  0.00  0.00    +0.000 A 
ATOM      6  C   UNL     1       0.946   9.639  19.184  0.00  0.00    +0.000 A 
ATOM      7  N   UNL     1       0.143  10.781  19.272  0.00  0.00    +0.000 NA
ATOM      8  C   UNL     1      -0.438  11.110  20.385  0.00  0.00    +0.000 A 
ATOM      9  C   UNL     1      -1.267  12.340  20.338  0.00  0.00    +0.000 A 
ATOM     10  C   UNL     1      -1.924  12.801  21.402  0.00  0.00    +0.000 A 
ATOM     11  C   UNL     1      -1.860  12.099  22.690  0.00  0.00    +0.000 A 
ATOM     12  O   UNL     1      -2.459  12.518  23.673  0.00  0.00    +0.000 OA
ATOM     13  C   UNL     1      -1.047  10.879  22.766  0.00  0.00    +0.000 A 
ATOM     14  C   UNL     1      -0.381  10.409  21.704  0.00  0.00    +0.000 A 
ATOM     15  S   UNL     1       0.554   8.973  21.871  0.00  0.00    +0.000 S 
ATOM     16  C   UNL     1       1.202   8.764  20.235  0.00  0.00    +0.000 A 
ATOM     17  C   UNL     1       2.007   7.636  20.019  0.00  0.00    +0.000 A 
ENDBRANCH   1   3
BRANCH   1  18
ATOM     18  C   UNL     1       4.448   6.295  17.644  0.00  0.00    +0.000 C 
BRANCH  18  19
ATOM     19  C   UNL     1       5.337   5.066  17.547  0.00  0.00    +0.000 C 
BRANCH  19  20
ATOM     20  C   UNL     1       6.776   5.444  17.232  0.00  0.00    +0.000 C 
BRANCH  20  21
ATOM     21  C   UNL     1       6.857   6.955  17.089  0.00  0.00    +0.000 C 
BRANCH  21  22
ATOM     22  C   UNL     1       7.843   7.547  18.077  0.00  0.00    +0.000 C 
BRANCH  22  23
ATOM     23  C   UNL     1       8.001   9.034  17.804  0.00  0.00    +0.000 C 
BRANCH  23  24
ATOM     24  C   UNL     1       8.943   9.652  18.821  0.00  0.00    +0.000 C 
BRANCH  24  25
ATOM     25  C   UNL     1       9.306  11.068  18.410  0.00  0.00    +0.000 C 
BRANCH  25  26
ATOM     26  C   UNL     1      10.691  11.418  18.930  0.00  0.00    +0.000 C 
BRANCH  26  27
ATOM     27  C   UNL     1      11.586  11.874  17.789  0.00  0.00    +0.000 C 
BRANCH  27  28
ATOM     28  C   UNL     1      11.020  13.132  17.145  0.00  0.00    +0.000 C 
BRANCH  28  29
ATOM     29  C   UNL     1      11.400  14.365  17.954  0.00  0.00    +0.000 C 
BRANCH  29  30
ATOM     30  C   UNL     1      11.509  15.587  17.050  0.00  0.00    +0.000 C 
BRANCH  30  32
ATOM     31  C   UNL     1       9.621  16.381  18.498  0.00  0.00    +0.000 C 
ATOM     32  C   UNL     1      10.238  16.426  17.111  0.00  0.00    +0.000 C 
ENDBRANCH  30  32
ENDBRANCH  29  30
ENDBRANCH  28  29
ENDBRANCH  27  28
ENDBRANCH  26  27
ENDBRANCH  25  26
ENDBRANCH  24  25
ENDBRANCH  23  24
ENDBRANCH  22  23
ENDBRANCH  21  22
ENDBRANCH  20  21
ENDBRANCH  19  20
ENDBRANCH  18  19
ENDBRANCH   1  18
TORSDOF 15
ENDMDL
MODEL 4
REMARK VINA RESULT:      -6.7      1.981      2.868
REMARK  Name = 
REMARK  17 active torsions:
REMARK  status: ('A' for Active; 'I' for Inactive)
REMARK    1  A    between atoms: C_1  and  C_2
REMARK    2  A    between atoms: C_2  and  C_3
REMARK    3  A    between atoms: C_3  and  C_4
REMARK    4  A    between atoms: C_4  and  C_5
REMARK    5  A    between atoms: C_5  and  C_6
REMARK    6  A    between atoms: C_6  and  C_7
REMARK    7  A    between atoms: C_7  and  C_8
REMARK    8  A    between atoms: C_8  and  C_9
REMARK    9  A    between atoms: C_9  and  C_10
REMARK   10  A    between atoms: C_10  and  C_11
REMARK   11  A    between atoms: C_11  and  C_12
REMARK   12  A    between atoms: C_12  and  C_13
REMARK   13  A    between atoms: C_13  and  C_14
REMARK   14  A    between atoms: C_14  and  C_15
REMARK   15  A    between atoms: C_15  and  N_16
REMARK   16  A    between atoms: N_16  and  C_17
REMARK   17  A    between atoms: N_16  and  C_18
REMARK                            x       y       z     vdW  Elec       q    Type
REMARK                         _______ _______ _______ _____ _____    ______ ____
ROOT
ATOM      1  N   UNL     1       2.684   7.245  19.219  0.00  0.00    +0.000 N 
ATOM      2  C   UNL     1       3.174   6.934  17.873  0.00  0.00    +0.000 C 
ENDROOT
BRANCH   1   3
ATOM      3  C   UNL     1       1.786   8.321  19.341  0.00  0.00    +0.000 A 
ATOM      4  C   UNL     1       1.359   9.085  18.250  0.00  0.00    +0.000 A 
ATOM      5  C   UNL     1       0.430  10.119  18.407  0.00  0.00    +0.000 A 
ATOM      6  C   UNL     1      -0.095  10.448  19.660  0.00  0.00    +0.000 A 
ATOM      7  N   UNL     1      -1.037  11.481  19.702  0.00  0.00    +0.000 NA
ATOM      8  C   UNL     1      -1.578  11.852  20.821  0.00  0.00    +0.000 A 
ATOM      9  C   UNL     1      -2.566  12.954  20.723  0.00  0.00    +0.000 A 
ATOM     10  C   UNL     1      -3.205  13.440  21.787  0.00  0.00    +0.000 A 
ATOM     11  C   UNL     1      -2.958  12.896  23.128  0.00  0.00    +0.000 A 
ATOM     12  O   UNL     1      -3.539  13.339  24.112  0.00  0.00    +0.000 OA
ATOM     13  C   UNL     1      -1.984  11.804  23.255  0.00  0.00    +0.000 A 
ATOM     14  C   UNL     1      -1.336  11.310  22.194  0.00  0.00    +0.000 A 
ATOM     15  S   UNL     1      -0.207  10.031  22.423  0.00  0.00    +0.000 S 
ATOM     16  C   UNL     1       0.349   9.730  20.767  0.00  0.00    +0.000 A 
ATOM     17  C   UNL     1       1.282   8.697  20.597  0.00  0.00    +0.000 A 
ENDBRANCH   1   3
BRANCH   1  18
ATOM     18  C   UNL     1       2.431   6.134  20.160  0.00  0.00    +0.000 C 
BRANCH  18  19
ATOM     19  C   UNL     1       1.669   4.969  19.551  0.00  0.00    +0.000 C 
BRANCH  19  20
ATOM     20  C   UNL     1       2.083   3.645  20.177  0.00  0.00    +0.000 C 
BRANCH  20  21
ATOM     21  C   UNL     1       1.670   2.520  19.242  0.00  0.00    +0.000 C 
BRANCH  21  22
ATOM     22  C   UNL     1       2.165   2.773  17.831  0.00  0.00    +0.000 C 
BRANCH  22  23
ATOM     23  C   UNL     1       3.685   2.733  17.815  0.00  0.00    +0.000 C 
BRANCH  23  24
ATOM     24  C   UNL     1       4.214   3.565  16.661  0.00  0.00    +0.000 C 
BRANCH  24  25
ATOM     25  C   UNL     1       5.483   4.290  17.072  0.00  0.00    +0.000 C 
BRANCH  25  26
ATOM     26  C   UNL     1       6.506   4.219  15.950  0.00  0.00    +0.000 C 
BRANCH  26  27
ATOM     27  C   UNL     1       5.809   4.149  14.601  0.00  0.00    +0.000 C 
BRANCH  27  28
ATOM     28  C   UNL     1       6.822   4.312  13.476  0.00  0.00    +0.000 C 
BRANCH  28  29
ATOM     29  C   UNL     1       6.377   3.541  12.240  0.00  0.00    +0.000 C 
BRANCH  29  30
ATOM     30  C   UNL     1       4.863   3.365  12.233  0.00  0.00    +0.000 C 
BRANCH  30  32
ATOM     31  C   UNL     1       3.068   2.918  10.541  0.00  0.00    +0.000 C 
ATOM     32  C   UNL     1       4.273   3.773  10.888  0.00  0.00    +0.000 C 
ENDBRANCH  30  32
ENDBRANCH  29  30
ENDBRANCH  28  29
ENDBRANCH  27  28
ENDBRANCH  26  27
ENDBRANCH  25  26
ENDBRANCH  24  25
ENDBRANCH  23  24
ENDBRANCH  22  23
ENDBRANCH  21  22
ENDBRANCH  20  21
ENDBRANCH  19  20
ENDBRANCH  18  19
ENDBRANCH   1  18
TORSDOF 15
ENDMDL
MODEL 5
REMARK VINA RESULT:      -6.7      4.576      7.144
REMARK  Name = 
REMARK  17 active torsions:
REMARK  status: ('A' for Active; 'I' for Inactive)
REMARK    1  A    between atoms: C_1  and  C_2
REMARK    2  A    between atoms: C_2  and  C_3
REMARK    3  A    between atoms: C_3  and  C_4
REMARK    4  A    between atoms: C_4  and  C_5
REMARK    5  A    between atoms: C_5  and  C_6
REMARK    6  A    between atoms: C_6  and  C_7
REMARK    7  A    between atoms: C_7  and  C_8
REMARK    8  A    between atoms: C_8  and  C_9
REMARK    9  A    between atoms: C_9  and  C_10
REMARK   10  A    between atoms: C_10  and  C_11
REMARK   11  A    between atoms: C_11  and  C_12
REMARK   12  A    between atoms: C_12  and  C_13
REMARK   13  A    between atoms: C_13  and  C_14
REMARK   14  A    between atoms: C_14  and  C_15
REMARK   15  A    between atoms: C_15  and  N_16
REMARK   16  A    between atoms: N_16  and  C_17
REMARK   17  A    between atoms: N_16  and  C_18
REMARK                            x       y       z     vdW  Elec       q    Type
REMARK                         _______ _______ _______ _____ _____    ______ ____
ROOT
ATOM      1  N   UNL     1       3.937   4.424  18.014  0.00  0.00    +0.000 N 
ATOM      2  C   UNL     1       4.336   3.213  18.735  0.00  0.00    +0.000 C 
ENDROOT
BRANCH   1   3
ATOM      3  C   UNL     1       3.167   5.366  18.719  0.00  0.00    +0.000 A 
ATOM      4  C   UNL     1       2.613   5.109  19.977  0.00  0.00    +0.000 A 
ATOM      5  C   UNL     1       1.891   6.088  20.666  0.00  0.00    +0.000 A 
ATOM      6  C   UNL     1       1.674   7.357  20.122  0.00  0.00    +0.000 A 
ATOM      7  N   UNL     1       0.961   8.270  20.906  0.00  0.00    +0.000 NA
ATOM      8  C   UNL     1       0.715   9.471  20.482  0.00  0.00    +0.000 A 
ATOM      9  C   UNL     1      -0.044  10.340  21.416  0.00  0.00    +0.000 A 
ATOM     10  C   UNL     1      -0.369  11.598  21.120  0.00  0.00    +0.000 A 
ATOM     11  C   UNL     1       0.017  12.193  19.834  0.00  0.00    +0.000 A 
ATOM     12  O   UNL     1      -0.281  13.348  19.553  0.00  0.00    +0.000 OA
ATOM     13  C   UNL     1       0.768  11.357  18.890  0.00  0.00    +0.000 A 
ATOM     14  C   UNL     1       1.099  10.092  19.177  0.00  0.00    +0.000 A 
ATOM     15  S   UNL     1       1.978   9.172  18.017  0.00  0.00    +0.000 S 
ATOM     16  C   UNL     1       2.178   7.622  18.852  0.00  0.00    +0.000 A 
ATOM     17  C   UNL     1       2.899   6.631  18.170  0.00  0.00    +0.000 A 
ENDBRANCH   1   3
BRANCH   1  18
ATOM     18  C   UNL     1       4.879   5.017  17.040  0.00  0.00    +0.000 C 
BRANCH  18  19
ATOM     19  C   UNL     1       6.085   4.144  16.736  0.00  0.00    +0.000 C 
BRANCH  19  20
ATOM     20  C   UNL     1       7.344   4.686  17.396  0.00  0.00    +0.000 C 
BRANCH  20  21
ATOM     21  C   UNL     1       6.937   5.725  18.429  0.00  0.00    +0.000 C 
BRANCH  21  22
ATOM     22  C   UNL     1       7.979   6.820  18.544  0.00  0.00    +0.000 C 
BRANCH  22  23
ATOM     23  C   UNL     1       7.855   7.761  17.356  0.00  0.00    +0.000 C 
BRANCH  23  24
ATOM     24  C   UNL     1       7.831   9.201  17.834  0.00  0.00    +0.000 C 
BRANCH  24  25
ATOM     25  C   UNL     1       8.942   9.440  18.842  0.00  0.00    +0.000 C 
BRANCH  25  26
ATOM     26  C   UNL     1       9.609  10.778  18.568  0.00  0.00    +0.000 C 
BRANCH  26  27
ATOM     27  C   UNL     1       9.432  11.712  19.755  0.00  0.00    +0.000 C 
BRANCH  27  28
ATOM     28  C   UNL     1      10.765  11.933  20.455  0.00  0.00    +0.000 C 
BRANCH  28  29
ATOM     29  C   UNL     1      11.323  13.310  20.122  0.00  0.00    +0.000 C 
BRANCH  29  30
ATOM     30  C   UNL     1      10.266  14.386  20.344  0.00  0.00    +0.000 C 
BRANCH  30  32
ATOM     31  C   UNL     1       9.490  15.010  22.645  0.00  0.00    +0.000 C 
ATOM     32  C   UNL     1      10.570  15.200  21.596  0.00  0.00    +0.000 C 
ENDBRANCH  30  32
ENDBRANCH  29  30
ENDBRANCH  28  29
ENDBRANCH  27  28
ENDBRANCH  26  27
ENDBRANCH  25  26
ENDBRANCH  24  25
ENDBRANCH  23  24
ENDBRANCH  22  23
ENDBRANCH  21  22
ENDBRANCH  20  21
ENDBRANCH  19  20
ENDBRANCH  18  19
ENDBRANCH   1  18
TORSDOF 15
ENDMDL
MODEL 6
REMARK VINA RESULT:      -6.6      4.593      7.472
REMARK  Name = 
REMARK  17 active torsions:
REMARK  status: ('A' for Active; 'I' for Inactive)
REMARK    1  A    between atoms: C_1  and  C_2
REMARK    2  A    between atoms: C_2  and  C_3
REMARK    3  A    between atoms: C_3  and  C_4
REMARK    4  A    between atoms: C_4  and  C_5
REMARK    5  A    between atoms: C_5  and  C_6
REMARK    6  A    between atoms: C_6  and  C_7
REMARK    7  A    between atoms: C_7  and  C_8
REMARK    8  A    between atoms: C_8  and  C_9
REMARK    9  A    between atoms: C_9  and  C_10
REMARK   10  A    between atoms: C_10  and  C_11
REMARK   11  A    between atoms: C_11  and  C_12
REMARK   12  A    between atoms: C_12  and  C_13
REMARK   13  A    between atoms: C_13  and  C_14
REMARK   14  A    between atoms: C_14  and  C_15
REMARK   15  A    between atoms: C_15  and  N_16
REMARK   16  A    between atoms: N_16  and  C_17
REMARK   17  A    between atoms: N_16  and  C_18
REMARK                            x       y       z     vdW  Elec       q    Type
REMARK                         _______ _______ _______ _____ _____    ______ ____
ROOT
ATOM      1  N   UNL     1       4.054   4.307  17.741  0.00  0.00    +0.000 N 
ATOM      2  C   UNL     1       3.487   2.968  17.558  0.00  0.00    +0.000 C 
ENDROOT
BRANCH   1   3
ATOM      3  C   UNL     1       3.319   5.212  18.528  0.00  0.00    +0.000 A 
ATOM      4  C   UNL     1       2.877   4.913  19.820  0.00  0.00    +0.000 A 
ATOM      5  C   UNL     1       2.188   5.858  20.588  0.00  0.00    +0.000 A 
ATOM      6  C   UNL     1       1.894   7.131  20.093  0.00  0.00    +0.000 A 
ATOM      7  N   UNL     1       1.223   8.007  20.952  0.00  0.00    +0.000 NA
ATOM      8  C   UNL     1       0.912   9.209  20.577  0.00  0.00    +0.000 A 
ATOM      9  C   UNL     1       0.209  10.037  21.589  0.00  0.00    +0.000 A 
ATOM     10  C   UNL     1      -0.173  11.290  21.349  0.00  0.00    +0.000 A 
ATOM     11  C   UNL     1       0.091  11.923  20.050  0.00  0.00    +0.000 A 
ATOM     12  O   UNL     1      -0.259  13.075  19.820  0.00  0.00    +0.000 OA
ATOM     13  C   UNL     1       0.785  11.127  19.029  0.00  0.00    +0.000 A 
ATOM     14  C   UNL     1       1.171   9.867  19.259  0.00  0.00    +0.000 A 
ATOM     15  S   UNL     1       1.977   8.997  18.012  0.00  0.00    +0.000 S 
ATOM     16  C   UNL     1       2.285   7.436  18.792  0.00  0.00    +0.000 A 
ATOM     17  C   UNL     1       2.974   6.480  18.031  0.00  0.00    +0.000 A 
ENDBRANCH   1   3
BRANCH   1  18
ATOM     18  C   UNL     1       5.521   4.449  17.862  0.00  0.00    +0.000 C 
BRANCH  18  19
ATOM     19  C   UNL     1       6.133   5.411  16.857  0.00  0.00    +0.000 C 
BRANCH  19  20
ATOM     20  C   UNL     1       7.470   5.950  17.346  0.00  0.00    +0.000 C 
BRANCH  20  21
ATOM     21  C   UNL     1       7.406   7.468  17.345  0.00  0.00    +0.000 C 
BRANCH  21  22
ATOM     22  C   UNL     1       8.229   8.051  18.477  0.00  0.00    +0.000 C 
BRANCH  22  23
ATOM     23  C   UNL     1       8.554   9.505  18.169  0.00  0.00    +0.000 C 
BRANCH  23  24
ATOM     24  C   UNL     1       9.278  10.135  19.343  0.00  0.00    +0.000 C 
BRANCH  24  25
ATOM     25  C   UNL     1      10.270  11.176  18.853  0.00  0.00    +0.000 C 
BRANCH  25  26
ATOM     26  C   UNL     1      10.761  12.013  20.023  0.00  0.00    +0.000 C 
BRANCH  26  27
ATOM     27  C   UNL     1      10.183  13.418  19.950  0.00  0.00    +0.000 C 
BRANCH  27  28
ATOM     28  C   UNL     1       9.115  13.604  21.017  0.00  0.00    +0.000 C 
BRANCH  28  29
ATOM     29  C   UNL     1       9.307  12.601  22.147  0.00  0.00    +0.000 C 
BRANCH  29  30
ATOM     30  C   UNL     1       8.577  13.061  23.404  0.00  0.00    +0.000 C 
BRANCH  30  32
ATOM     31  C   UNL     1       6.649  11.641  24.149  0.00  0.00    +0.000 C 
ATOM     32  C   UNL     1       8.146  11.870  24.252  0.00  0.00    +0.000 C 
ENDBRANCH  30  32
ENDBRANCH  29  30
ENDBRANCH  28  29
ENDBRANCH  27  28
ENDBRANCH  26  27
ENDBRANCH  25  26
ENDBRANCH  24  25
ENDBRANCH  23  24
ENDBRANCH  22  23
ENDBRANCH  21  22
ENDBRANCH  20  21
ENDBRANCH  19  20
ENDBRANCH  18  19
ENDBRANCH   1  18
TORSDOF 15
ENDMDL
MODEL 7
REMARK VINA RESULT:      -6.5      2.452      4.258
REMARK  Name = 
REMARK  17 active torsions:
REMARK  status: ('A' for Active; 'I' for Inactive)
REMARK    1  A    between atoms: C_1  and  C_2
REMARK    2  A    between atoms: C_2  and  C_3
REMARK    3  A    between atoms: C_3  and  C_4
REMARK    4  A    between atoms: C_4  and  C_5
REMARK    5  A    between atoms: C_5  and  C_6
REMARK    6  A    between atoms: C_6  and  C_7
REMARK    7  A    between atoms: C_7  and  C_8
REMARK    8  A    between atoms: C_8  and  C_9
REMARK    9  A    between atoms: C_9  and  C_10
REMARK   10  A    between atoms: C_10  and  C_11
REMARK   11  A    between atoms: C_11  and  C_12
REMARK   12  A    between atoms: C_12  and  C_13
REMARK   13  A    between atoms: C_13  and  C_14
REMARK   14  A    between atoms: C_14  and  C_15
REMARK   15  A    between atoms: C_15  and  N_16
REMARK   16  A    between atoms: N_16  and  C_17
REMARK   17  A    between atoms: N_16  and  C_18
REMARK                            x       y       z     vdW  Elec       q    Type
REMARK                         _______ _______ _______ _____ _____    ______ ____
ROOT
ATOM      1  N   UNL     1       2.399   7.408  19.182  0.00  0.00    +0.000 N 
ATOM      2  C   UNL     1       2.328   6.754  17.873  0.00  0.00    +0.000 C 
ENDROOT
BRANCH   1   3
ATOM      3  C   UNL     1       1.691   8.613  19.336  0.00  0.00    +0.000 A 
ATOM      4  C   UNL     1       1.579   9.566  18.319  0.00  0.00    +0.000 A 
ATOM      5  C   UNL     1       0.827  10.733  18.497  0.00  0.00    +0.000 A 
ATOM      6  C   UNL     1       0.173  11.006  19.701  0.00  0.00    +0.000 A 
ATOM      7  N   UNL     1      -0.574  12.187  19.765  0.00  0.00    +0.000 NA
ATOM      8  C   UNL     1      -1.215  12.520  20.842  0.00  0.00    +0.000 A 
ATOM      9  C   UNL     1      -1.973  13.794  20.771  0.00  0.00    +0.000 A 
ATOM     10  C   UNL     1      -2.680  14.265  21.798  0.00  0.00    +0.000 A 
ATOM     11  C   UNL     1      -2.746  13.530  23.067  0.00  0.00    +0.000 A 
ATOM     12  O   UNL     1      -3.392  13.957  24.017  0.00  0.00    +0.000 OA
ATOM     13  C   UNL     1      -2.005  12.266  23.166  0.00  0.00    +0.000 A 
ATOM     14  C   UNL     1      -1.291  11.785  22.142  0.00  0.00    +0.000 A 
ATOM     15  S   UNL     1      -0.447  10.297  22.334  0.00  0.00    +0.000 S 
ATOM     16  C   UNL     1       0.306  10.092  20.743  0.00  0.00    +0.000 A 
ATOM     17  C   UNL     1       1.064   8.928  20.554  0.00  0.00    +0.000 A 
ENDBRANCH   1   3
BRANCH   1  18
ATOM     18  C   UNL     1       2.439   6.568  20.398  0.00  0.00    +0.000 C 
BRANCH  18  19
ATOM     19  C   UNL     1       2.340   5.077  20.122  0.00  0.00    +0.000 C 
BRANCH  19  20
ATOM     20  C   UNL     1       0.979   4.526  20.521  0.00  0.00    +0.000 C 
BRANCH  20  21
ATOM     21  C   UNL     1       0.921   3.058  20.133  0.00  0.00    +0.000 C 
BRANCH  21  22
ATOM     22  C   UNL     1       1.518   2.832  18.758  0.00  0.00    +0.000 C 
BRANCH  22  23
ATOM     23  C   UNL     1       2.514   1.684  18.822  0.00  0.00    +0.000 C 
BRANCH  23  24
ATOM     24  C   UNL     1       3.545   1.828  17.718  0.00  0.00    +0.000 C 
BRANCH  24  25
ATOM     25  C   UNL     1       4.152   3.220  17.741  0.00  0.00    +0.000 C 
BRANCH  25  26
ATOM     26  C   UNL     1       3.927   3.904  16.403  0.00  0.00    +0.000 C 
BRANCH  26  27
ATOM     27  C   UNL     1       5.110   4.794  16.057  0.00  0.00    +0.000 C 
BRANCH  27  28
ATOM     28  C   UNL     1       6.388   3.970  15.988  0.00  0.00    +0.000 C 
BRANCH  28  29
ATOM     29  C   UNL     1       7.522   4.678  16.717  0.00  0.00    +0.000 C 
BRANCH  29  30
ATOM     30  C   UNL     1       7.176   4.874  18.188  0.00  0.00    +0.000 C 
BRANCH  30  32
ATOM     31  C   UNL     1       7.497   7.312  17.697  0.00  0.00    +0.000 C 
ATOM     32  C   UNL     1       7.721   6.200  18.705  0.00  0.00    +0.000 C 
ENDBRANCH  30  32
ENDBRANCH  29  30
ENDBRANCH  28  29
ENDBRANCH  27  28
ENDBRANCH  26  27
ENDBRANCH  25  26
ENDBRANCH  24  25
ENDBRANCH  23  24
ENDBRANCH  22  23
ENDBRANCH  21  22
ENDBRANCH  20  21
ENDBRANCH  19  20
ENDBRANCH  18  19
ENDBRANCH   1  18
TORSDOF 15
ENDMDL
MODEL 8
REMARK VINA RESULT:      -6.5      5.201      8.129
REMARK  Name = 
REMARK  17 active torsions:
REMARK  status: ('A' for Active; 'I' for Inactive)
REMARK    1  A    between atoms: C_1  and  C_2
REMARK    2  A    between atoms: C_2  and  C_3
REMARK    3  A    between atoms: C_3  and  C_4
REMARK    4  A    between atoms: C_4  and  C_5
REMARK    5  A    between atoms: C_5  and  C_6
REMARK    6  A    between atoms: C_6  and  C_7
REMARK    7  A    between atoms: C_7  and  C_8
REMARK    8  A    between atoms: C_8  and  C_9
REMARK    9  A    between atoms: C_9  and  C_10
REMARK   10  A    between atoms: C_10  and  C_11
REMARK   11  A    between atoms: C_11  and  C_12
REMARK   12  A    between atoms: C_12  and  C_13
REMARK   13  A    between atoms: C_13  and  C_14
REMARK   14  A    between atoms: C_14  and  C_15
REMARK   15  A    between atoms: C_15  and  N_16
REMARK   16  A    between atoms: N_16  and  C_17
REMARK   17  A    between atoms: N_16  and  C_18
REMARK                            x       y       z     vdW  Elec       q    Type
REMARK                         _______ _______ _______ _____ _____    ______ ____
ROOT
ATOM      1  N   UNL     1       5.308   5.329  16.721  0.00  0.00    +0.000 N 
ATOM      2  C   UNL     1       5.161   3.949  16.250  0.00  0.00    +0.000 C 
ENDROOT
BRANCH   1   3
ATOM      3  C   UNL     1       4.389   5.779  17.686  0.00  0.00    +0.000 A 
ATOM      4  C   UNL     1       4.118   5.078  18.865  0.00  0.00    +0.000 A 
ATOM      5  C   UNL     1       3.230   5.582  19.821  0.00  0.00    +0.000 A 
ATOM      6  C   UNL     1       2.561   6.794  19.632  0.00  0.00    +0.000 A 
ATOM      7  N   UNL     1       1.715   7.219  20.662  0.00  0.00    +0.000 NA
ATOM      8  C   UNL     1       1.056   8.333  20.574  0.00  0.00    +0.000 A 
ATOM      9  C   UNL     1       0.201   8.668  21.740  0.00  0.00    +0.000 A 
ATOM     10  C   UNL     1      -0.533   9.779  21.794  0.00  0.00    +0.000 A 
ATOM     11  C   UNL     1      -0.528  10.740  20.684  0.00  0.00    +0.000 A 
ATOM     12  O   UNL     1      -1.202  11.763  20.724  0.00  0.00    +0.000 OA
ATOM     13  C   UNL     1       0.308  10.434  19.516  0.00  0.00    +0.000 A 
ATOM     14  C   UNL     1       1.048   9.321  19.451  0.00  0.00    +0.000 A 
ATOM     15  S   UNL     1       2.001   9.029  18.048  0.00  0.00    +0.000 S 
ATOM     16  C   UNL     1       2.781   7.488  18.446  0.00  0.00    +0.000 A 
ATOM     17  C   UNL     1       3.672   6.972  17.494  0.00  0.00    +0.000 A 
ENDBRANCH   1   3
BRANCH   1  18
ATOM     18  C   UNL     1       6.668   5.891  16.870  0.00  0.00    +0.000 C 
BRANCH  18  19
ATOM     19  C   UNL     1       6.691   7.379  17.176  0.00  0.00    +0.000 C 
BRANCH  19  20
ATOM     20  C   UNL     1       7.935   7.764  17.965  0.00  0.00    +0.000 C 
BRANCH  20  21
ATOM     21  C   UNL     1       8.083   9.276  17.921  0.00  0.00    +0.000 C 
BRANCH  21  22
ATOM     22  C   UNL     1       9.252   9.736  18.769  0.00  0.00    +0.000 C 
BRANCH  22  23
ATOM     23  C   UNL     1       9.442  11.235  18.598  0.00  0.00    +0.000 C 
BRANCH  23  24
ATOM     24  C   UNL     1      10.921  11.575  18.597  0.00  0.00    +0.000 C 
BRANCH  24  25
ATOM     25  C   UNL     1      11.118  13.068  18.791  0.00  0.00    +0.000 C 
BRANCH  25  26
ATOM     26  C   UNL     1      11.275  13.381  20.271  0.00  0.00    +0.000 C 
BRANCH  26  27
ATOM     27  C   UNL     1      10.353  14.521  20.672  0.00  0.00    +0.000 C 
BRANCH  27  28
ATOM     28  C   UNL     1       9.509  14.118  21.873  0.00  0.00    +0.000 C 
BRANCH  28  29
ATOM     29  C   UNL     1       8.434  13.121  21.461  0.00  0.00    +0.000 C 
BRANCH  29  30
ATOM     30  C   UNL     1       8.529  11.852  22.300  0.00  0.00    +0.000 C 
BRANCH  30  32
ATOM     31  C   UNL     1       7.297  11.636  24.473  0.00  0.00    +0.000 C 
ATOM     32  C   UNL     1       8.537  12.181  23.788  0.00  0.00    +0.000 C 
ENDBRANCH  30  32
ENDBRANCH  29  30
ENDBRANCH  28  29
ENDBRANCH  27  28
ENDBRANCH  26  27
ENDBRANCH  25  26
ENDBRANCH  24  25
ENDBRANCH  23  24
ENDBRANCH  22  23
ENDBRANCH  21  22
ENDBRANCH  20  21
ENDBRANCH  19  20
ENDBRANCH  18  19
ENDBRANCH   1  18
TORSDOF 15
ENDMDL
MODEL 9
REMARK VINA RESULT:      -6.5      1.836      2.888
REMARK  Name = 
REMARK  17 active torsions:
REMARK  status: ('A' for Active; 'I' for Inactive)
REMARK    1  A    between atoms: C_1  and  C_2
REMARK    2  A    between atoms: C_2  and  C_3
REMARK    3  A    between atoms: C_3  and  C_4
REMARK    4  A    between atoms: C_4  and  C_5
REMARK    5  A    between atoms: C_5  and  C_6
REMARK    6  A    between atoms: C_6  and  C_7
REMARK    7  A    between atoms: C_7  and  C_8
REMARK    8  A    between atoms: C_8  and  C_9
REMARK    9  A    between atoms: C_9  and  C_10
REMARK   10  A    between atoms: C_10  and  C_11
REMARK   11  A    between atoms: C_11  and  C_12
REMARK   12  A    between atoms: C_12  and  C_13
REMARK   13  A    between atoms: C_13  and  C_14
REMARK   14  A    between atoms: C_14  and  C_15
REMARK   15  A    between atoms: C_15  and  N_16
REMARK   16  A    between atoms: N_16  and  C_17
REMARK   17  A    between atoms: N_16  and  C_18
REMARK                            x       y       z     vdW  Elec       q    Type
REMARK                         _______ _______ _______ _____ _____    ______ ____
ROOT
ATOM      1  N   UNL     1       2.807   6.905  18.734  0.00  0.00    +0.000 N 
ATOM      2  C   UNL     1       4.048   7.107  17.982  0.00  0.00    +0.000 C 
ENDROOT
BRANCH   1   3
ATOM      3  C   UNL     1       1.994   8.033  18.945  0.00  0.00    +0.000 A 
ATOM      4  C   UNL     1       1.677   8.943  17.933  0.00  0.00    +0.000 A 
ATOM      5  C   UNL     1       0.828  10.029  18.173  0.00  0.00    +0.000 A 
ATOM      6  C   UNL     1       0.277  10.263  19.436  0.00  0.00    +0.000 A 
ATOM      7  N   UNL     1      -0.580  11.362  19.561  0.00  0.00    +0.000 NA
ATOM      8  C   UNL     1      -1.137  11.653  20.695  0.00  0.00    +0.000 A 
ATOM      9  C   UNL     1      -2.029  12.839  20.687  0.00  0.00    +0.000 A 
ATOM     10  C   UNL     1      -2.672  13.259  21.776  0.00  0.00    +0.000 A 
ATOM     11  C   UNL     1      -2.527  12.553  23.056  0.00  0.00    +0.000 A 
ATOM     12  O   UNL     1      -3.112  12.935  24.063  0.00  0.00    +0.000 OA
ATOM     13  C   UNL     1      -1.650  11.376  23.094  0.00  0.00    +0.000 A 
ATOM     14  C   UNL     1      -0.999  10.947  22.006  0.00  0.00    +0.000 A 
ATOM     15  S   UNL     1       0.014   9.561  22.129  0.00  0.00    +0.000 S 
ATOM     16  C   UNL     1       0.614   9.395  20.470  0.00  0.00    +0.000 A 
ATOM     17  C   UNL     1       1.468   8.311  20.218  0.00  0.00    +0.000 A 
ENDBRANCH   1   3
BRANCH   1  18
ATOM     18  C   UNL     1       2.057   5.644  18.548  0.00  0.00    +0.000 C 
BRANCH  18  19
ATOM     19  C   UNL     1       1.873   4.840  19.825  0.00  0.00    +0.000 C 
BRANCH  19  20
ATOM     20  C   UNL     1       0.770   3.802  19.674  0.00  0.00    +0.000 C 
BRANCH  20  21
ATOM     21  C   UNL     1       1.284   2.680  18.787  0.00  0.00    +0.000 C 
BRANCH  21  22
ATOM     22  C   UNL     1       2.629   2.173  19.271  0.00  0.00    +0.000 C 
BRANCH  22  23
ATOM     23  C   UNL     1       3.663   2.355  18.171  0.00  0.00    +0.000 C 
BRANCH  23  24
ATOM     24  C   UNL     1       4.828   3.181  18.684  0.00  0.00    +0.000 C 
BRANCH  24  25
ATOM     25  C   UNL     1       5.354   4.090  17.586  0.00  0.00    +0.000 C 
BRANCH  25  26
ATOM     26  C   UNL     1       4.467   3.981  16.356  0.00  0.00    +0.000 C 
BRANCH  26  27
ATOM     27  C   UNL     1       4.977   4.893  15.252  0.00  0.00    +0.000 C 
BRANCH  27  28
ATOM     28  C   UNL     1       6.498   4.855  15.198  0.00  0.00    +0.000 C 
BRANCH  28  29
ATOM     29  C   UNL     1       6.975   4.532  13.789  0.00  0.00    +0.000 C 
BRANCH  29  30
ATOM     30  C   UNL     1       6.306   3.263  13.273  0.00  0.00    +0.000 C 
BRANCH  30  32
ATOM     31  C   UNL     1       4.446   3.278  11.592  0.00  0.00    +0.000 C 
ATOM     32  C   UNL     1       5.945   3.397  11.799  0.00  0.00    +0.000 C 
ENDBRANCH  30  32
ENDBRANCH  29  30
ENDBRANCH  28  29
ENDBRANCH  27  28
ENDBRANCH  26  27
ENDBRANCH  25  26
ENDBRANCH  24  25
ENDBRANCH  23  24
ENDBRANCH  22  23
ENDBRANCH  21  22
ENDBRANCH  20  21
ENDBRANCH  19  20
ENDBRANCH  18  19
ENDBRANCH   1  18
TORSDOF 15
ENDMDL
