MODEL 1
REMARK VINA RESULT:      -8.0      0.000      0.000
REMARK  Name = 
REMARK  5 active torsions:
REMARK  status: ('A' for Active; 'I' for Inactive)
REMARK    1  A    between atoms: C_2  and  C_3
REMARK    2  A    between atoms: C_11  and  N_12
REMARK    3  A    between atoms: C_17  and  N_18
REMARK    4  A    between atoms: C_20  and  C_21
REMARK    5  A    between atoms: C_25  and  C_26
REMARK                            x       y       z     vdW  Elec       q    Type
REMARK                         _______ _______ _______ _____ _____    ______ ____
ROOT
ATOM      1  N   UNL     1       1.780   7.092  20.343  0.00  0.00    +0.000 N 
ATOM      2  C   UNL     1       1.564   8.354  19.816  0.00  0.00    +0.000 A 
ATOM      3  N   UNL     1       1.633   8.557  18.494  0.00  0.00    +0.000 NA
ATOM      4  C   UNL     1       1.343   9.790  18.046  0.00  0.00    +0.000 A 
ATOM      5  C   UNL     1       0.943  10.821  18.858  0.00  0.00    +0.000 A 
ATOM      6  C   UNL     1       0.866  10.517  20.201  0.00  0.00    +0.000 A 
ATOM      7  N   UNL     1       1.229   9.310  20.687  0.00  0.00    +0.000 NA
ATOM      8  H   UNL     1       2.560   7.152  20.991  0.00  0.00    +0.000 HD
ENDROOT
BRANCH   1  14
ATOM      9  O   UNL     1       4.999   2.735  20.098  0.00  0.00    +0.000 OA
ATOM     10  C   UNL     1       4.841   3.781  19.459  0.00  0.00    +0.000 C 
ATOM     11  N   UNL     1       3.691   4.542  19.677  0.00  0.00    +0.000 N 
ATOM     12  C   UNL     1       2.678   4.133  20.628  0.00  0.00    +0.000 C 
ATOM     13  C   UNL     1       1.385   4.696  20.060  0.00  0.00    +0.000 C 
ATOM     14  C   UNL     1       1.819   5.996  19.379  0.00  0.00    +0.000 C 
ATOM     15  C   UNL     1       3.234   5.680  18.878  0.00  0.00    +0.000 C 
BRANCH  10  16
ATOM     16  C   UNL     1       5.814   4.253  18.462  0.00  0.00    +0.000 A 
ATOM     17  N   UNL     1       6.944   4.880  18.740  0.00  0.00    +0.000 NA
ATOM     18  C   UNL     1       7.622   5.178  17.578  0.00  0.00    +0.000 A 
ATOM     19  C   UNL     1       7.001   4.785  16.414  0.00  0.00    +0.000 A 
ATOM     20  S   UNL     1       5.523   3.999  16.782  0.00  0.00    +0.000 S 
ENDBRANCH  10  16
ENDBRANCH   1  14
BRANCH   6  21
ATOM     21  N   UNL     1       0.324  11.480  21.102  0.00  0.00    +0.000 N 
ATOM     22  C   UNL     1      -0.628  11.213  22.067  0.00  0.00    +0.000 A 
ATOM     23  C   UNL     1      -0.959  12.425  22.612  0.00  0.00    +0.000 A 
ATOM     24  N   UNL     1      -0.198  13.422  22.081  0.00  0.00    +0.000 NA
ATOM     25  C   UNL     1       0.611  12.850  21.196  0.00  0.00    +0.000 A 
BRANCH  25  26
ATOM     26  C   UNL     1       1.659  13.591  20.470  0.00  0.00    +0.000 A 
ATOM     27  C   UNL     1       1.393  14.052  19.171  0.00  0.00    +0.000 A 
ATOM     28  C   UNL     1       2.383  14.685  18.414  0.00  0.00    +0.000 A 
ATOM     29  C   UNL     1       3.657  14.866  18.948  0.00  0.00    +0.000 A 
ATOM     30  C   UNL     1       3.915  14.467  20.256  0.00  0.00    +0.000 A 
ATOM     31 CL   UNL     1       5.490  14.679  20.920  0.00  0.00    +0.000 Cl
ATOM     32  C   UNL     1       2.915  13.874  21.027  0.00  0.00    +0.000 A 
ENDBRANCH  25  26
BRANCH  23  33
ATOM     33  C   UNL     1      -2.046  12.616  23.649  0.00  0.00    +0.000 C 
ATOM     34  C   UNL     1      -2.715  13.970  23.749  0.00  0.00    +0.000 C 
ATOM     35  C   UNL     1      -3.466  12.823  23.165  0.00  0.00    +0.000 C 
ENDBRANCH  23  33
ENDBRANCH   6  21
TORSDOF 5
ENDMDL
MODEL 2
REMARK VINA RESULT:      -7.9      4.692     10.342
REMARK  Name = 
REMARK  5 active torsions:
REMARK  status: ('A' for Active; 'I' for Inactive)
REMARK    1  A    between atoms: C_2  and  C_3
REMARK    2  A    between atoms: C_11  and  N_12
REMARK    3  A    between atoms: C_17  and  N_18
REMARK    4  A    between atoms: C_20  and  C_21
REMARK    5  A    between atoms: C_25  and  C_26
REMARK                            x       y       z     vdW  Elec       q    Type
REMARK                         _______ _______ _______ _____ _____    ______ ____
ROOT
ATOM      1  N   UNL     1       1.121  10.388  18.592  0.00  0.00    +0.000 N 
ATOM      2  C   UNL     1       1.571   9.198  19.141  0.00  0.00    +0.000 A 
ATOM      3  N   UNL     1       1.117   8.788  20.333  0.00  0.00    +0.000 NA
ATOM      4  C   UNL     1       1.540   7.592  20.772  0.00  0.00    +0.000 A 
ATOM      5  C   UNL     1       2.365   6.764  20.053  0.00  0.00    +0.000 A 
ATOM      6  C   UNL     1       2.757   7.249  18.823  0.00  0.00    +0.000 A 
ATOM      7  N   UNL     1       2.412   8.480  18.392  0.00  0.00    +0.000 NA
ATOM      8  H   UNL     1       1.927  10.987  18.441  0.00  0.00    +0.000 HD
ENDROOT
BRANCH   1  14
ATOM      9  O   UNL     1      -0.634  15.518  18.555  0.00  0.00    +0.000 OA
ATOM     10  C   UNL     1      -0.116  14.744  19.367  0.00  0.00    +0.000 C 
ATOM     11  N   UNL     1      -0.065  13.381  19.069  0.00  0.00    +0.000 N 
ATOM     12  C   UNL     1      -0.609  12.853  17.835  0.00  0.00    +0.000 C 
ATOM     13  C   UNL     1      -1.048  11.443  18.196  0.00  0.00    +0.000 C 
ATOM     14  C   UNL     1      -0.030  11.000  19.249  0.00  0.00    +0.000 C 
ATOM     15  C   UNL     1       0.313  12.302  19.982  0.00  0.00    +0.000 C 
BRANCH  10  16
ATOM     16  C   UNL     1       0.441  15.201  20.650  0.00  0.00    +0.000 A 
ATOM     17  N   UNL     1       1.724  15.411  20.891  0.00  0.00    +0.000 NA
ATOM     18  C   UNL     1       1.901  15.837  22.189  0.00  0.00    +0.000 A 
ATOM     19  C   UNL     1       0.752  15.944  22.939  0.00  0.00    +0.000 A 
ATOM     20  S   UNL     1      -0.605  15.510  21.985  0.00  0.00    +0.000 S 
ENDBRANCH  10  16
ENDBRANCH   1  14
BRANCH   6  21
ATOM     21  N   UNL     1       3.495   6.401  17.945  0.00  0.00    +0.000 N 
ATOM     22  C   UNL     1       4.498   6.824  17.093  0.00  0.00    +0.000 A 
ATOM     23  C   UNL     1       4.843   5.728  16.349  0.00  0.00    +0.000 A 
ATOM     24  N   UNL     1       4.154   4.625  16.754  0.00  0.00    +0.000 NA
ATOM     25  C   UNL     1       3.366   5.018  17.749  0.00  0.00    +0.000 A 
BRANCH  25  26
ATOM     26  C   UNL     1       2.523   4.085  18.521  0.00  0.00    +0.000 A 
ATOM     27  C   UNL     1       1.312   3.643  17.966  0.00  0.00    +0.000 A 
ATOM     28  C   UNL     1       0.441   2.826  18.694  0.00  0.00    +0.000 A 
ATOM     29  C   UNL     1       0.772   2.439  19.991  0.00  0.00    +0.000 A 
ATOM     30  C   UNL     1       1.997   2.822  20.529  0.00  0.00    +0.000 A 
ATOM     31 CL   UNL     1       2.409   2.356  22.134  0.00  0.00    +0.000 Cl
ATOM     32  C   UNL     1       2.885   3.602  19.787  0.00  0.00    +0.000 A 
ENDBRANCH  25  26
BRANCH  23  33
ATOM     33  C   UNL     1       5.844   5.761  15.212  0.00  0.00    +0.000 C 
ATOM     34  C   UNL     1       7.048   4.848  15.286  0.00  0.00    +0.000 C 
ATOM     35  C   UNL     1       5.955   4.541  14.322  0.00  0.00    +0.000 C 
ENDBRANCH  23  33
ENDBRANCH   6  21
TORSDOF 5
ENDMDL
MODEL 3
REMARK VINA RESULT:      -7.9      0.907      1.242
REMARK  Name = 
REMARK  5 active torsions:
REMARK  status: ('A' for Active; 'I' for Inactive)
REMARK    1  A    between atoms: C_2  and  C_3
REMARK    2  A    between atoms: C_11  and  N_12
REMARK    3  A    between atoms: C_17  and  N_18
REMARK    4  A    between atoms: C_20  and  C_21
REMARK    5  A    between atoms: C_25  and  C_26
REMARK                            x       y       z     vdW  Elec       q    Type
REMARK                         _______ _______ _______ _____ _____    ______ ____
ROOT
ATOM      1  N   UNL     1       1.944   7.405  20.288  0.00  0.00    +0.000 N 
ATOM      2  C   UNL     1       1.635   8.640  19.741  0.00  0.00    +0.000 A 
ATOM      3  N   UNL     1       1.526   8.784  18.414  0.00  0.00    +0.000 NA
ATOM      4  C   UNL     1       1.154   9.991  17.956  0.00  0.00    +0.000 A 
ATOM      5  C   UNL     1       0.843  11.051  18.769  0.00  0.00    +0.000 A 
ATOM      6  C   UNL     1       0.948  10.806  20.122  0.00  0.00    +0.000 A 
ATOM      7  N   UNL     1       1.397   9.629  20.607  0.00  0.00    +0.000 NA
ATOM      8  H   UNL     1       2.801   7.507  20.825  0.00  0.00    +0.000 HD
ENDROOT
BRANCH   1  14
ATOM      9  O   UNL     1       4.877   2.847  20.134  0.00  0.00    +0.000 OA
ATOM     10  C   UNL     1       4.760   3.872  19.454  0.00  0.00    +0.000 C 
ATOM     11  N   UNL     1       3.667   4.713  19.675  0.00  0.00    +0.000 N 
ATOM     12  C   UNL     1       2.667   4.411  20.678  0.00  0.00    +0.000 C 
ATOM     13  C   UNL     1       1.392   5.030  20.129  0.00  0.00    +0.000 C 
ATOM     14  C   UNL     1       1.880   6.268  19.375  0.00  0.00    +0.000 C 
ATOM     15  C   UNL     1       3.253   5.841  18.841  0.00  0.00    +0.000 C 
BRANCH  10  16
ATOM     16  C   UNL     1       5.723   4.237  18.403  0.00  0.00    +0.000 A 
ATOM     17  N   UNL     1       6.927   4.738  18.617  0.00  0.00    +0.000 NA
ATOM     18  C   UNL     1       7.569   4.963  17.418  0.00  0.00    +0.000 A 
ATOM     19  C   UNL     1       6.848   4.639  16.291  0.00  0.00    +0.000 A 
ATOM     20  S   UNL     1       5.315   4.017  16.743  0.00  0.00    +0.000 S 
ENDBRANCH  10  16
ENDBRANCH   1  14
BRANCH   6  21
ATOM     21  N   UNL     1       0.509  11.801  21.045  0.00  0.00    +0.000 N 
ATOM     22  C   UNL     1      -0.541  11.650  21.930  0.00  0.00    +0.000 A 
ATOM     23  C   UNL     1      -0.706  12.872  22.527  0.00  0.00    +0.000 A 
ATOM     24  N   UNL     1       0.245  13.752  22.107  0.00  0.00    +0.000 NA
ATOM     25  C   UNL     1       1.010  13.097  21.241  0.00  0.00    +0.000 A 
BRANCH  25  26
ATOM     26  C   UNL     1       2.216  13.686  20.629  0.00  0.00    +0.000 A 
ATOM     27  C   UNL     1       3.387  13.790  21.394  0.00  0.00    +0.000 A 
ATOM     28  C   UNL     1       4.528  14.417  20.884  0.00  0.00    +0.000 A 
ATOM     29  C   UNL     1       4.512  14.950  19.597  0.00  0.00    +0.000 A 
ATOM     30  C   UNL     1       3.376  14.799  18.807  0.00  0.00    +0.000 A 
ATOM     31 CL   UNL     1       3.344  15.463  17.218  0.00  0.00    +0.000 Cl
ATOM     32  C   UNL     1       2.252  14.136  19.300  0.00  0.00    +0.000 A 
ENDBRANCH  25  26
BRANCH  23  33
ATOM     33  C   UNL     1      -1.819  13.191  23.504  0.00  0.00    +0.000 C 
ATOM     34  C   UNL     1      -1.873  14.579  24.104  0.00  0.00    +0.000 C 
ATOM     35  C   UNL     1      -2.879  14.185  23.078  0.00  0.00    +0.000 C 
ENDBRANCH  23  33
ENDBRANCH   6  21
TORSDOF 5
ENDMDL
MODEL 4
REMARK VINA RESULT:      -7.5      1.615      1.821
REMARK  Name = 
REMARK  5 active torsions:
REMARK  status: ('A' for Active; 'I' for Inactive)
REMARK    1  A    between atoms: C_2  and  C_3
REMARK    2  A    between atoms: C_11  and  N_12
REMARK    3  A    between atoms: C_17  and  N_18
REMARK    4  A    between atoms: C_20  and  C_21
REMARK    5  A    between atoms: C_25  and  C_26
REMARK                            x       y       z     vdW  Elec       q    Type
REMARK                         _______ _______ _______ _____ _____    ______ ____
ROOT
ATOM      1  N   UNL     1       2.202   8.078  19.428  0.00  0.00    +0.000 N 
ATOM      2  C   UNL     1       1.337   9.097  19.066  0.00  0.00    +0.000 A 
ATOM      3  N   UNL     1       0.554   8.970  17.987  0.00  0.00    +0.000 NA
ATOM      4  C   UNL     1      -0.312   9.965  17.735  0.00  0.00    +0.000 A 
ATOM      5  C   UNL     1      -0.462  11.066  18.540  0.00  0.00    +0.000 A 
ATOM      6  C   UNL     1       0.359  11.101  19.648  0.00  0.00    +0.000 A 
ATOM      7  N   UNL     1       1.293  10.154  19.881  0.00  0.00    +0.000 NA
ATOM      8  H   UNL     1       3.145   8.455  19.432  0.00  0.00    +0.000 HD
ENDROOT
BRANCH   1  14
ATOM      9  O   UNL     1       5.187   3.552  19.519  0.00  0.00    +0.000 OA
ATOM     10  C   UNL     1       4.929   4.450  18.710  0.00  0.00    +0.000 C 
ATOM     11  N   UNL     1       3.868   5.318  18.976  0.00  0.00    +0.000 N 
ATOM     12  C   UNL     1       3.061   5.188  20.171  0.00  0.00    +0.000 C 
ATOM     13  C   UNL     1       1.694   5.710  19.756  0.00  0.00    +0.000 C 
ATOM     14  C   UNL     1       2.014   6.805  18.738  0.00  0.00    +0.000 C 
ATOM     15  C   UNL     1       3.288   6.294  18.053  0.00  0.00    +0.000 C 
BRANCH  10  16
ATOM     16  C   UNL     1       5.689   4.635  17.465  0.00  0.00    +0.000 A 
ATOM     17  N   UNL     1       5.454   4.001  16.329  0.00  0.00    +0.000 NA
ATOM     18  C   UNL     1       6.346   4.411  15.361  0.00  0.00    +0.000 A 
ATOM     19  C   UNL     1       7.265   5.352  15.765  0.00  0.00    +0.000 A 
ATOM     20  S   UNL     1       7.000   5.753  17.410  0.00  0.00    +0.000 S 
ENDBRANCH  10  16
ENDBRANCH   1  14
BRANCH   6  21
ATOM     21  N   UNL     1       0.175  12.131  20.617  0.00  0.00    +0.000 N 
ATOM     22  C   UNL     1      -0.518  11.987  21.804  0.00  0.00    +0.000 A 
ATOM     23  C   UNL     1      -0.564  13.236  22.364  0.00  0.00    +0.000 A 
ATOM     24  N   UNL     1       0.137  14.133  21.615  0.00  0.00    +0.000 NA
ATOM     25  C   UNL     1       0.623  13.460  20.577  0.00  0.00    +0.000 A 
BRANCH  25  26
ATOM     26  C   UNL     1       1.522  14.067  19.578  0.00  0.00    +0.000 A 
ATOM     27  C   UNL     1       2.686  13.379  19.202  0.00  0.00    +0.000 A 
ATOM     28  C   UNL     1       3.609  13.953  18.322  0.00  0.00    +0.000 A 
ATOM     29  C   UNL     1       3.378  15.225  17.804  0.00  0.00    +0.000 A 
ATOM     30  C   UNL     1       2.198  15.891  18.122  0.00  0.00    +0.000 A 
ATOM     31 CL   UNL     1       1.909  17.468  17.493  0.00  0.00    +0.000 Cl
ATOM     32  C   UNL     1       1.257  15.301  18.966  0.00  0.00    +0.000 A 
ENDBRANCH  25  26
BRANCH  23  33
ATOM     33  C   UNL     1      -1.319  13.564  23.635  0.00  0.00    +0.000 C 
ATOM     34  C   UNL     1      -1.381  15.008  24.083  0.00  0.00    +0.000 C 
ATOM     35  C   UNL     1      -2.600  14.364  23.519  0.00  0.00    +0.000 C 
ENDBRANCH  23  33
ENDBRANCH   6  21
TORSDOF 5
ENDMDL
MODEL 5
REMARK VINA RESULT:      -7.5      2.981      3.887
REMARK  Name = 
REMARK  5 active torsions:
REMARK  status: ('A' for Active; 'I' for Inactive)
REMARK    1  A    between atoms: C_2  and  C_3
REMARK    2  A    between atoms: C_11  and  N_12
REMARK    3  A    between atoms: C_17  and  N_18
REMARK    4  A    between atoms: C_20  and  C_21
REMARK    5  A    between atoms: C_25  and  C_26
REMARK                            x       y       z     vdW  Elec       q    Type
REMARK                         _______ _______ _______ _____ _____    ______ ____
ROOT
ATOM      1  N   UNL     1       1.651   7.544  19.281  0.00  0.00    +0.000 N 
ATOM      2  C   UNL     1       1.623   8.915  19.083  0.00  0.00    +0.000 A 
ATOM      3  N   UNL     1       2.285   9.464  18.056  0.00  0.00    +0.000 NA
ATOM      4  C   UNL     1       2.156  10.790  17.882  0.00  0.00    +0.000 A 
ATOM      5  C   UNL     1       1.359  11.587  18.664  0.00  0.00    +0.000 A 
ATOM      6  C   UNL     1       0.687  10.935  19.676  0.00  0.00    +0.000 A 
ATOM      7  N   UNL     1       0.861   9.620  19.924  0.00  0.00    +0.000 NA
ATOM      8  H   UNL     1       2.035   7.370  20.206  0.00  0.00    +0.000 HD
ENDROOT
BRANCH   1  14
ATOM      9  O   UNL     1       4.519   2.943  19.369  0.00  0.00    +0.000 OA
ATOM     10  C   UNL     1       4.723   4.132  19.102  0.00  0.00    +0.000 C 
ATOM     11  N   UNL     1       3.632   4.985  18.927  0.00  0.00    +0.000 N 
ATOM     12  C   UNL     1       2.269   4.510  19.046  0.00  0.00    +0.000 C 
ATOM     13  C   UNL     1       1.479   5.408  18.107  0.00  0.00    +0.000 C 
ATOM     14  C   UNL     1       2.205   6.752  18.187  0.00  0.00    +0.000 C 
ATOM     15  C   UNL     1       3.669   6.353  18.408  0.00  0.00    +0.000 C 
BRANCH  10  16
ATOM     16  C   UNL     1       6.077   4.686  18.945  0.00  0.00    +0.000 A 
ATOM     17  N   UNL     1       6.772   5.278  19.901  0.00  0.00    +0.000 NA
ATOM     18  C   UNL     1       8.000   5.675  19.421  0.00  0.00    +0.000 A 
ATOM     19  C   UNL     1       8.237   5.392  18.095  0.00  0.00    +0.000 A 
ATOM     20  S   UNL     1       6.881   4.587  17.424  0.00  0.00    +0.000 S 
ENDBRANCH  10  16
ENDBRANCH   1  14
BRANCH   6  21
ATOM     21  N   UNL     1      -0.273  11.654  20.449  0.00  0.00    +0.000 N 
ATOM     22  C   UNL     1       0.005  12.344  21.614  0.00  0.00    +0.000 A 
ATOM     23  C   UNL     1      -1.205  12.769  22.093  0.00  0.00    +0.000 A 
ATOM     24  N   UNL     1      -2.213  12.441  21.237  0.00  0.00    +0.000 NA
ATOM     25  C   UNL     1      -1.649  11.801  20.218  0.00  0.00    +0.000 A 
BRANCH  25  26
ATOM     26  C   UNL     1      -2.404  11.362  19.030  0.00  0.00    +0.000 A 
ATOM     27  C   UNL     1      -1.891  10.318  18.244  0.00  0.00    +0.000 A 
ATOM     28  C   UNL     1      -2.528   9.925  17.063  0.00  0.00    +0.000 A 
ATOM     29  C   UNL     1      -3.691  10.572  16.652  0.00  0.00    +0.000 A 
ATOM     30  C   UNL     1      -4.242  11.567  17.454  0.00  0.00    +0.000 A 
ATOM     31 CL   UNL     1      -5.674  12.378  16.949  0.00  0.00    +0.000 Cl
ATOM     32  C   UNL     1      -3.630  11.930  18.654  0.00  0.00    +0.000 A 
ENDBRANCH  25  26
BRANCH  23  33
ATOM     33  C   UNL     1      -1.384  13.488  23.415  0.00  0.00    +0.000 C 
ATOM     34  C   UNL     1      -1.083  14.969  23.475  0.00  0.00    +0.000 C 
ATOM     35  C   UNL     1      -2.498  14.507  23.529  0.00  0.00    +0.000 C 
ENDBRANCH  23  33
ENDBRANCH   6  21
TORSDOF 5
ENDMDL
MODEL 6
REMARK VINA RESULT:      -7.4      2.297      4.175
REMARK  Name = 
REMARK  5 active torsions:
REMARK  status: ('A' for Active; 'I' for Inactive)
REMARK    1  A    between atoms: C_2  and  C_3
REMARK    2  A    between atoms: C_11  and  N_12
REMARK    3  A    between atoms: C_17  and  N_18
REMARK    4  A    between atoms: C_20  and  C_21
REMARK    5  A    between atoms: C_25  and  C_26
REMARK                            x       y       z     vdW  Elec       q    Type
REMARK                         _______ _______ _______ _____ _____    ______ ____
ROOT
ATOM      1  N   UNL     1       2.630   8.837  18.115  0.00  0.00    +0.000 N 
ATOM      2  C   UNL     1       1.540   9.690  18.071  0.00  0.00    +0.000 A 
ATOM      3  N   UNL     1       0.339   9.235  17.693  0.00  0.00    +0.000 NA
ATOM      4  C   UNL     1      -0.689  10.098  17.742  0.00  0.00    +0.000 A 
ATOM      5  C   UNL     1      -0.578  11.388  18.195  0.00  0.00    +0.000 A 
ATOM      6  C   UNL     1       0.686  11.765  18.598  0.00  0.00    +0.000 A 
ATOM      7  N   UNL     1       1.751  10.943  18.483  0.00  0.00    +0.000 NA
ATOM      8  H   UNL     1       3.344   9.209  17.494  0.00  0.00    +0.000 HD
ENDROOT
BRANCH   1  14
ATOM      9  O   UNL     1       5.612   4.490  19.385  0.00  0.00    +0.000 OA
ATOM     10  C   UNL     1       5.213   5.045  18.355  0.00  0.00    +0.000 C 
ATOM     11  N   UNL     1       4.209   6.010  18.451  0.00  0.00    +0.000 N 
ATOM     12  C   UNL     1       3.622   6.372  19.723  0.00  0.00    +0.000 C 
ATOM     13  C   UNL     1       2.201   6.786  19.373  0.00  0.00    +0.000 C 
ATOM     14  C   UNL     1       2.333   7.413  17.985  0.00  0.00    +0.000 C 
ATOM     15  C   UNL     1       3.472   6.614  17.340  0.00  0.00    +0.000 C 
BRANCH  10  16
ATOM     16  C   UNL     1       5.745   4.717  17.024  0.00  0.00    +0.000 A 
ATOM     17  N   UNL     1       5.291   3.756  16.238  0.00  0.00    +0.000 NA
ATOM     18  C   UNL     1       6.010   3.722  15.063  0.00  0.00    +0.000 A 
ATOM     19  C   UNL     1       7.017   4.654  14.958  0.00  0.00    +0.000 A 
ATOM     20  S   UNL     1       7.062   5.620  16.373  0.00  0.00    +0.000 S 
ENDBRANCH  10  16
ENDBRANCH   1  14
BRANCH   6  21
ATOM     21  N   UNL     1       0.869  13.036  19.216  0.00  0.00    +0.000 N 
ATOM     22  C   UNL     1       1.527  14.108  18.643  0.00  0.00    +0.000 A 
ATOM     23  C   UNL     1       1.588  15.072  19.614  0.00  0.00    +0.000 A 
ATOM     24  N   UNL     1       0.930  14.675  20.738  0.00  0.00    +0.000 NA
ATOM     25  C   UNL     1       0.456  13.459  20.489  0.00  0.00    +0.000 A 
BRANCH  25  26
ATOM     26  C   UNL     1      -0.401  12.722  21.436  0.00  0.00    +0.000 A 
ATOM     27  C   UNL     1      -1.599  13.309  21.872  0.00  0.00    +0.000 A 
ATOM     28  C   UNL     1      -2.400  12.685  22.833  0.00  0.00    +0.000 A 
ATOM     29  C   UNL     1      -2.013  11.460  23.371  0.00  0.00    +0.000 A 
ATOM     30  C   UNL     1      -0.859  10.839  22.903  0.00  0.00    +0.000 A 
ATOM     31 CL   UNL     1      -0.368   9.329  23.569  0.00  0.00    +0.000 Cl
ATOM     32  C   UNL     1      -0.081  11.442  21.913  0.00  0.00    +0.000 A 
ENDBRANCH  25  26
BRANCH  23  33
ATOM     33  C   UNL     1       2.318  16.390  19.451  0.00  0.00    +0.000 C 
ATOM     34  C   UNL     1       2.009  17.237  18.235  0.00  0.00    +0.000 C 
ATOM     35  C   UNL     1       1.517  17.669  19.573  0.00  0.00    +0.000 C 
ENDBRANCH  23  33
ENDBRANCH   6  21
TORSDOF 5
ENDMDL
MODEL 7
REMARK VINA RESULT:      -7.3      2.402      4.234
REMARK  Name = 
REMARK  5 active torsions:
REMARK  status: ('A' for Active; 'I' for Inactive)
REMARK    1  A    between atoms: C_2  and  C_3
REMARK    2  A    between atoms: C_11  and  N_12
REMARK    3  A    between atoms: C_17  and  N_18
REMARK    4  A    between atoms: C_20  and  C_21
REMARK    5  A    between atoms: C_25  and  C_26
REMARK                            x       y       z     vdW  Elec       q    Type
REMARK                         _______ _______ _______ _____ _____    ______ ____
ROOT
ATOM      1  N   UNL     1       2.632   8.728  18.187  0.00  0.00    +0.000 N 
ATOM      2  C   UNL     1       1.548   9.590  18.135  0.00  0.00    +0.000 A 
ATOM      3  N   UNL     1       0.360   9.157  17.695  0.00  0.00    +0.000 NA
ATOM      4  C   UNL     1      -0.664  10.026  17.739  0.00  0.00    +0.000 A 
ATOM      5  C   UNL     1      -0.564  11.297  18.245  0.00  0.00    +0.000 A 
ATOM      6  C   UNL     1       0.686  11.649  18.708  0.00  0.00    +0.000 A 
ATOM      7  N   UNL     1       1.751  10.825  18.602  0.00  0.00    +0.000 NA
ATOM      8  H   UNL     1       3.370   9.119  17.608  0.00  0.00    +0.000 HD
ENDROOT
BRANCH   1  14
ATOM      9  O   UNL     1       5.569   4.319  19.340  0.00  0.00    +0.000 OA
ATOM     10  C   UNL     1       5.194   4.917  18.326  0.00  0.00    +0.000 C 
ATOM     11  N   UNL     1       4.192   5.883  18.439  0.00  0.00    +0.000 N 
ATOM     12  C   UNL     1       3.579   6.195  19.713  0.00  0.00    +0.000 C 
ATOM     13  C   UNL     1       2.167   6.629  19.350  0.00  0.00    +0.000 C 
ATOM     14  C   UNL     1       2.332   7.313  17.991  0.00  0.00    +0.000 C 
ATOM     15  C   UNL     1       3.482   6.535  17.339  0.00  0.00    +0.000 C 
BRANCH  10  16
ATOM     16  C   UNL     1       5.755   4.643  16.994  0.00  0.00    +0.000 A 
ATOM     17  N   UNL     1       5.308   3.724  16.156  0.00  0.00    +0.000 NA
ATOM     18  C   UNL     1       6.054   3.733  14.997  0.00  0.00    +0.000 A 
ATOM     19  C   UNL     1       7.074   4.655  14.958  0.00  0.00    +0.000 A 
ATOM     20  S   UNL     1       7.097   5.557  16.416  0.00  0.00    +0.000 S 
ENDBRANCH  10  16
ENDBRANCH   1  14
BRANCH   6  21
ATOM     21  N   UNL     1       0.853  12.895  19.381  0.00  0.00    +0.000 N 
ATOM     22  C   UNL     1       1.399  14.032  18.818  0.00  0.00    +0.000 A 
ATOM     23  C   UNL     1       1.492  14.946  19.834  0.00  0.00    +0.000 A 
ATOM     24  N   UNL     1       0.956  14.452  20.985  0.00  0.00    +0.000 NA
ATOM     25  C   UNL     1       0.529  13.225  20.706  0.00  0.00    +0.000 A 
BRANCH  25  26
ATOM     26  C   UNL     1      -0.201  12.389  21.677  0.00  0.00    +0.000 A 
ATOM     27  C   UNL     1       0.265  11.094  21.949  0.00  0.00    +0.000 A 
ATOM     28  C   UNL     1      -0.441  10.236  22.798  0.00  0.00    +0.000 A 
ATOM     29  C   UNL     1      -1.627  10.666  23.390  0.00  0.00    +0.000 A 
ATOM     30  C   UNL     1      -2.067  11.968  23.175  0.00  0.00    +0.000 A 
ATOM     31 CL   UNL     1      -3.537  12.503  23.895  0.00  0.00    +0.000 Cl
ATOM     32  C   UNL     1      -1.341  12.838  22.362  0.00  0.00    +0.000 A 
ENDBRANCH  25  26
BRANCH  23  33
ATOM     33  C   UNL     1       2.131  16.311  19.686  0.00  0.00    +0.000 C 
ATOM     34  C   UNL     1       2.468  17.088  20.941  0.00  0.00    +0.000 C 
ATOM     35  C   UNL     1       3.566  16.480  20.139  0.00  0.00    +0.000 C 
ENDBRANCH  23  33
ENDBRANCH   6  21
TORSDOF 5
ENDMDL
MODEL 8
REMARK VINA RESULT:      -7.3      0.993      1.093
REMARK  Name = 
REMARK  5 active torsions:
REMARK  status: ('A' for Active; 'I' for Inactive)
REMARK    1  A    between atoms: C_2  and  C_3
REMARK    2  A    between atoms: C_11  and  N_12
REMARK    3  A    between atoms: C_17  and  N_18
REMARK    4  A    between atoms: C_20  and  C_21
REMARK    5  A    between atoms: C_25  and  C_26
REMARK                            x       y       z     vdW  Elec       q    Type
REMARK                         _______ _______ _______ _____ _____    ______ ____
ROOT
ATOM      1  N   UNL     1       2.303   8.136  19.362  0.00  0.00    +0.000 N 
ATOM      2  C   UNL     1       1.383   9.133  19.078  0.00  0.00    +0.000 A 
ATOM      3  N   UNL     1       0.570   9.022  18.019  0.00  0.00    +0.000 NA
ATOM      4  C   UNL     1      -0.345   9.989  17.845  0.00  0.00    +0.000 A 
ATOM      5  C   UNL     1      -0.515  11.042  18.708  0.00  0.00    +0.000 A 
ATOM      6  C   UNL     1       0.339  11.060  19.790  0.00  0.00    +0.000 A 
ATOM      7  N   UNL     1       1.321  10.146  19.946  0.00  0.00    +0.000 NA
ATOM      8  H   UNL     1       3.229   8.555  19.356  0.00  0.00    +0.000 HD
ENDROOT
BRANCH   1  14
ATOM      9  O   UNL     1       5.277   3.603  19.421  0.00  0.00    +0.000 OA
ATOM     10  C   UNL     1       5.058   4.532  18.636  0.00  0.00    +0.000 C 
ATOM     11  N   UNL     1       3.986   5.392  18.884  0.00  0.00    +0.000 N 
ATOM     12  C   UNL     1       3.124   5.218  20.034  0.00  0.00    +0.000 C 
ATOM     13  C   UNL     1       1.779   5.759  19.575  0.00  0.00    +0.000 C 
ATOM     14  C   UNL     1       2.147   6.891  18.616  0.00  0.00    +0.000 C 
ATOM     15  C   UNL     1       3.451   6.403  17.973  0.00  0.00    +0.000 C 
BRANCH  10  16
ATOM     16  C   UNL     1       5.876   4.763  17.436  0.00  0.00    +0.000 A 
ATOM     17  N   UNL     1       6.902   5.593  17.362  0.00  0.00    +0.000 NA
ATOM     18  C   UNL     1       7.448   5.565  16.097  0.00  0.00    +0.000 A 
ATOM     19  C   UNL     1       6.832   4.718  15.205  0.00  0.00    +0.000 A 
ATOM     20  S   UNL     1       5.529   3.913  15.976  0.00  0.00    +0.000 S 
ENDBRANCH  10  16
ENDBRANCH   1  14
BRANCH   6  21
ATOM     21  N   UNL     1       0.144  12.033  20.814  0.00  0.00    +0.000 N 
ATOM     22  C   UNL     1      -0.747  11.911  21.863  0.00  0.00    +0.000 A 
ATOM     23  C   UNL     1      -0.710  13.108  22.527  0.00  0.00    +0.000 A 
ATOM     24  N   UNL     1       0.221  13.940  21.982  0.00  0.00    +0.000 NA
ATOM     25  C   UNL     1       0.771  13.279  20.969  0.00  0.00    +0.000 A 
BRANCH  25  26
ATOM     26  C   UNL     1       1.896  13.813  20.179  0.00  0.00    +0.000 A 
ATOM     27  C   UNL     1       1.750  13.949  18.790  0.00  0.00    +0.000 A 
ATOM     28  C   UNL     1       2.817  14.371  17.991  0.00  0.00    +0.000 A 
ATOM     29  C   UNL     1       4.048  14.665  18.573  0.00  0.00    +0.000 A 
ATOM     30  C   UNL     1       4.187  14.592  19.956  0.00  0.00    +0.000 A 
ATOM     31 CL   UNL     1       5.708  14.944  20.682  0.00  0.00    +0.000 Cl
ATOM     32  C   UNL     1       3.111  14.212  20.758  0.00  0.00    +0.000 A 
ENDBRANCH  25  26
BRANCH  23  33
ATOM     33  C   UNL     1      -1.611  13.453  23.695  0.00  0.00    +0.000 C 
ATOM     34  C   UNL     1      -1.632  14.884  24.188  0.00  0.00    +0.000 C 
ATOM     35  C   UNL     1      -2.803  14.350  23.437  0.00  0.00    +0.000 C 
ENDBRANCH  23  33
ENDBRANCH   6  21
TORSDOF 5
ENDMDL
MODEL 9
REMARK VINA RESULT:      -7.3      3.524      5.291
REMARK  Name = 
REMARK  5 active torsions:
REMARK  status: ('A' for Active; 'I' for Inactive)
REMARK    1  A    between atoms: C_2  and  C_3
REMARK    2  A    between atoms: C_11  and  N_12
REMARK    3  A    between atoms: C_17  and  N_18
REMARK    4  A    between atoms: C_20  and  C_21
REMARK    5  A    between atoms: C_25  and  C_26
REMARK                            x       y       z     vdW  Elec       q    Type
REMARK                         _______ _______ _______ _____ _____    ______ ____
ROOT
ATOM      1  N   UNL     1       3.264   8.344  17.776  0.00  0.00    +0.000 N 
ATOM      2  C   UNL     1       2.291   8.853  18.621  0.00  0.00    +0.000 A 
ATOM      3  N   UNL     1       2.000   8.231  19.771  0.00  0.00    +0.000 NA
ATOM      4  C   UNL     1       1.098   8.817  20.575  0.00  0.00    +0.000 A 
ATOM      5  C   UNL     1       0.505  10.023  20.302  0.00  0.00    +0.000 A 
ATOM      6  C   UNL     1       0.886  10.612  19.115  0.00  0.00    +0.000 A 
ATOM      7  N   UNL     1       1.729  10.007  18.251  0.00  0.00    +0.000 NA
ATOM      8  H   UNL     1       2.830   8.157  16.877  0.00  0.00    +0.000 HD
ENDROOT
BRANCH   1  14
ATOM      9  O   UNL     1       4.233   3.327  15.963  0.00  0.00    +0.000 OA
ATOM     10  C   UNL     1       3.628   3.848  16.906  0.00  0.00    +0.000 C 
ATOM     11  N   UNL     1       3.850   5.196  17.193  0.00  0.00    +0.000 N 
ATOM     12  C   UNL     1       4.774   5.996  16.417  0.00  0.00    +0.000 C 
ATOM     13  C   UNL     1       5.291   7.030  17.405  0.00  0.00    +0.000 C 
ATOM     14  C   UNL     1       4.099   7.282  18.329  0.00  0.00    +0.000 C 
ATOM     15  C   UNL     1       3.393   5.921  18.379  0.00  0.00    +0.000 C 
BRANCH  10  16
ATOM     16  C   UNL     1       2.688   3.097  17.753  0.00  0.00    +0.000 A 
ATOM     17  N   UNL     1       1.377   3.265  17.768  0.00  0.00    +0.000 NA
ATOM     18  C   UNL     1       0.796   2.400  18.670  0.00  0.00    +0.000 A 
ATOM     19  C   UNL     1       1.668   1.579  19.347  0.00  0.00    +0.000 A 
ATOM     20  S   UNL     1       3.273   1.885  18.830  0.00  0.00    +0.000 S 
ENDBRANCH  10  16
ENDBRANCH   1  14
BRANCH   6  21
ATOM     21  N   UNL     1       0.432  11.930  18.815  0.00  0.00    +0.000 N 
ATOM     22  C   UNL     1       1.196  13.076  18.931  0.00  0.00    +0.000 A 
ATOM     23  C   UNL     1       0.347  14.119  18.674  0.00  0.00    +0.000 A 
ATOM     24  N   UNL     1      -0.891  13.667  18.328  0.00  0.00    +0.000 NA
ATOM     25  C   UNL     1      -0.834  12.340  18.371  0.00  0.00    +0.000 A 
BRANCH  25  26
ATOM     26  C   UNL     1      -1.959  11.476  17.969  0.00  0.00    +0.000 A 
ATOM     27  C   UNL     1      -1.732  10.451  17.037  0.00  0.00    +0.000 A 
ATOM     28  C   UNL     1      -2.784   9.662  16.563  0.00  0.00    +0.000 A 
ATOM     29  C   UNL     1      -4.082   9.887  17.019  0.00  0.00    +0.000 A 
ATOM     30  C   UNL     1      -4.309  10.860  17.987  0.00  0.00    +0.000 A 
ATOM     31 CL   UNL     1      -5.911  11.150  18.549  0.00  0.00    +0.000 Cl
ATOM     32  C   UNL     1      -3.253  11.619  18.492  0.00  0.00    +0.000 A 
ENDBRANCH  25  26
BRANCH  23  33
ATOM     33  C   UNL     1       0.742  15.577  18.788  0.00  0.00    +0.000 C 
ATOM     34  C   UNL     1      -0.304  16.631  18.499  0.00  0.00    +0.000 C 
ATOM     35  C   UNL     1       0.131  16.397  19.904  0.00  0.00    +0.000 C 
ENDBRANCH  23  33
ENDBRANCH   6  21
TORSDOF 5
ENDMDL
