MODEL 1
REMARK VINA RESULT:      -7.8      0.000      0.000
REMARK  Name = 
REMARK  10 active torsions:
REMARK  status: ('A' for Active; 'I' for Inactive)
REMARK    1  A    between atoms: C_1  and  O_2
REMARK    2  A    between atoms: O_2  and  C_3
REMARK    3  A    between atoms: C_3  and  C_4
REMARK    4  A    between atoms: C_4  and  N_5
REMARK    5  A    between atoms: C_6  and  C_8
REMARK    6  A    between atoms: N_11  and  C_12
REMARK    7  A    between atoms: C_12  and  C_13
REMARK    8  A    between atoms: C_17  and  O_18
REMARK    9  A    between atoms: O_18  and  C_19
REMARK   10  A    between atoms: C_19  and  C_20
REMARK                            x       y       z     vdW  Elec       q    Type
REMARK                         _______ _______ _______ _____ _____    ______ ____
ROOT
ATOM      1  C   UNL     1       3.527   7.251  17.346  0.00  0.00    +0.000 C 
ENDROOT
BRANCH   1   5
ATOM      2  C   UNL     1       6.855   4.577  16.684  0.00  0.00    +0.000 C 
ATOM      3  C   UNL     1       5.503   4.024  17.145  0.00  0.00    +0.000 C 
ATOM      4  C   UNL     1       4.367   5.038  16.983  0.00  0.00    +0.000 C 
ATOM      5  N   UNL     1       4.666   6.345  17.604  0.00  0.00    +0.000 NA
ATOM      6  C   UNL     1       5.926   6.894  17.083  0.00  0.00    +0.000 C 
ATOM      7  C   UNL     1       7.091   5.937  17.342  0.00  0.00    +0.000 C 
BRANCH   2   9
ATOM      8  N   UNL     1       6.256   3.683  14.491  0.00  0.00    +0.000 N 
ATOM      9  C   UNL     1       6.971   4.656  15.157  0.00  0.00    +0.000 C 
ATOM     10  O   UNL     1       7.612   5.524  14.569  0.00  0.00    +0.000 OA
ATOM     11  H   UNL     1       5.881   2.898  15.009  0.00  0.00    +0.000 HD
BRANCH   8  12
ATOM     12  C   UNL     1       6.291   3.545  13.045  0.00  0.00    +0.000 C 
BRANCH  12  13
ATOM     13  C   UNL     1       4.936   3.820  12.391  0.00  0.00    +0.000 C 
BRANCH  13  15
ATOM     14  C   UNL     1       3.465   3.092  10.697  0.00  0.00    +0.000 C 
ATOM     15  O   UNL     1       4.669   2.815  11.405  0.00  0.00    +0.000 OA
ENDBRANCH  13  15
ENDBRANCH  12  13
ENDBRANCH   8  12
ENDBRANCH   2   9
ENDBRANCH   1   5
BRANCH   1  16
ATOM     16  C   UNL     1       2.633   7.543  18.534  0.00  0.00    +0.000 A 
ATOM     17  C   UNL     1       2.535   6.609  19.576  0.00  0.00    +0.000 A 
ATOM     18  C   UNL     1       1.745   6.870  20.694  0.00  0.00    +0.000 A 
ATOM     19  C   UNL     1       1.064   8.081  20.799  0.00  0.00    +0.000 A 
ATOM     20  C   UNL     1       1.186   9.043  19.793  0.00  0.00    +0.000 A 
ATOM     21  C   UNL     1       1.935   8.757  18.646  0.00  0.00    +0.000 A 
BRANCH  20  22
ATOM     22  O   UNL     1       0.617  10.288  19.844  0.00  0.00    +0.000 OA
BRANCH  22  23
ATOM     23  C   UNL     1       0.349  10.873  18.565  0.00  0.00    +0.000 C 
BRANCH  23  24
ATOM     24  C   UNL     1      -1.130  10.801  18.275  0.00  0.00    +0.000 A 
ATOM     25  C   UNL     1      -2.026  11.699  18.871  0.00  0.00    +0.000 A 
ATOM     26  C   UNL     1      -3.388  11.641  18.571  0.00  0.00    +0.000 A 
ATOM     27  C   UNL     1      -3.866  10.693  17.668  0.00  0.00    +0.000 A 
ATOM     28  C   UNL     1      -2.981   9.805  17.058  0.00  0.00    +0.000 A 
ATOM     29  C   UNL     1      -1.621   9.860  17.357  0.00  0.00    +0.000 A 
ENDBRANCH  23  24
ENDBRANCH  22  23
ENDBRANCH  20  22
ENDBRANCH   1  16
TORSDOF 9
ENDMDL
MODEL 2
REMARK VINA RESULT:      -7.6      2.602      5.035
REMARK  Name = 
REMARK  10 active torsions:
REMARK  status: ('A' for Active; 'I' for Inactive)
REMARK    1  A    between atoms: C_1  and  O_2
REMARK    2  A    between atoms: O_2  and  C_3
REMARK    3  A    between atoms: C_3  and  C_4
REMARK    4  A    between atoms: C_4  and  N_5
REMARK    5  A    between atoms: C_6  and  C_8
REMARK    6  A    between atoms: N_11  and  C_12
REMARK    7  A    between atoms: C_12  and  C_13
REMARK    8  A    between atoms: C_17  and  O_18
REMARK    9  A    between atoms: O_18  and  C_19
REMARK   10  A    between atoms: C_19  and  C_20
REMARK                            x       y       z     vdW  Elec       q    Type
REMARK                         _______ _______ _______ _____ _____    ______ ____
ROOT
ATOM      1  C   UNL     1       3.741   7.085  17.157  0.00  0.00    +0.000 C 
ENDROOT
BRANCH   1   5
ATOM      2  C   UNL     1       7.083   4.529  16.177  0.00  0.00    +0.000 C 
ATOM      3  C   UNL     1       5.771   3.921  16.683  0.00  0.00    +0.000 C 
ATOM      4  C   UNL     1       4.607   4.914  16.636  0.00  0.00    +0.000 C 
ATOM      5  N   UNL     1       4.912   6.195  17.306  0.00  0.00    +0.000 NA
ATOM      6  C   UNL     1       6.128   6.800  16.744  0.00  0.00    +0.000 C 
ATOM      7  C   UNL     1       7.327   5.860  16.889  0.00  0.00    +0.000 C 
BRANCH   2   9
ATOM      8  N   UNL     1       6.375   3.736  13.979  0.00  0.00    +0.000 N 
ATOM      9  C   UNL     1       7.111   4.687  14.652  0.00  0.00    +0.000 C 
ATOM     10  O   UNL     1       7.704   5.595  14.074  0.00  0.00    +0.000 OA
ATOM     11  H   UNL     1       6.042   2.919  14.475  0.00  0.00    +0.000 HD
BRANCH   8  12
ATOM     12  C   UNL     1       6.330   3.671  12.527  0.00  0.00    +0.000 C 
BRANCH  12  13
ATOM     13  C   UNL     1       5.626   2.414  12.013  0.00  0.00    +0.000 C 
BRANCH  13  15
ATOM     14  C   UNL     1       3.618   3.284  11.134  0.00  0.00    +0.000 C 
ATOM     15  O   UNL     1       4.892   2.732  10.824  0.00  0.00    +0.000 OA
ENDBRANCH  13  15
ENDBRANCH  12  13
ENDBRANCH   8  12
ENDBRANCH   2   9
ENDBRANCH   1   5
BRANCH   1  16
ATOM     16  C   UNL     1       2.887   7.265  18.396  0.00  0.00    +0.000 A 
ATOM     17  C   UNL     1       2.212   8.477  18.603  0.00  0.00    +0.000 A 
ATOM     18  C   UNL     1       1.394   8.655  19.718  0.00  0.00    +0.000 A 
ATOM     19  C   UNL     1       1.218   7.613  20.626  0.00  0.00    +0.000 A 
ATOM     20  C   UNL     1       1.845   6.383  20.411  0.00  0.00    +0.000 A 
ATOM     21  C   UNL     1       2.709   6.225  19.322  0.00  0.00    +0.000 A 
BRANCH  20  22
ATOM     22  O   UNL     1       1.672   5.280  21.206  0.00  0.00    +0.000 OA
BRANCH  22  23
ATOM     23  C   UNL     1       0.927   4.219  20.597  0.00  0.00    +0.000 C 
BRANCH  23  24
ATOM     24  C   UNL     1       1.856   3.343  19.794  0.00  0.00    +0.000 A 
ATOM     25  C   UNL     1       3.050   2.862  20.347  0.00  0.00    +0.000 A 
ATOM     26  C   UNL     1       3.886   2.027  19.604  0.00  0.00    +0.000 A 
ATOM     27  C   UNL     1       3.534   1.659  18.306  0.00  0.00    +0.000 A 
ATOM     28  C   UNL     1       2.341   2.120  17.752  0.00  0.00    +0.000 A 
ATOM     29  C   UNL     1       1.505   2.955  18.492  0.00  0.00    +0.000 A 
ENDBRANCH  23  24
ENDBRANCH  22  23
ENDBRANCH  20  22
ENDBRANCH   1  16
TORSDOF 9
ENDMDL
MODEL 3
REMARK VINA RESULT:      -7.2      3.114      5.706
REMARK  Name = 
REMARK  10 active torsions:
REMARK  status: ('A' for Active; 'I' for Inactive)
REMARK    1  A    between atoms: C_1  and  O_2
REMARK    2  A    between atoms: O_2  and  C_3
REMARK    3  A    between atoms: C_3  and  C_4
REMARK    4  A    between atoms: C_4  and  N_5
REMARK    5  A    between atoms: C_6  and  C_8
REMARK    6  A    between atoms: N_11  and  C_12
REMARK    7  A    between atoms: C_12  and  C_13
REMARK    8  A    between atoms: C_17  and  O_18
REMARK    9  A    between atoms: O_18  and  C_19
REMARK   10  A    between atoms: C_19  and  C_20
REMARK                            x       y       z     vdW  Elec       q    Type
REMARK                         _______ _______ _______ _____ _____    ______ ____
ROOT
ATOM      1  C   UNL     1       4.259   3.701  17.162  0.00  0.00    +0.000 C 
ENDROOT
BRANCH   1   5
ATOM      2  C   UNL     1       7.843   5.767  18.408  0.00  0.00    +0.000 C 
ATOM      3  C   UNL     1       7.927   4.624  17.392  0.00  0.00    +0.000 C 
ATOM      4  C   UNL     1       6.561   4.257  16.806  0.00  0.00    +0.000 C 
ATOM      5  N   UNL     1       5.539   3.998  17.840  0.00  0.00    +0.000 NA
ATOM      6  C   UNL     1       5.417   5.144  18.752  0.00  0.00    +0.000 C 
ATOM      7  C   UNL     1       6.753   5.449  19.432  0.00  0.00    +0.000 C 
BRANCH   2   9
ATOM      8  N   UNL     1       8.335   8.158  18.319  0.00  0.00    +0.000 N 
ATOM      9  C   UNL     1       7.618   7.131  17.744  0.00  0.00    +0.000 C 
ATOM     10  O   UNL     1       6.893   7.298  16.765  0.00  0.00    +0.000 OA
ATOM     11  H   UNL     1       8.786   8.011  19.213  0.00  0.00    +0.000 HD
BRANCH   8  12
ATOM     12  C   UNL     1       8.208   9.538  17.880  0.00  0.00    +0.000 C 
BRANCH  12  13
ATOM     13  C   UNL     1       9.196  10.474  18.577  0.00  0.00    +0.000 C 
BRANCH  13  15
ATOM     14  C   UNL     1       9.305  11.577  20.659  0.00  0.00    +0.000 C 
ATOM     15  O   UNL     1       9.058  10.341  19.997  0.00  0.00    +0.000 OA
ENDBRANCH  13  15
ENDBRANCH  12  13
ENDBRANCH   8  12
ENDBRANCH   2   9
ENDBRANCH   1   5
BRANCH   1  16
ATOM     16  C   UNL     1       3.027   3.703  18.045  0.00  0.00    +0.000 A 
ATOM     17  C   UNL     1       2.178   2.587  18.053  0.00  0.00    +0.000 A 
ATOM     18  C   UNL     1       1.057   2.552  18.882  0.00  0.00    +0.000 A 
ATOM     19  C   UNL     1       0.786   3.621  19.733  0.00  0.00    +0.000 A 
ATOM     20  C   UNL     1       1.647   4.721  19.772  0.00  0.00    +0.000 A 
ATOM     21  C   UNL     1       2.740   4.778  18.901  0.00  0.00    +0.000 A 
BRANCH  20  22
ATOM     22  O   UNL     1       1.505   5.780  20.629  0.00  0.00    +0.000 OA
BRANCH  22  23
ATOM     23  C   UNL     1       2.435   6.848  20.415  0.00  0.00    +0.000 C 
BRANCH  23  24
ATOM     24  C   UNL     1       1.718   8.032  19.814  0.00  0.00    +0.000 A 
ATOM     25  C   UNL     1       1.866   8.350  18.457  0.00  0.00    +0.000 A 
ATOM     26  C   UNL     1       1.173   9.430  17.907  0.00  0.00    +0.000 A 
ATOM     27  C   UNL     1       0.321  10.194  18.702  0.00  0.00    +0.000 A 
ATOM     28  C   UNL     1       0.155   9.876  20.049  0.00  0.00    +0.000 A 
ATOM     29  C   UNL     1       0.847   8.799  20.602  0.00  0.00    +0.000 A 
ENDBRANCH  23  24
ENDBRANCH  22  23
ENDBRANCH  20  22
ENDBRANCH   1  16
TORSDOF 9
ENDMDL
MODEL 4
REMARK VINA RESULT:      -7.1      1.227      1.766
REMARK  Name = 
REMARK  10 active torsions:
REMARK  status: ('A' for Active; 'I' for Inactive)
REMARK    1  A    between atoms: C_1  and  O_2
REMARK    2  A    between atoms: O_2  and  C_3
REMARK    3  A    between atoms: C_3  and  C_4
REMARK    4  A    between atoms: C_4  and  N_5
REMARK    5  A    between atoms: C_6  and  C_8
REMARK    6  A    between atoms: N_11  and  C_12
REMARK    7  A    between atoms: C_12  and  C_13
REMARK    8  A    between atoms: C_17  and  O_18
REMARK    9  A    between atoms: O_18  and  C_19
REMARK   10  A    between atoms: C_19  and  C_20
REMARK                            x       y       z     vdW  Elec       q    Type
REMARK                         _______ _______ _______ _____ _____    ______ ____
ROOT
ATOM      1  C   UNL     1       3.175   7.434  17.831  0.00  0.00    +0.000 C 
ENDROOT
BRANCH   1   5
ATOM      2  C   UNL     1       5.693   3.923  17.852  0.00  0.00    +0.000 C 
ATOM      3  C   UNL     1       4.267   3.845  17.298  0.00  0.00    +0.000 C 
ATOM      4  C   UNL     1       3.660   5.226  17.040  0.00  0.00    +0.000 C 
ATOM      5  N   UNL     1       3.745   6.124  18.210  0.00  0.00    +0.000 NA
ATOM      6  C   UNL     1       5.135   6.249  18.671  0.00  0.00    +0.000 C 
ATOM      7  C   UNL     1       5.716   4.884  19.042  0.00  0.00    +0.000 C 
BRANCH   2   9
ATOM      8  N   UNL     1       6.219   4.318  15.501  0.00  0.00    +0.000 N 
ATOM      9  C   UNL     1       6.720   4.316  16.784  0.00  0.00    +0.000 C 
ATOM     10  O   UNL     1       7.880   4.636  17.042  0.00  0.00    +0.000 OA
ATOM     11  H   UNL     1       5.318   3.895  15.316  0.00  0.00    +0.000 HD
BRANCH   8  12
ATOM     12  C   UNL     1       7.050   4.596  14.341  0.00  0.00    +0.000 C 
BRANCH  12  13
ATOM     13  C   UNL     1       6.562   3.881  13.079  0.00  0.00    +0.000 C 
BRANCH  13  15
ATOM     14  C   UNL     1       4.611   3.342  11.869  0.00  0.00    +0.000 C 
ATOM     15  O   UNL     1       5.137   3.745  13.129  0.00  0.00    +0.000 OA
ENDBRANCH  13  15
ENDBRANCH  12  13
ENDBRANCH   8  12
ENDBRANCH   2   9
ENDBRANCH   1   5
BRANCH   1  16
ATOM     16  C   UNL     1       2.182   8.030  18.808  0.00  0.00    +0.000 A 
ATOM     17  C   UNL     1       2.083   7.504  20.105  0.00  0.00    +0.000 A 
ATOM     18  C   UNL     1       1.200   8.057  21.032  0.00  0.00    +0.000 A 
ATOM     19  C   UNL     1       0.425   9.161  20.683  0.00  0.00    +0.000 A 
ATOM     20  C   UNL     1       0.544   9.726  19.412  0.00  0.00    +0.000 A 
ATOM     21  C   UNL     1       1.389   9.137  18.465  0.00  0.00    +0.000 A 
BRANCH  20  22
ATOM     22  O   UNL     1      -0.119  10.854  19.005  0.00  0.00    +0.000 OA
BRANCH  22  23
ATOM     23  C   UNL     1      -1.516  10.872  19.322  0.00  0.00    +0.000 C 
BRANCH  23  24
ATOM     24  C   UNL     1      -2.325  10.830  18.050  0.00  0.00    +0.000 A 
ATOM     25  C   UNL     1      -1.939  10.015  16.977  0.00  0.00    +0.000 A 
ATOM     26  C   UNL     1      -2.713   9.962  15.817  0.00  0.00    +0.000 A 
ATOM     27  C   UNL     1      -3.883  10.714  15.721  0.00  0.00    +0.000 A 
ATOM     28  C   UNL     1      -4.284  11.517  16.788  0.00  0.00    +0.000 A 
ATOM     29  C   UNL     1      -3.511  11.573  17.947  0.00  0.00    +0.000 A 
ENDBRANCH  23  24
ENDBRANCH  22  23
ENDBRANCH  20  22
ENDBRANCH   1  16
TORSDOF 9
ENDMDL
MODEL 5
REMARK VINA RESULT:      -7.1      3.066      5.318
REMARK  Name = 
REMARK  10 active torsions:
REMARK  status: ('A' for Active; 'I' for Inactive)
REMARK    1  A    between atoms: C_1  and  O_2
REMARK    2  A    between atoms: O_2  and  C_3
REMARK    3  A    between atoms: C_3  and  C_4
REMARK    4  A    between atoms: C_4  and  N_5
REMARK    5  A    between atoms: C_6  and  C_8
REMARK    6  A    between atoms: N_11  and  C_12
REMARK    7  A    between atoms: C_12  and  C_13
REMARK    8  A    between atoms: C_17  and  O_18
REMARK    9  A    between atoms: O_18  and  C_19
REMARK   10  A    between atoms: C_19  and  C_20
REMARK                            x       y       z     vdW  Elec       q    Type
REMARK                         _______ _______ _______ _____ _____    ______ ____
ROOT
ATOM      1  C   UNL     1       3.345   3.627  17.067  0.00  0.00    +0.000 C 
ENDROOT
BRANCH   1   5
ATOM      2  C   UNL     1       7.249   5.478  17.074  0.00  0.00    +0.000 C 
ATOM      3  C   UNL     1       6.660   4.927  15.772  0.00  0.00    +0.000 C 
ATOM      4  C   UNL     1       5.160   4.642  15.879  0.00  0.00    +0.000 C 
ATOM      5  N   UNL     1       4.813   3.795  17.039  0.00  0.00    +0.000 NA
ATOM      6  C   UNL     1       5.316   4.389  18.286  0.00  0.00    +0.000 C 
ATOM      7  C   UNL     1       6.834   4.573  18.235  0.00  0.00    +0.000 C 
BRANCH   2   9
ATOM      8  N   UNL     1       7.925   7.813  17.314  0.00  0.00    +0.000 N 
ATOM      9  C   UNL     1       6.859   6.939  17.326  0.00  0.00    +0.000 C 
ATOM     10  O   UNL     1       5.699   7.315  17.490  0.00  0.00    +0.000 OA
ATOM     11  H   UNL     1       8.869   7.448  17.339  0.00  0.00    +0.000 HD
BRANCH   8  12
ATOM     12  C   UNL     1       7.774   9.230  17.600  0.00  0.00    +0.000 C 
BRANCH  12  13
ATOM     13  C   UNL     1       8.776   9.733  18.641  0.00  0.00    +0.000 C 
BRANCH  13  15
ATOM     14  C   UNL     1       8.798  11.967  17.885  0.00  0.00    +0.000 C 
ATOM     15  O   UNL     1       9.567  10.784  18.072  0.00  0.00    +0.000 OA
ENDBRANCH  13  15
ENDBRANCH  12  13
ENDBRANCH   8  12
ENDBRANCH   2   9
ENDBRANCH   1   5
BRANCH   1  16
ATOM     16  C   UNL     1       2.704   3.640  18.440  0.00  0.00    +0.000 A 
ATOM     17  C   UNL     1       2.784   2.501  19.255  0.00  0.00    +0.000 A 
ATOM     18  C   UNL     1       2.232   2.501  20.535  0.00  0.00    +0.000 A 
ATOM     19  C   UNL     1       1.616   3.649  21.028  0.00  0.00    +0.000 A 
ATOM     20  C   UNL     1       1.568   4.807  20.249  0.00  0.00    +0.000 A 
ATOM     21  C   UNL     1       2.074   4.789  18.944  0.00  0.00    +0.000 A 
BRANCH  20  22
ATOM     22  O   UNL     1       1.053   6.003  20.677  0.00  0.00    +0.000 OA
BRANCH  22  23
ATOM     23  C   UNL     1       2.022   7.044  20.844  0.00  0.00    +0.000 C 
BRANCH  23  24
ATOM     24  C   UNL     1       1.637   8.235  20.002  0.00  0.00    +0.000 A 
ATOM     25  C   UNL     1       0.910   9.300  20.550  0.00  0.00    +0.000 A 
ATOM     26  C   UNL     1       0.587  10.410  19.768  0.00  0.00    +0.000 A 
ATOM     27  C   UNL     1       0.994  10.470  18.436  0.00  0.00    +0.000 A 
ATOM     28  C   UNL     1       1.731   9.423  17.885  0.00  0.00    +0.000 A 
ATOM     29  C   UNL     1       2.053   8.313  18.664  0.00  0.00    +0.000 A 
ENDBRANCH  23  24
ENDBRANCH  22  23
ENDBRANCH  20  22
ENDBRANCH   1  16
TORSDOF 9
ENDMDL
MODEL 6
REMARK VINA RESULT:      -7.1      2.042      3.261
REMARK  Name = 
REMARK  10 active torsions:
REMARK  status: ('A' for Active; 'I' for Inactive)
REMARK    1  A    between atoms: C_1  and  O_2
REMARK    2  A    between atoms: O_2  and  C_3
REMARK    3  A    between atoms: C_3  and  C_4
REMARK    4  A    between atoms: C_4  and  N_5
REMARK    5  A    between atoms: C_6  and  C_8
REMARK    6  A    between atoms: N_11  and  C_12
REMARK    7  A    between atoms: C_12  and  C_13
REMARK    8  A    between atoms: C_17  and  O_18
REMARK    9  A    between atoms: O_18  and  C_19
REMARK   10  A    between atoms: C_19  and  C_20
REMARK                            x       y       z     vdW  Elec       q    Type
REMARK                         _______ _______ _______ _____ _____    ______ ____
ROOT
ATOM      1  C   UNL     1       2.294   7.828  19.079  0.00  0.00    +0.000 C 
ENDROOT
BRANCH   1   5
ATOM      2  C   UNL     1       3.420   3.709  18.417  0.00  0.00    +0.000 C 
ATOM      3  C   UNL     1       2.074   4.231  17.906  0.00  0.00    +0.000 C 
ATOM      4  C   UNL     1       1.997   5.760  17.908  0.00  0.00    +0.000 C 
ATOM      5  N   UNL     1       2.358   6.356  19.210  0.00  0.00    +0.000 NA
ATOM      6  C   UNL     1       3.690   5.906  19.639  0.00  0.00    +0.000 C 
ATOM      7  C   UNL     1       3.745   4.382  19.752  0.00  0.00    +0.000 C 
BRANCH   2   9
ATOM      8  N   UNL     1       5.790   4.093  17.967  0.00  0.00    +0.000 N 
ATOM      9  C   UNL     1       4.550   3.894  17.398  0.00  0.00    +0.000 C 
ATOM     10  O   UNL     1       4.383   3.839  16.181  0.00  0.00    +0.000 OA
ATOM     11  H   UNL     1       5.858   4.294  18.957  0.00  0.00    +0.000 HD
BRANCH   8  12
ATOM     12  C   UNL     1       6.978   4.358  17.173  0.00  0.00    +0.000 C 
BRANCH  12  13
ATOM     13  C   UNL     1       7.008   5.780  16.610  0.00  0.00    +0.000 C 
BRANCH  13  15
ATOM     14  C   UNL     1       7.013   4.900  14.422  0.00  0.00    +0.000 C 
ATOM     15  O   UNL     1       7.665   5.775  15.336  0.00  0.00    +0.000 OA
ENDBRANCH  13  15
ENDBRANCH  12  13
ENDBRANCH   8  12
ENDBRANCH   2   9
ENDBRANCH   1   5
BRANCH   1  16
ATOM     16  C   UNL     1       1.376   8.538  20.053  0.00  0.00    +0.000 A 
ATOM     17  C   UNL     1       1.470   8.260  21.425  0.00  0.00    +0.000 A 
ATOM     18  C   UNL     1       0.659   8.926  22.343  0.00  0.00    +0.000 A 
ATOM     19  C   UNL     1      -0.238   9.898  21.904  0.00  0.00    +0.000 A 
ATOM     20  C   UNL     1      -0.312  10.221  20.547  0.00  0.00    +0.000 A 
ATOM     21  C   UNL     1       0.463   9.514  19.621  0.00  0.00    +0.000 A 
BRANCH  20  22
ATOM     22  O   UNL     1      -1.106  11.213  20.033  0.00  0.00    +0.000 OA
BRANCH  22  23
ATOM     23  C   UNL     1      -0.833  11.546  18.667  0.00  0.00    +0.000 C 
BRANCH  23  24
ATOM     24  C   UNL     1      -2.049  11.255  17.823  0.00  0.00    +0.000 A 
ATOM     25  C   UNL     1      -1.975  10.381  16.730  0.00  0.00    +0.000 A 
ATOM     26  C   UNL     1      -3.114  10.096  15.975  0.00  0.00    +0.000 A 
ATOM     27  C   UNL     1      -4.338  10.673  16.310  0.00  0.00    +0.000 A 
ATOM     28  C   UNL     1      -4.426  11.531  17.405  0.00  0.00    +0.000 A 
ATOM     29  C   UNL     1      -3.289  11.818  18.159  0.00  0.00    +0.000 A 
ENDBRANCH  23  24
ENDBRANCH  22  23
ENDBRANCH  20  22
ENDBRANCH   1  16
TORSDOF 9
ENDMDL
MODEL 7
REMARK VINA RESULT:      -7.1      2.208      4.099
REMARK  Name = 
REMARK  10 active torsions:
REMARK  status: ('A' for Active; 'I' for Inactive)
REMARK    1  A    between atoms: C_1  and  O_2
REMARK    2  A    between atoms: O_2  and  C_3
REMARK    3  A    between atoms: C_3  and  C_4
REMARK    4  A    between atoms: C_4  and  N_5
REMARK    5  A    between atoms: C_6  and  C_8
REMARK    6  A    between atoms: N_11  and  C_12
REMARK    7  A    between atoms: C_12  and  C_13
REMARK    8  A    between atoms: C_17  and  O_18
REMARK    9  A    between atoms: O_18  and  C_19
REMARK   10  A    between atoms: C_19  and  C_20
REMARK                            x       y       z     vdW  Elec       q    Type
REMARK                         _______ _______ _______ _____ _____    ______ ____
ROOT
ATOM      1  C   UNL     1       1.870   8.018  21.476  0.00  0.00    +0.000 C 
ENDROOT
BRANCH   1   5
ATOM      2  C   UNL     1       2.385   4.986  18.442  0.00  0.00    +0.000 C 
ATOM      3  C   UNL     1       2.267   6.460  18.045  0.00  0.00    +0.000 C 
ATOM      4  C   UNL     1       2.450   7.406  19.235  0.00  0.00    +0.000 C 
ATOM      5  N   UNL     1       1.575   7.074  20.377  0.00  0.00    +0.000 NA
ATOM      6  C   UNL     1       1.768   5.678  20.794  0.00  0.00    +0.000 C 
ATOM      7  C   UNL     1       1.475   4.715  19.642  0.00  0.00    +0.000 C 
BRANCH   2   9
ATOM      8  N   UNL     1       4.754   5.138  17.872  0.00  0.00    +0.000 N 
ATOM      9  C   UNL     1       3.832   4.563  18.720  0.00  0.00    +0.000 C 
ATOM     10  O   UNL     1       4.156   3.808  19.635  0.00  0.00    +0.000 OA
ATOM     11  H   UNL     1       4.436   5.617  17.039  0.00  0.00    +0.000 HD
BRANCH   8  12
ATOM     12  C   UNL     1       6.170   4.812  17.926  0.00  0.00    +0.000 C 
BRANCH  12  13
ATOM     13  C   UNL     1       7.044   5.857  17.230  0.00  0.00    +0.000 C 
BRANCH  13  15
ATOM     14  C   UNL     1       7.036   4.796  15.124  0.00  0.00    +0.000 C 
ATOM     15  O   UNL     1       6.660   5.959  15.853  0.00  0.00    +0.000 OA
ENDBRANCH  13  15
ENDBRANCH  12  13
ENDBRANCH   8  12
ENDBRANCH   2   9
ENDBRANCH   1   5
BRANCH   1  16
ATOM     16  C   UNL     1       0.853   9.120  21.693  0.00  0.00    +0.000 A 
ATOM     17  C   UNL     1       0.128   9.169  22.893  0.00  0.00    +0.000 A 
ATOM     18  C   UNL     1      -0.790  10.192  23.128  0.00  0.00    +0.000 A 
ATOM     19  C   UNL     1      -0.974  11.195  22.179  0.00  0.00    +0.000 A 
ATOM     20  C   UNL     1      -0.227  11.188  20.999  0.00  0.00    +0.000 A 
ATOM     21  C   UNL     1       0.653  10.131  20.740  0.00  0.00    +0.000 A 
BRANCH  20  22
ATOM     22  O   UNL     1      -0.284  12.170  20.044  0.00  0.00    +0.000 OA
BRANCH  22  23
ATOM     23  C   UNL     1      -0.239  11.693  18.695  0.00  0.00    +0.000 C 
BRANCH  23  24
ATOM     24  C   UNL     1      -1.619  11.263  18.263  0.00  0.00    +0.000 A 
ATOM     25  C   UNL     1      -2.758  11.950  18.704  0.00  0.00    +0.000 A 
ATOM     26  C   UNL     1      -4.027  11.562  18.273  0.00  0.00    +0.000 A 
ATOM     27  C   UNL     1      -4.170  10.492  17.390  0.00  0.00    +0.000 A 
ATOM     28  C   UNL     1      -3.042   9.812  16.932  0.00  0.00    +0.000 A 
ATOM     29  C   UNL     1      -1.773  10.197  17.364  0.00  0.00    +0.000 A 
ENDBRANCH  23  24
ENDBRANCH  22  23
ENDBRANCH  20  22
ENDBRANCH   1  16
TORSDOF 9
ENDMDL
MODEL 8
REMARK VINA RESULT:      -7.0      3.248      4.672
REMARK  Name = 
REMARK  10 active torsions:
REMARK  status: ('A' for Active; 'I' for Inactive)
REMARK    1  A    between atoms: C_1  and  O_2
REMARK    2  A    between atoms: O_2  and  C_3
REMARK    3  A    between atoms: C_3  and  C_4
REMARK    4  A    between atoms: C_4  and  N_5
REMARK    5  A    between atoms: C_6  and  C_8
REMARK    6  A    between atoms: N_11  and  C_12
REMARK    7  A    between atoms: C_12  and  C_13
REMARK    8  A    between atoms: C_17  and  O_18
REMARK    9  A    between atoms: O_18  and  C_19
REMARK   10  A    between atoms: C_19  and  C_20
REMARK                            x       y       z     vdW  Elec       q    Type
REMARK                         _______ _______ _______ _____ _____    ______ ____
ROOT
ATOM      1  C   UNL     1       1.717   7.942  21.569  0.00  0.00    +0.000 C 
ENDROOT
BRANCH   1   5
ATOM      2  C   UNL     1       2.573   4.983  18.539  0.00  0.00    +0.000 C 
ATOM      3  C   UNL     1       2.513   6.468  18.170  0.00  0.00    +0.000 C 
ATOM      4  C   UNL     1       2.558   7.381  19.398  0.00  0.00    +0.000 C 
ATOM      5  N   UNL     1       1.549   7.029  20.418  0.00  0.00    +0.000 NA
ATOM      6  C   UNL     1       1.682   5.621  20.818  0.00  0.00    +0.000 C 
ATOM      7  C   UNL     1       1.524   4.691  19.614  0.00  0.00    +0.000 C 
BRANCH   2   9
ATOM      8  N   UNL     1       4.932   5.523  18.863  0.00  0.00    +0.000 N 
ATOM      9  C   UNL     1       3.973   4.540  18.977  0.00  0.00    +0.000 C 
ATOM     10  O   UNL     1       4.223   3.421  19.424  0.00  0.00    +0.000 OA
ATOM     11  H   UNL     1       4.723   6.365  18.343  0.00  0.00    +0.000 HD
BRANCH   8  12
ATOM     12  C   UNL     1       6.334   5.281  19.161  0.00  0.00    +0.000 C 
BRANCH  12  13
ATOM     13  C   UNL     1       7.271   5.822  18.079  0.00  0.00    +0.000 C 
BRANCH  13  15
ATOM     14  C   UNL     1       7.644   8.099  17.588  0.00  0.00    +0.000 C 
ATOM     15  O   UNL     1       6.716   7.021  17.524  0.00  0.00    +0.000 OA
ENDBRANCH  13  15
ENDBRANCH  12  13
ENDBRANCH   8  12
ENDBRANCH   2   9
ENDBRANCH   1   5
BRANCH   1  16
ATOM     16  C   UNL     1       0.695   9.054  21.684  0.00  0.00    +0.000 A 
ATOM     17  C   UNL     1       0.131   9.352  22.934  0.00  0.00    +0.000 A 
ATOM     18  C   UNL     1      -0.787  10.393  23.071  0.00  0.00    +0.000 A 
ATOM     19  C   UNL     1      -1.131  11.168  21.966  0.00  0.00    +0.000 A 
ATOM     20  C   UNL     1      -0.545  10.916  20.723  0.00  0.00    +0.000 A 
ATOM     21  C   UNL     1       0.334   9.837  20.576  0.00  0.00    +0.000 A 
BRANCH  20  22
ATOM     22  O   UNL     1      -0.763  11.671  19.601  0.00  0.00    +0.000 OA
BRANCH  22  23
ATOM     23  C   UNL     1      -2.066  12.261  19.523  0.00  0.00    +0.000 C 
BRANCH  23  24
ATOM     24  C   UNL     1      -2.788  11.737  18.307  0.00  0.00    +0.000 A 
ATOM     25  C   UNL     1      -4.187  11.675  18.271  0.00  0.00    +0.000 A 
ATOM     26  C   UNL     1      -4.844  11.216  17.128  0.00  0.00    +0.000 A 
ATOM     27  C   UNL     1      -4.111  10.825  16.008  0.00  0.00    +0.000 A 
ATOM     28  C   UNL     1      -2.719  10.898  16.028  0.00  0.00    +0.000 A 
ATOM     29  C   UNL     1      -2.061  11.354  17.169  0.00  0.00    +0.000 A 
ENDBRANCH  23  24
ENDBRANCH  22  23
ENDBRANCH  20  22
ENDBRANCH   1  16
TORSDOF 9
ENDMDL
MODEL 9
REMARK VINA RESULT:      -7.0      3.501      5.776
REMARK  Name = 
REMARK  10 active torsions:
REMARK  status: ('A' for Active; 'I' for Inactive)
REMARK    1  A    between atoms: C_1  and  O_2
REMARK    2  A    between atoms: O_2  and  C_3
REMARK    3  A    between atoms: C_3  and  C_4
REMARK    4  A    between atoms: C_4  and  N_5
REMARK    5  A    between atoms: C_6  and  C_8
REMARK    6  A    between atoms: N_11  and  C_12
REMARK    7  A    between atoms: C_12  and  C_13
REMARK    8  A    between atoms: C_17  and  O_18
REMARK    9  A    between atoms: O_18  and  C_19
REMARK   10  A    between atoms: C_19  and  C_20
REMARK                            x       y       z     vdW  Elec       q    Type
REMARK                         _______ _______ _______ _____ _____    ______ ____
ROOT
ATOM      1  C   UNL     1       4.945   3.736  19.003  0.00  0.00    +0.000 C 
ENDROOT
BRANCH   1   5
ATOM      2  C   UNL     1       6.944   6.866  16.795  0.00  0.00    +0.000 C 
ATOM      3  C   UNL     1       5.444   6.968  17.088  0.00  0.00    +0.000 C 
ATOM      4  C   UNL     1       4.987   5.979  18.164  0.00  0.00    +0.000 C 
ATOM      5  N   UNL     1       5.398   4.588  17.882  0.00  0.00    +0.000 NA
ATOM      6  C   UNL     1       6.852   4.502  17.688  0.00  0.00    +0.000 C 
ATOM      7  C   UNL     1       7.306   5.402  16.538  0.00  0.00    +0.000 C 
BRANCH   2   9
ATOM      8  N   UNL     1       7.969   8.842  17.799  0.00  0.00    +0.000 N 
ATOM      9  C   UNL     1       7.805   7.478  17.906  0.00  0.00    +0.000 C 
ATOM     10  O   UNL     1       8.283   6.825  18.833  0.00  0.00    +0.000 OA
ATOM     11  H   UNL     1       7.702   9.311  16.943  0.00  0.00    +0.000 HD
BRANCH   8  12
ATOM     12  C   UNL     1       8.808   9.599  18.714  0.00  0.00    +0.000 C 
BRANCH  12  13
ATOM     13  C   UNL     1       9.439  10.829  18.057  0.00  0.00    +0.000 C 
BRANCH  13  15
ATOM     14  C   UNL     1      11.445  11.977  18.524  0.00  0.00    +0.000 C 
ATOM     15  O   UNL     1      10.184  11.563  19.037  0.00  0.00    +0.000 OA
ENDBRANCH  13  15
ENDBRANCH  12  13
ENDBRANCH   8  12
ENDBRANCH   2   9
ENDBRANCH   1   5
BRANCH   1  16
ATOM     16  C   UNL     1       3.506   3.925  19.437  0.00  0.00    +0.000 A 
ATOM     17  C   UNL     1       2.598   2.863  19.310  0.00  0.00    +0.000 A 
ATOM     18  C   UNL     1       1.276   3.002  19.733  0.00  0.00    +0.000 A 
ATOM     19  C   UNL     1       0.853   4.195  20.314  0.00  0.00    +0.000 A 
ATOM     20  C   UNL     1       1.755   5.247  20.491  0.00  0.00    +0.000 A 
ATOM     21  C   UNL     1       3.066   5.125  20.016  0.00  0.00    +0.000 A 
BRANCH  20  22
ATOM     22  O   UNL     1       1.450   6.426  21.120  0.00  0.00    +0.000 OA
BRANCH  22  23
ATOM     23  C   UNL     1       1.681   7.599  20.331  0.00  0.00    +0.000 C 
BRANCH  23  24
ATOM     24  C   UNL     1       0.900   8.755  20.902  0.00  0.00    +0.000 A 
ATOM     25  C   UNL     1       0.344   9.733  20.066  0.00  0.00    +0.000 A 
ATOM     26  C   UNL     1      -0.403  10.781  20.605  0.00  0.00    +0.000 A 
ATOM     27  C   UNL     1      -0.609  10.858  21.982  0.00  0.00    +0.000 A 
ATOM     28  C   UNL     1      -0.074   9.883  22.821  0.00  0.00    +0.000 A 
ATOM     29  C   UNL     1       0.674   8.835  22.285  0.00  0.00    +0.000 A 
ENDBRANCH  23  24
ENDBRANCH  22  23
ENDBRANCH  20  22
ENDBRANCH   1  16
TORSDOF 9
ENDMDL
