MODEL 1
REMARK VINA RESULT:      -7.8      0.000      0.000
REMARK  Name = 
REMARK  4 active torsions:
REMARK  status: ('A' for Active; 'I' for Inactive)
REMARK    1  A    between atoms: N_3  and  C_4
REMARK    2  A    between atoms: C_4  and  C_5
REMARK    3  A    between atoms: N_12  and  C_13
REMARK    4  A    between atoms: C_16  and  C_17
REMARK                            x       y       z     vdW  Elec       q    Type
REMARK                         _______ _______ _______ _____ _____    ______ ____
ROOT
ATOM      1  O   UNL     1       5.573   6.182  18.232  0.00  0.00    +0.000 OA
ATOM      2  C   UNL     1       4.747   5.709  17.457  0.00  0.00    +0.000 C 
ATOM      3  N   UNL     1       5.135   4.954  16.375  0.00  0.00    +0.000 N 
ATOM      4  N   UNL     1       3.378   5.855  17.532  0.00  0.00    +0.000 N 
ATOM      5  H   UNL     1       4.455   4.655  15.695  0.00  0.00    +0.000 HD
ATOM      6  H   UNL     1       2.831   5.359  16.846  0.00  0.00    +0.000 HD
ENDROOT
BRANCH   4   7
ATOM      7  C   UNL     1       2.663   6.633  18.472  0.00  0.00    +0.000 A 
ATOM      8  C   UNL     1       2.310   6.176  19.743  0.00  0.00    +0.000 A 
ATOM      9  C   UNL     1       1.646   7.009  20.650  0.00  0.00    +0.000 A 
ATOM     10  C   UNL     1       1.327   8.326  20.311  0.00  0.00    +0.000 A 
ATOM     11  C   UNL     1       1.654   8.780  19.027  0.00  0.00    +0.000 A 
ATOM     12  C   UNL     1       2.314   7.940  18.115  0.00  0.00    +0.000 A 
BRANCH  10  13
ATOM     13  C   UNL     1       0.717   9.218  21.281  0.00  0.00    +0.000 A 
ATOM     14  C   UNL     1       0.851   9.276  22.689  0.00  0.00    +0.000 A 
ATOM     15  N   UNL     1       0.094  10.226  23.243  0.00  0.00    +0.000 NA
ATOM     16  N   UNL     1      -0.537  10.776  22.194  0.00  0.00    +0.000 N 
ATOM     17  C   UNL     1      -0.196  10.211  20.998  0.00  0.00    +0.000 A 
ATOM     18  H   UNL     1      -1.191  11.531  22.368  0.00  0.00    +0.000 HD
ENDBRANCH  10  13
ENDBRANCH   4   7
BRANCH   3  19
ATOM     19  C   UNL     1       6.536   4.770  16.065  0.00  0.00    +0.000 C 
BRANCH  19  20
ATOM     20  C   UNL     1       6.760   4.601  14.587  0.00  0.00    +0.000 A 
ATOM     21  C   UNL     1       7.690   5.411  13.916  0.00  0.00    +0.000 A 
ATOM     22  C   UNL     1       7.884   5.281  12.539  0.00  0.00    +0.000 A 
ATOM     23  C   UNL     1       7.159   4.332  11.820  0.00  0.00    +0.000 A 
ATOM     24  C   UNL     1       6.245   3.514  12.483  0.00  0.00    +0.000 A 
ATOM     25 CL   UNL     1       5.349   2.342  11.597  0.00  0.00    +0.000 Cl
ATOM     26  C   UNL     1       6.046   3.639  13.857  0.00  0.00    +0.000 A 
ENDBRANCH  19  20
ENDBRANCH   3  19
TORSDOF 4
ENDMDL
MODEL 2
REMARK VINA RESULT:      -7.6      2.538      3.722
REMARK  Name = 
REMARK  4 active torsions:
REMARK  status: ('A' for Active; 'I' for Inactive)
REMARK    1  A    between atoms: N_3  and  C_4
REMARK    2  A    between atoms: C_4  and  C_5
REMARK    3  A    between atoms: N_12  and  C_13
REMARK    4  A    between atoms: C_16  and  C_17
REMARK                            x       y       z     vdW  Elec       q    Type
REMARK                         _______ _______ _______ _____ _____    ______ ____
ROOT
ATOM      1  O   UNL     1       2.206   6.026  18.249  0.00  0.00    +0.000 OA
ATOM      2  C   UNL     1       2.758   6.174  19.334  0.00  0.00    +0.000 C 
ATOM      3  N   UNL     1       3.675   5.260  19.799  0.00  0.00    +0.000 N 
ATOM      4  N   UNL     1       2.559   7.213  20.219  0.00  0.00    +0.000 N 
ATOM      5  H   UNL     1       4.046   5.342  20.732  0.00  0.00    +0.000 HD
ATOM      6  H   UNL     1       3.130   7.218  21.049  0.00  0.00    +0.000 HD
ENDROOT
BRANCH   4   7
ATOM      7  C   UNL     1       1.630   8.270  20.082  0.00  0.00    +0.000 A 
ATOM      8  C   UNL     1       1.517   9.055  18.933  0.00  0.00    +0.000 A 
ATOM      9  C   UNL     1       0.544  10.055  18.835  0.00  0.00    +0.000 A 
ATOM     10  C   UNL     1      -0.349  10.290  19.883  0.00  0.00    +0.000 A 
ATOM     11  C   UNL     1      -0.222   9.524  21.048  0.00  0.00    +0.000 A 
ATOM     12  C   UNL     1       0.760   8.526  21.149  0.00  0.00    +0.000 A 
BRANCH  10  13
ATOM     13  C   UNL     1      -1.414  11.268  19.748  0.00  0.00    +0.000 A 
ATOM     14  C   UNL     1      -1.896  12.235  20.661  0.00  0.00    +0.000 A 
ATOM     15  N   UNL     1      -2.925  12.936  20.179  0.00  0.00    +0.000 NA
ATOM     16  N   UNL     1      -3.115  12.414  18.957  0.00  0.00    +0.000 N 
ATOM     17  C   UNL     1      -2.235  11.416  18.650  0.00  0.00    +0.000 A 
ATOM     18  H   UNL     1      -3.868  12.785  18.386  0.00  0.00    +0.000 HD
ENDBRANCH  10  13
ENDBRANCH   4   7
BRANCH   3  19
ATOM     19  C   UNL     1       3.947   4.046  19.061  0.00  0.00    +0.000 C 
BRANCH  19  20
ATOM     20  C   UNL     1       5.057   4.240  18.064  0.00  0.00    +0.000 A 
ATOM     21  C   UNL     1       6.345   4.587  18.500  0.00  0.00    +0.000 A 
ATOM     22  C   UNL     1       7.376   4.798  17.581  0.00  0.00    +0.000 A 
ATOM     23  C   UNL     1       7.131   4.653  16.216  0.00  0.00    +0.000 A 
ATOM     24  C   UNL     1       5.858   4.293  15.777  0.00  0.00    +0.000 A 
ATOM     25 CL   UNL     1       5.554   4.115  14.093  0.00  0.00    +0.000 Cl
ATOM     26  C   UNL     1       4.825   4.082  16.690  0.00  0.00    +0.000 A 
ENDBRANCH  19  20
ENDBRANCH   3  19
TORSDOF 4
ENDMDL
MODEL 3
REMARK VINA RESULT:      -7.6      2.380      3.385
REMARK  Name = 
REMARK  4 active torsions:
REMARK  status: ('A' for Active; 'I' for Inactive)
REMARK    1  A    between atoms: N_3  and  C_4
REMARK    2  A    between atoms: C_4  and  C_5
REMARK    3  A    between atoms: N_12  and  C_13
REMARK    4  A    between atoms: C_16  and  C_17
REMARK                            x       y       z     vdW  Elec       q    Type
REMARK                         _______ _______ _______ _____ _____    ______ ____
ROOT
ATOM      1  O   UNL     1       2.130   5.871  18.197  0.00  0.00    +0.000 OA
ATOM      2  C   UNL     1       2.777   6.026  19.228  0.00  0.00    +0.000 C 
ATOM      3  N   UNL     1       3.771   5.147  19.587  0.00  0.00    +0.000 N 
ATOM      4  N   UNL     1       2.618   7.042  20.148  0.00  0.00    +0.000 N 
ATOM      5  H   UNL     1       4.225   5.231  20.481  0.00  0.00    +0.000 HD
ATOM      6  H   UNL     1       3.264   7.059  20.920  0.00  0.00    +0.000 HD
ENDROOT
BRANCH   4   7
ATOM      7  C   UNL     1       1.636   8.059  20.119  0.00  0.00    +0.000 A 
ATOM      8  C   UNL     1       0.740   8.298  21.162  0.00  0.00    +0.000 A 
ATOM      9  C   UNL     1      -0.178   9.352  21.099  0.00  0.00    +0.000 A 
ATOM     10  C   UNL     1      -0.215  10.202  19.992  0.00  0.00    +0.000 A 
ATOM     11  C   UNL     1       0.662   9.950  18.930  0.00  0.00    +0.000 A 
ATOM     12  C   UNL     1       1.577   8.887  18.991  0.00  0.00    +0.000 A 
BRANCH  10  13
ATOM     13  C   UNL     1      -1.106  11.348  19.963  0.00  0.00    +0.000 A 
ATOM     14  C   UNL     1      -1.665  12.105  21.020  0.00  0.00    +0.000 A 
ATOM     15  N   UNL     1      -2.475  13.076  20.590  0.00  0.00    +0.000 NA
ATOM     16  N   UNL     1      -2.447  12.940  19.255  0.00  0.00    +0.000 N 
ATOM     17  C   UNL     1      -1.641  11.924  18.830  0.00  0.00    +0.000 A 
ATOM     18  H   UNL     1      -3.007  13.574  18.695  0.00  0.00    +0.000 HD
ENDBRANCH  10  13
ENDBRANCH   4   7
BRANCH   3  19
ATOM     19  C   UNL     1       4.024   3.957  18.803  0.00  0.00    +0.000 C 
BRANCH  19  20
ATOM     20  C   UNL     1       5.119   4.180  17.795  0.00  0.00    +0.000 A 
ATOM     21  C   UNL     1       6.390   4.602  18.215  0.00  0.00    +0.000 A 
ATOM     22  C   UNL     1       7.405   4.839  17.285  0.00  0.00    +0.000 A 
ATOM     23  C   UNL     1       7.163   4.645  15.926  0.00  0.00    +0.000 A 
ATOM     24  C   UNL     1       5.908   4.211  15.503  0.00  0.00    +0.000 A 
ATOM     25 CL   UNL     1       5.607   3.972  13.826  0.00  0.00    +0.000 Cl
ATOM     26  C   UNL     1       4.890   3.973  16.427  0.00  0.00    +0.000 A 
ENDBRANCH  19  20
ENDBRANCH   3  19
TORSDOF 4
ENDMDL
MODEL 4
REMARK VINA RESULT:      -7.6      4.836      9.039
REMARK  Name = 
REMARK  4 active torsions:
REMARK  status: ('A' for Active; 'I' for Inactive)
REMARK    1  A    between atoms: N_3  and  C_4
REMARK    2  A    between atoms: C_4  and  C_5
REMARK    3  A    between atoms: N_12  and  C_13
REMARK    4  A    between atoms: C_16  and  C_17
REMARK                            x       y       z     vdW  Elec       q    Type
REMARK                         _______ _______ _______ _____ _____    ______ ____
ROOT
ATOM      1  O   UNL     1      -0.039   9.831  19.939  0.00  0.00    +0.000 OA
ATOM      2  C   UNL     1       0.514  10.221  18.917  0.00  0.00    +0.000 C 
ATOM      3  N   UNL     1       0.119  11.378  18.287  0.00  0.00    +0.000 N 
ATOM      4  N   UNL     1       1.556   9.598  18.262  0.00  0.00    +0.000 N 
ATOM      5  H   UNL     1       0.515  11.634  17.398  0.00  0.00    +0.000 HD
ATOM      6  H   UNL     1       1.937  10.073  17.460  0.00  0.00    +0.000 HD
ENDROOT
BRANCH   4   7
ATOM      7  C   UNL     1       2.142   8.356  18.600  0.00  0.00    +0.000 A 
ATOM      8  C   UNL     1       1.888   7.683  19.796  0.00  0.00    +0.000 A 
ATOM      9  C   UNL     1       2.457   6.431  20.055  0.00  0.00    +0.000 A 
ATOM     10  C   UNL     1       3.289   5.816  19.117  0.00  0.00    +0.000 A 
ATOM     11  C   UNL     1       3.569   6.499  17.927  0.00  0.00    +0.000 A 
ATOM     12  C   UNL     1       3.003   7.759  17.672  0.00  0.00    +0.000 A 
BRANCH  10  13
ATOM     13  C   UNL     1       3.809   4.480  19.346  0.00  0.00    +0.000 A 
ATOM     14  C   UNL     1       3.244   3.377  20.030  0.00  0.00    +0.000 A 
ATOM     15  N   UNL     1       4.052   2.315  20.058  0.00  0.00    +0.000 NA
ATOM     16  N   UNL     1       5.145   2.734  19.400  0.00  0.00    +0.000 N 
ATOM     17  C   UNL     1       5.048   4.020  18.951  0.00  0.00    +0.000 A 
ATOM     18  H   UNL     1       5.922   2.090  19.297  0.00  0.00    +0.000 HD
ENDBRANCH  10  13
ENDBRANCH   4   7
BRANCH   3  19
ATOM     19  C   UNL     1      -1.026  12.124  18.763  0.00  0.00    +0.000 C 
BRANCH  19  20
ATOM     20  C   UNL     1      -2.284  11.734  18.034  0.00  0.00    +0.000 A 
ATOM     21  C   UNL     1      -3.532  11.857  18.665  0.00  0.00    +0.000 A 
ATOM     22  C   UNL     1      -4.703  11.471  18.009  0.00  0.00    +0.000 A 
ATOM     23  C   UNL     1      -4.639  10.969  16.710  0.00  0.00    +0.000 A 
ATOM     24  C   UNL     1      -3.404  10.859  16.071  0.00  0.00    +0.000 A 
ATOM     25 CL   UNL     1      -3.324  10.239  14.468  0.00  0.00    +0.000 Cl
ATOM     26  C   UNL     1      -2.232  11.242  16.722  0.00  0.00    +0.000 A 
ENDBRANCH  19  20
ENDBRANCH   3  19
TORSDOF 4
ENDMDL
MODEL 5
REMARK VINA RESULT:      -7.5      6.283      8.253
REMARK  Name = 
REMARK  4 active torsions:
REMARK  status: ('A' for Active; 'I' for Inactive)
REMARK    1  A    between atoms: N_3  and  C_4
REMARK    2  A    between atoms: C_4  and  C_5
REMARK    3  A    between atoms: N_12  and  C_13
REMARK    4  A    between atoms: C_16  and  C_17
REMARK                            x       y       z     vdW  Elec       q    Type
REMARK                         _______ _______ _______ _____ _____    ______ ____
ROOT
ATOM      1  O   UNL     1       8.565   7.771  18.951  0.00  0.00    +0.000 OA
ATOM      2  C   UNL     1       8.095   8.470  18.060  0.00  0.00    +0.000 C 
ATOM      3  N   UNL     1       8.585   9.730  17.808  0.00  0.00    +0.000 N 
ATOM      4  N   UNL     1       7.053   8.135  17.221  0.00  0.00    +0.000 N 
ATOM      5  H   UNL     1       8.126  10.330  17.141  0.00  0.00    +0.000 HD
ATOM      6  H   UNL     1       6.816   8.801  16.503  0.00  0.00    +0.000 HD
ENDROOT
BRANCH   4   7
ATOM      7  C   UNL     1       6.280   6.952  17.268  0.00  0.00    +0.000 A 
ATOM      8  C   UNL     1       6.829   5.669  17.245  0.00  0.00    +0.000 A 
ATOM      9  C   UNL     1       6.018   4.534  17.346  0.00  0.00    +0.000 A 
ATOM     10  C   UNL     1       4.633   4.655  17.482  0.00  0.00    +0.000 A 
ATOM     11  C   UNL     1       4.074   5.938  17.478  0.00  0.00    +0.000 A 
ATOM     12  C   UNL     1       4.889   7.076  17.369  0.00  0.00    +0.000 A 
BRANCH  10  13
ATOM     13  C   UNL     1       3.799   3.482  17.675  0.00  0.00    +0.000 A 
ATOM     14  C   UNL     1       2.552   3.135  17.103  0.00  0.00    +0.000 A 
ATOM     15  N   UNL     1       2.076   1.975  17.561  0.00  0.00    +0.000 NA
ATOM     16  N   UNL     1       3.012   1.576  18.437  0.00  0.00    +0.000 N 
ATOM     17  C   UNL     1       4.064   2.440  18.539  0.00  0.00    +0.000 A 
ATOM     18  H   UNL     1       2.865   0.703  18.933  0.00  0.00    +0.000 HD
ENDBRANCH  10  13
ENDBRANCH   4   7
BRANCH   3  19
ATOM     19  C   UNL     1       9.613  10.306  18.647  0.00  0.00    +0.000 C 
BRANCH  19  20
ATOM     20  C   UNL     1      10.029  11.668  18.160  0.00  0.00    +0.000 A 
ATOM     21  C   UNL     1      11.222  11.825  17.438  0.00  0.00    +0.000 A 
ATOM     22  C   UNL     1      11.632  13.089  17.007  0.00  0.00    +0.000 A 
ATOM     23  C   UNL     1      10.847  14.207  17.283  0.00  0.00    +0.000 A 
ATOM     24  C   UNL     1       9.653  14.055  17.986  0.00  0.00    +0.000 A 
ATOM     25 CL   UNL     1       8.682  15.435  18.328  0.00  0.00    +0.000 Cl
ATOM     26  C   UNL     1       9.239  12.796  18.420  0.00  0.00    +0.000 A 
ENDBRANCH  19  20
ENDBRANCH   3  19
TORSDOF 4
ENDMDL
MODEL 6
REMARK VINA RESULT:      -7.5      0.644      1.232
REMARK  Name = 
REMARK  4 active torsions:
REMARK  status: ('A' for Active; 'I' for Inactive)
REMARK    1  A    between atoms: N_3  and  C_4
REMARK    2  A    between atoms: C_4  and  C_5
REMARK    3  A    between atoms: N_12  and  C_13
REMARK    4  A    between atoms: C_16  and  C_17
REMARK                            x       y       z     vdW  Elec       q    Type
REMARK                         _______ _______ _______ _____ _____    ______ ____
ROOT
ATOM      1  O   UNL     1       5.784   6.544  17.797  0.00  0.00    +0.000 OA
ATOM      2  C   UNL     1       4.936   5.778  17.350  0.00  0.00    +0.000 C 
ATOM      3  N   UNL     1       5.286   4.705  16.564  0.00  0.00    +0.000 N 
ATOM      4  N   UNL     1       3.573   5.864  17.542  0.00  0.00    +0.000 N 
ATOM      5  H   UNL     1       4.575   4.143  16.124  0.00  0.00    +0.000 HD
ATOM      6  H   UNL     1       3.012   5.125  17.149  0.00  0.00    +0.000 HD
ENDROOT
BRANCH   4   7
ATOM      7  C   UNL     1       2.882   6.889  18.230  0.00  0.00    +0.000 A 
ATOM      8  C   UNL     1       2.533   8.109  17.649  0.00  0.00    +0.000 A 
ATOM      9  C   UNL     1       1.804   9.066  18.364  0.00  0.00    +0.000 A 
ATOM     10  C   UNL     1       1.397   8.821  19.677  0.00  0.00    +0.000 A 
ATOM     11  C   UNL     1       1.769   7.610  20.274  0.00  0.00    +0.000 A 
ATOM     12  C   UNL     1       2.507   6.654  19.558  0.00  0.00    +0.000 A 
BRANCH  10  13
ATOM     13  C   UNL     1       0.566   9.776  20.390  0.00  0.00    +0.000 A 
ATOM     14  C   UNL     1       0.524  10.114  21.763  0.00  0.00    +0.000 A 
ATOM     15  N   UNL     1      -0.411  11.025  22.044  0.00  0.00    +0.000 NA
ATOM     16  N   UNL     1      -0.979  11.269  20.852  0.00  0.00    +0.000 N 
ATOM     17  C   UNL     1      -0.428  10.550  19.831  0.00  0.00    +0.000 A 
ATOM     18  H   UNL     1      -1.742  11.937  20.811  0.00  0.00    +0.000 HD
ENDBRANCH  10  13
ENDBRANCH   4   7
BRANCH   3  19
ATOM     19  C   UNL     1       6.661   4.500  16.164  0.00  0.00    +0.000 C 
BRANCH  19  20
ATOM     20  C   UNL     1       6.801   4.445  14.666  0.00  0.00    +0.000 A 
ATOM     21  C   UNL     1       7.713   5.288  14.012  0.00  0.00    +0.000 A 
ATOM     22  C   UNL     1       7.830   5.267  12.620  0.00  0.00    +0.000 A 
ATOM     23  C   UNL     1       7.045   4.393  11.869  0.00  0.00    +0.000 A 
ATOM     24  C   UNL     1       6.149   3.542  12.514  0.00  0.00    +0.000 A 
ATOM     25 CL   UNL     1       5.178   2.463  11.589  0.00  0.00    +0.000 Cl
ATOM     26  C   UNL     1       6.027   3.560  13.903  0.00  0.00    +0.000 A 
ENDBRANCH  19  20
ENDBRANCH   3  19
TORSDOF 4
ENDMDL
MODEL 7
REMARK VINA RESULT:      -7.4      4.741      6.363
REMARK  Name = 
REMARK  4 active torsions:
REMARK  status: ('A' for Active; 'I' for Inactive)
REMARK    1  A    between atoms: N_3  and  C_4
REMARK    2  A    between atoms: C_4  and  C_5
REMARK    3  A    between atoms: N_12  and  C_13
REMARK    4  A    between atoms: C_16  and  C_17
REMARK                            x       y       z     vdW  Elec       q    Type
REMARK                         _______ _______ _______ _____ _____    ______ ____
ROOT
ATOM      1  O   UNL     1       1.227   8.634  19.161  0.00  0.00    +0.000 OA
ATOM      2  C   UNL     1       1.709   8.169  20.189  0.00  0.00    +0.000 C 
ATOM      3  N   UNL     1       2.511   7.052  20.160  0.00  0.00    +0.000 N 
ATOM      4  N   UNL     1       1.531   8.653  21.468  0.00  0.00    +0.000 N 
ATOM      5  H   UNL     1       2.819   6.625  21.019  0.00  0.00    +0.000 HD
ATOM      6  H   UNL     1       2.038   8.188  22.204  0.00  0.00    +0.000 HD
ENDROOT
BRANCH   4   7
ATOM      7  C   UNL     1       0.704   9.735  21.852  0.00  0.00    +0.000 A 
ATOM      8  C   UNL     1       0.752  10.994  21.253  0.00  0.00    +0.000 A 
ATOM      9  C   UNL     1      -0.127  12.012  21.640  0.00  0.00    +0.000 A 
ATOM     10  C   UNL     1      -1.083  11.791  22.634  0.00  0.00    +0.000 A 
ATOM     11  C   UNL     1      -1.116  10.538  23.258  0.00  0.00    +0.000 A 
ATOM     12  C   UNL     1      -0.229   9.520  22.873  0.00  0.00    +0.000 A 
BRANCH  10  13
ATOM     13  C   UNL     1      -2.052  12.818  22.976  0.00  0.00    +0.000 A 
ATOM     14  C   UNL     1      -1.897  14.025  23.697  0.00  0.00    +0.000 A 
ATOM     15  N   UNL     1      -3.043  14.696  23.836  0.00  0.00    +0.000 NA
ATOM     16  N   UNL     1      -3.940  13.917  23.212  0.00  0.00    +0.000 N 
ATOM     17  C   UNL     1      -3.398  12.784  22.678  0.00  0.00    +0.000 A 
ATOM     18  H   UNL     1      -4.909  14.219  23.193  0.00  0.00    +0.000 HD
ENDBRANCH  10  13
ENDBRANCH   4   7
BRANCH   3  19
ATOM     19  C   UNL     1       2.737   6.336  18.923  0.00  0.00    +0.000 C 
BRANCH  19  20
ATOM     20  C   UNL     1       2.358   4.885  19.046  0.00  0.00    +0.000 A 
ATOM     21  C   UNL     1       2.275   4.078  17.900  0.00  0.00    +0.000 A 
ATOM     22  C   UNL     1       1.896   2.737  17.999  0.00  0.00    +0.000 A 
ATOM     23  C   UNL     1       1.609   2.186  19.246  0.00  0.00    +0.000 A 
ATOM     24  C   UNL     1       1.706   2.977  20.390  0.00  0.00    +0.000 A 
ATOM     25 CL   UNL     1       1.351   2.298  21.931  0.00  0.00    +0.000 Cl
ATOM     26  C   UNL     1       2.082   4.316  20.297  0.00  0.00    +0.000 A 
ENDBRANCH  19  20
ENDBRANCH   3  19
TORSDOF 4
ENDMDL
MODEL 8
REMARK VINA RESULT:      -7.3      4.848      6.531
REMARK  Name = 
REMARK  4 active torsions:
REMARK  status: ('A' for Active; 'I' for Inactive)
REMARK    1  A    between atoms: N_3  and  C_4
REMARK    2  A    between atoms: C_4  and  C_5
REMARK    3  A    between atoms: N_12  and  C_13
REMARK    4  A    between atoms: C_16  and  C_17
REMARK                            x       y       z     vdW  Elec       q    Type
REMARK                         _______ _______ _______ _____ _____    ______ ____
ROOT
ATOM      1  O   UNL     1       1.091   9.029  19.271  0.00  0.00    +0.000 OA
ATOM      2  C   UNL     1       1.489   8.519  20.314  0.00  0.00    +0.000 C 
ATOM      3  N   UNL     1       2.280   7.394  20.302  0.00  0.00    +0.000 N 
ATOM      4  N   UNL     1       1.217   8.956  21.594  0.00  0.00    +0.000 N 
ATOM      5  H   UNL     1       2.517   6.931  21.165  0.00  0.00    +0.000 HD
ATOM      6  H   UNL     1       1.662   8.457  22.347  0.00  0.00    +0.000 HD
ENDROOT
BRANCH   4   7
ATOM      7  C   UNL     1       0.374  10.032  21.955  0.00  0.00    +0.000 A 
ATOM      8  C   UNL     1      -0.658   9.924  22.890  0.00  0.00    +0.000 A 
ATOM      9  C   UNL     1      -1.428  11.036  23.246  0.00  0.00    +0.000 A 
ATOM     10  C   UNL     1      -1.179  12.289  22.681  0.00  0.00    +0.000 A 
ATOM     11  C   UNL     1      -0.164  12.397  21.723  0.00  0.00    +0.000 A 
ATOM     12  C   UNL     1       0.604  11.279  21.361  0.00  0.00    +0.000 A 
BRANCH  10  13
ATOM     13  C   UNL     1      -1.919  13.461  23.115  0.00  0.00    +0.000 A 
ATOM     14  C   UNL     1      -1.544  14.520  23.975  0.00  0.00    +0.000 A 
ATOM     15  N   UNL     1      -2.524  15.408  24.162  0.00  0.00    +0.000 NA
ATOM     16  N   UNL     1      -3.535  14.918  23.428  0.00  0.00    +0.000 N 
ATOM     17  C   UNL     1      -3.224  13.758  22.780  0.00  0.00    +0.000 A 
ATOM     18  H   UNL     1      -4.413  15.427  23.418  0.00  0.00    +0.000 HD
ENDBRANCH  10  13
ENDBRANCH   4   7
BRANCH   3  19
ATOM     19  C   UNL     1       2.593   6.723  19.060  0.00  0.00    +0.000 C 
BRANCH  19  20
ATOM     20  C   UNL     1       2.191   5.274  19.095  0.00  0.00    +0.000 A 
ATOM     21  C   UNL     1       1.973   4.572  17.898  0.00  0.00    +0.000 A 
ATOM     22  C   UNL     1       1.571   3.235  17.920  0.00  0.00    +0.000 A 
ATOM     23  C   UNL     1       1.394   2.581  19.139  0.00  0.00    +0.000 A 
ATOM     24  C   UNL     1       1.623   3.267  20.330  0.00  0.00    +0.000 A 
ATOM     25 CL   UNL     1       1.404   2.462  21.835  0.00  0.00    +0.000 Cl
ATOM     26  C   UNL     1       2.024   4.603  20.315  0.00  0.00    +0.000 A 
ENDBRANCH  19  20
ENDBRANCH   3  19
TORSDOF 4
ENDMDL
MODEL 9
REMARK VINA RESULT:      -7.3      5.333      9.272
REMARK  Name = 
REMARK  4 active torsions:
REMARK  status: ('A' for Active; 'I' for Inactive)
REMARK    1  A    between atoms: N_3  and  C_4
REMARK    2  A    between atoms: C_4  and  C_5
REMARK    3  A    between atoms: N_12  and  C_13
REMARK    4  A    between atoms: C_16  and  C_17
REMARK                            x       y       z     vdW  Elec       q    Type
REMARK                         _______ _______ _______ _____ _____    ______ ____
ROOT
ATOM      1  O   UNL     1      -0.291   9.657  19.937  0.00  0.00    +0.000 OA
ATOM      2  C   UNL     1       0.352  10.156  19.019  0.00  0.00    +0.000 C 
ATOM      3  N   UNL     1      -0.028  11.347  18.446  0.00  0.00    +0.000 N 
ATOM      4  N   UNL     1       1.488   9.633  18.438  0.00  0.00    +0.000 N 
ATOM      5  H   UNL     1       0.451  11.694  17.631  0.00  0.00    +0.000 HD
ATOM      6  H   UNL     1       1.931  10.191  17.726  0.00  0.00    +0.000 HD
ENDROOT
BRANCH   4   7
ATOM      7  C   UNL     1       2.093   8.390  18.737  0.00  0.00    +0.000 A 
ATOM      8  C   UNL     1       1.878   7.694  19.928  0.00  0.00    +0.000 A 
ATOM      9  C   UNL     1       2.464   6.443  20.148  0.00  0.00    +0.000 A 
ATOM     10  C   UNL     1       3.274   5.851  19.176  0.00  0.00    +0.000 A 
ATOM     11  C   UNL     1       3.514   6.557  17.991  0.00  0.00    +0.000 A 
ATOM     12  C   UNL     1       2.932   7.817  17.775  0.00  0.00    +0.000 A 
BRANCH  10  13
ATOM     13  C   UNL     1       3.810   4.515  19.367  0.00  0.00    +0.000 A 
ATOM     14  C   UNL     1       3.244   3.376  19.986  0.00  0.00    +0.000 A 
ATOM     15  N   UNL     1       4.071   2.327  19.996  0.00  0.00    +0.000 NA
ATOM     16  N   UNL     1       5.175   2.792  19.391  0.00  0.00    +0.000 N 
ATOM     17  C   UNL     1       5.069   4.093  18.992  0.00  0.00    +0.000 A 
ATOM     18  H   UNL     1       5.966   2.165  19.287  0.00  0.00    +0.000 HD
ENDBRANCH  10  13
ENDBRANCH   4   7
BRANCH   3  19
ATOM     19  C   UNL     1      -1.253  12.003  18.848  0.00  0.00    +0.000 C 
BRANCH  19  20
ATOM     20  C   UNL     1      -2.406  11.619  17.960  0.00  0.00    +0.000 A 
ATOM     21  C   UNL     1      -2.174  11.238  16.629  0.00  0.00    +0.000 A 
ATOM     22  C   UNL     1      -3.239  10.908  15.788  0.00  0.00    +0.000 A 
ATOM     23  C   UNL     1      -4.546  10.944  16.272  0.00  0.00    +0.000 A 
ATOM     24  C   UNL     1      -4.781  11.306  17.598  0.00  0.00    +0.000 A 
ATOM     25 CL   UNL     1      -6.394  11.351  18.197  0.00  0.00    +0.000 Cl
ATOM     26  C   UNL     1      -3.722  11.637  18.442  0.00  0.00    +0.000 A 
ENDBRANCH  19  20
ENDBRANCH   3  19
TORSDOF 4
ENDMDL
