MODEL 1
REMARK VINA RESULT:      -6.6      0.000      0.000
REMARK  Name = 
REMARK  13 active torsions:
REMARK  status: ('A' for Active; 'I' for Inactive)
REMARK    1  A    between atoms: C_1  and  C_2
REMARK    2  A    between atoms: C_2  and  C_3
REMARK    3  A    between atoms: C_3  and  N_4
REMARK    4  A    between atoms: N_4  and  C_5
REMARK    5  A    between atoms: N_4  and  C_8
REMARK    6  A    between atoms: C_5  and  C_6
REMARK    7  A    between atoms: C_6  and  C_7
REMARK    8  A    between atoms: C_10  and  C_11
REMARK    9  A    between atoms: C_14  and  C_15
REMARK   10  A    between atoms: C_16  and  C_17
REMARK   11  A    between atoms: N_20  and  C_21
REMARK   12  A    between atoms: N_20  and  C_22
REMARK   13  A    between atoms: C_24  and  C_25
REMARK                            x       y       z     vdW  Elec       q    Type
REMARK                         _______ _______ _______ _____ _____    ______ ____
ROOT
ATOM      1  C   UNL     1       3.964   5.190  18.556  0.00  0.00    +0.000 A 
ATOM      2  C   UNL     1       3.520   4.414  19.570  0.00  0.00    +0.000 A 
ATOM      3  C   UNL     1       2.383   4.899  20.397  0.00  0.00    +0.000 A 
ATOM      4  C   UNL     1       1.958   4.048  21.569  0.00  0.00    +0.000 C 
ATOM      5  N   UNL     1       1.746   6.011  20.208  0.00  0.00    +0.000 NA
ATOM      6  C   UNL     1       2.269   6.873  19.286  0.00  0.00    +0.000 A 
ATOM      7  C   UNL     1       2.005   8.217  19.045  0.00  0.00    +0.000 A 
ATOM      8  C   UNL     1       2.914   8.552  18.026  0.00  0.00    +0.000 A 
ATOM      9  N   UNL     1       3.694   7.548  17.650  0.00  0.00    +0.000 NA
ATOM     10  N   UNL     1       3.347   6.496  18.451  0.00  0.00    +0.000 N 
ENDROOT
BRANCH   7  11
ATOM     11  C   UNL     1       1.046   9.074  19.762  0.00  0.00    +0.000 A 
ATOM     12  C   UNL     1       1.085   9.255  21.156  0.00  0.00    +0.000 A 
ATOM     13  C   UNL     1       2.074   8.630  22.105  0.00  0.00    +0.000 C 
ATOM     14  C   UNL     1       0.126  10.089  21.768  0.00  0.00    +0.000 A 
ATOM     15  C   UNL     1      -0.810  10.807  21.040  0.00  0.00    +0.000 A 
ATOM     16  N   UNL     1      -1.700  11.683  21.629  0.00  0.00    +0.000 N 
ATOM     17  C   UNL     1      -1.808  11.931  23.057  0.00  0.00    +0.000 C 
ATOM     18  C   UNL     1      -2.671  12.374  20.793  0.00  0.00    +0.000 C 
ATOM     19  N   UNL     1      -0.820  10.663  19.702  0.00  0.00    +0.000 NA
ATOM     20  C   UNL     1       0.063   9.821  19.078  0.00  0.00    +0.000 A 
ATOM     21  C   UNL     1      -0.112   9.813  17.585  0.00  0.00    +0.000 C 
ENDBRANCH   7  11
BRANCH   1  22
ATOM     22  N   UNL     1       4.994   4.746  17.644  0.00  0.00    +0.000 N 
BRANCH  22  23
ATOM     23  C   UNL     1       4.676   4.286  16.271  0.00  0.00    +0.000 C 
BRANCH  23  25
ATOM     24  C   UNL     1       5.927   4.172  14.046  0.00  0.00    +0.000 C 
ATOM     25  C   UNL     1       5.876   3.732  15.501  0.00  0.00    +0.000 C 
ENDBRANCH  23  25
ENDBRANCH  22  23
BRANCH  22  26
ATOM     26  C   UNL     1       6.423   4.699  18.063  0.00  0.00    +0.000 C 
BRANCH  26  27
ATOM     27  C   UNL     1       7.066   5.997  18.556  0.00  0.00    +0.000 C 
ATOM     28  C   UNL     1       7.370   6.966  17.422  0.00  0.00    +0.000 C 
ENDBRANCH  26  27
ENDBRANCH  22  26
ENDBRANCH   1  22
TORSDOF 6
ENDMDL
MODEL 2
REMARK VINA RESULT:      -6.6      1.498      2.755
REMARK  Name = 
REMARK  13 active torsions:
REMARK  status: ('A' for Active; 'I' for Inactive)
REMARK    1  A    between atoms: C_1  and  C_2
REMARK    2  A    between atoms: C_2  and  C_3
REMARK    3  A    between atoms: C_3  and  N_4
REMARK    4  A    between atoms: N_4  and  C_5
REMARK    5  A    between atoms: N_4  and  C_8
REMARK    6  A    between atoms: C_5  and  C_6
REMARK    7  A    between atoms: C_6  and  C_7
REMARK    8  A    between atoms: C_10  and  C_11
REMARK    9  A    between atoms: C_14  and  C_15
REMARK   10  A    between atoms: C_16  and  C_17
REMARK   11  A    between atoms: N_20  and  C_21
REMARK   12  A    between atoms: N_20  and  C_22
REMARK   13  A    between atoms: C_24  and  C_25
REMARK                            x       y       z     vdW  Elec       q    Type
REMARK                         _______ _______ _______ _____ _____    ______ ____
ROOT
ATOM      1  C   UNL     1       4.288   4.450  16.650  0.00  0.00    +0.000 A 
ATOM      2  C   UNL     1       3.500   3.467  17.141  0.00  0.00    +0.000 A 
ATOM      3  C   UNL     1       2.333   3.838  17.984  0.00  0.00    +0.000 A 
ATOM      4  C   UNL     1       1.516   2.719  18.580  0.00  0.00    +0.000 C 
ATOM      5  N   UNL     1       1.979   5.052  18.271  0.00  0.00    +0.000 NA
ATOM      6  C   UNL     1       2.839   6.048  17.909  0.00  0.00    +0.000 A 
ATOM      7  C   UNL     1       2.898   7.384  18.295  0.00  0.00    +0.000 A 
ATOM      8  C   UNL     1       4.047   7.863  17.640  0.00  0.00    +0.000 A 
ATOM      9  N   UNL     1       4.677   6.946  16.919  0.00  0.00    +0.000 NA
ATOM     10  N   UNL     1       3.973   5.789  17.103  0.00  0.00    +0.000 N 
ENDROOT
BRANCH   7  11
ATOM     11  C   UNL     1       1.996   8.076  19.230  0.00  0.00    +0.000 A 
ATOM     12  C   UNL     1       1.693   7.569  20.507  0.00  0.00    +0.000 A 
ATOM     13  C   UNL     1       2.219   6.290  21.101  0.00  0.00    +0.000 C 
ATOM     14  C   UNL     1       0.814   8.291  21.342  0.00  0.00    +0.000 A 
ATOM     15  C   UNL     1       0.298   9.528  20.988  0.00  0.00    +0.000 A 
ATOM     16  N   UNL     1      -0.498  10.273  21.834  0.00  0.00    +0.000 N 
ATOM     17  C   UNL     1      -0.935   9.854  23.156  0.00  0.00    +0.000 C 
ATOM     18  C   UNL     1      -1.024  11.549  21.371  0.00  0.00    +0.000 C 
ATOM     19  N   UNL     1       0.623  10.030  19.782  0.00  0.00    +0.000 NA
ATOM     20  C   UNL     1       1.431   9.332  18.924  0.00  0.00    +0.000 A 
ATOM     21  C   UNL     1       1.674  10.073  17.637  0.00  0.00    +0.000 C 
ENDBRANCH   7  11
BRANCH   1  22
ATOM     22  N   UNL     1       5.378   4.178  15.740  0.00  0.00    +0.000 N 
BRANCH  22  23
ATOM     23  C   UNL     1       6.782   4.094  16.207  0.00  0.00    +0.000 C 
BRANCH  23  25
ATOM     24  C   UNL     1       7.572   5.771  17.967  0.00  0.00    +0.000 C 
ATOM     25  C   UNL     1       6.969   4.402  17.694  0.00  0.00    +0.000 C 
ENDBRANCH  23  25
ENDBRANCH  22  23
BRANCH  22  26
ATOM     26  C   UNL     1       5.136   4.005  14.280  0.00  0.00    +0.000 C 
BRANCH  26  27
ATOM     27  C   UNL     1       6.350   3.988  13.351  0.00  0.00    +0.000 C 
ATOM     28  C   UNL     1       6.087   3.227  12.059  0.00  0.00    +0.000 C 
ENDBRANCH  26  27
ENDBRANCH  22  26
ENDBRANCH   1  22
TORSDOF 6
ENDMDL
MODEL 3
REMARK VINA RESULT:      -6.6      0.300      1.751
REMARK  Name = 
REMARK  13 active torsions:
REMARK  status: ('A' for Active; 'I' for Inactive)
REMARK    1  A    between atoms: C_1  and  C_2
REMARK    2  A    between atoms: C_2  and  C_3
REMARK    3  A    between atoms: C_3  and  N_4
REMARK    4  A    between atoms: N_4  and  C_5
REMARK    5  A    between atoms: N_4  and  C_8
REMARK    6  A    between atoms: C_5  and  C_6
REMARK    7  A    between atoms: C_6  and  C_7
REMARK    8  A    between atoms: C_10  and  C_11
REMARK    9  A    between atoms: C_14  and  C_15
REMARK   10  A    between atoms: C_16  and  C_17
REMARK   11  A    between atoms: N_20  and  C_21
REMARK   12  A    between atoms: N_20  and  C_22
REMARK   13  A    between atoms: C_24  and  C_25
REMARK                            x       y       z     vdW  Elec       q    Type
REMARK                         _______ _______ _______ _____ _____    ______ ____
ROOT
ATOM      1  C   UNL     1       3.948   5.169  18.554  0.00  0.00    +0.000 A 
ATOM      2  C   UNL     1       3.513   4.399  19.578  0.00  0.00    +0.000 A 
ATOM      3  C   UNL     1       2.389   4.892  20.417  0.00  0.00    +0.000 A 
ATOM      4  C   UNL     1       1.976   4.048  21.597  0.00  0.00    +0.000 C 
ATOM      5  N   UNL     1       1.755   6.006  20.231  0.00  0.00    +0.000 NA
ATOM      6  C   UNL     1       2.269   6.862  19.300  0.00  0.00    +0.000 A 
ATOM      7  C   UNL     1       2.008   8.206  19.056  0.00  0.00    +0.000 A 
ATOM      8  C   UNL     1       2.905   8.533  18.024  0.00  0.00    +0.000 A 
ATOM      9  N   UNL     1       3.676   7.524  17.643  0.00  0.00    +0.000 NA
ATOM     10  N   UNL     1       3.335   6.477  18.452  0.00  0.00    +0.000 N 
ENDROOT
BRANCH   7  11
ATOM     11  C   UNL     1       1.062   9.070  19.782  0.00  0.00    +0.000 A 
ATOM     12  C   UNL     1       1.107   9.240  21.178  0.00  0.00    +0.000 A 
ATOM     13  C   UNL     1       2.089   8.594  22.119  0.00  0.00    +0.000 C 
ATOM     14  C   UNL     1       0.159  10.081  21.798  0.00  0.00    +0.000 A 
ATOM     15  C   UNL     1      -0.769  10.817  21.078  0.00  0.00    +0.000 A 
ATOM     16  N   UNL     1      -1.645  11.700  21.675  0.00  0.00    +0.000 N 
ATOM     17  C   UNL     1      -1.747  11.938  23.105  0.00  0.00    +0.000 C 
ATOM     18  C   UNL     1      -2.609  12.411  20.847  0.00  0.00    +0.000 C 
ATOM     19  N   UNL     1      -0.782  10.684  19.738  0.00  0.00    +0.000 NA
ATOM     20  C   UNL     1       0.087   9.836  19.106  0.00  0.00    +0.000 A 
ATOM     21  C   UNL     1      -0.090   9.842  17.613  0.00  0.00    +0.000 C 
ENDBRANCH   7  11
BRANCH   1  22
ATOM     22  N   UNL     1       4.964   4.716  17.631  0.00  0.00    +0.000 N 
BRANCH  22  23
ATOM     23  C   UNL     1       6.397   4.677  18.005  0.00  0.00    +0.000 C 
BRANCH  23  25
ATOM     24  C   UNL     1       7.397   6.984  17.551  0.00  0.00    +0.000 C 
ATOM     25  C   UNL     1       6.928   5.984  18.596  0.00  0.00    +0.000 C 
ENDBRANCH  23  25
ENDBRANCH  22  23
BRANCH  22  26
ATOM     26  C   UNL     1       4.611   4.301  16.244  0.00  0.00    +0.000 C 
BRANCH  26  27
ATOM     27  C   UNL     1       5.284   5.039  15.084  0.00  0.00    +0.000 C 
ATOM     28  C   UNL     1       6.269   4.160  14.326  0.00  0.00    +0.000 C 
ENDBRANCH  26  27
ENDBRANCH  22  26
ENDBRANCH   1  22
TORSDOF 6
ENDMDL
MODEL 4
REMARK VINA RESULT:      -6.4      0.590      1.793
REMARK  Name = 
REMARK  13 active torsions:
REMARK  status: ('A' for Active; 'I' for Inactive)
REMARK    1  A    between atoms: C_1  and  C_2
REMARK    2  A    between atoms: C_2  and  C_3
REMARK    3  A    between atoms: C_3  and  N_4
REMARK    4  A    between atoms: N_4  and  C_5
REMARK    5  A    between atoms: N_4  and  C_8
REMARK    6  A    between atoms: C_5  and  C_6
REMARK    7  A    between atoms: C_6  and  C_7
REMARK    8  A    between atoms: C_10  and  C_11
REMARK    9  A    between atoms: C_14  and  C_15
REMARK   10  A    between atoms: C_16  and  C_17
REMARK   11  A    between atoms: N_20  and  C_21
REMARK   12  A    between atoms: N_20  and  C_22
REMARK   13  A    between atoms: C_24  and  C_25
REMARK                            x       y       z     vdW  Elec       q    Type
REMARK                         _______ _______ _______ _____ _____    ______ ____
ROOT
ATOM      1  C   UNL     1       3.952   5.202  18.502  0.00  0.00    +0.000 A 
ATOM      2  C   UNL     1       3.492   4.457  19.532  0.00  0.00    +0.000 A 
ATOM      3  C   UNL     1       2.355   4.975  20.339  0.00  0.00    +0.000 A 
ATOM      4  C   UNL     1       1.912   4.159  21.528  0.00  0.00    +0.000 C 
ATOM      5  N   UNL     1       1.733   6.090  20.117  0.00  0.00    +0.000 NA
ATOM      6  C   UNL     1       2.272   6.922  19.179  0.00  0.00    +0.000 A 
ATOM      7  C   UNL     1       2.026   8.263  18.902  0.00  0.00    +0.000 A 
ATOM      8  C   UNL     1       2.946   8.562  17.882  0.00  0.00    +0.000 A 
ATOM      9  N   UNL     1       3.716   7.539  17.537  0.00  0.00    +0.000 NA
ATOM     10  N   UNL     1       3.352   6.512  18.360  0.00  0.00    +0.000 N 
ENDROOT
BRANCH   7  11
ATOM     11  C   UNL     1       1.073   9.148  19.592  0.00  0.00    +0.000 A 
ATOM     12  C   UNL     1       0.039   9.822  18.917  0.00  0.00    +0.000 A 
ATOM     13  C   UNL     1      -0.251   9.752  17.441  0.00  0.00    +0.000 C 
ATOM     14  C   UNL     1      -0.830  10.658  19.650  0.00  0.00    +0.000 A 
ATOM     15  C   UNL     1      -0.759  10.779  21.030  0.00  0.00    +0.000 A 
ATOM     16  N   UNL     1      -1.656  11.533  21.758  0.00  0.00    +0.000 N 
ATOM     17  C   UNL     1      -2.738  12.322  21.193  0.00  0.00    +0.000 C 
ATOM     18  C   UNL     1      -1.491  11.632  23.202  0.00  0.00    +0.000 C 
ATOM     19  N   UNL     1       0.206  10.100  21.678  0.00  0.00    +0.000 NA
ATOM     20  C   UNL     1       1.100   9.322  20.992  0.00  0.00    +0.000 A 
ATOM     21  C   UNL     1       2.088   8.647  21.904  0.00  0.00    +0.000 C 
ENDBRANCH   7  11
BRANCH   1  22
ATOM     22  N   UNL     1       4.983   4.723  17.608  0.00  0.00    +0.000 N 
BRANCH  22  23
ATOM     23  C   UNL     1       4.669   4.238  16.243  0.00  0.00    +0.000 C 
BRANCH  23  25
ATOM     24  C   UNL     1       6.111   3.981  14.149  0.00  0.00    +0.000 C 
ATOM     25  C   UNL     1       5.454   4.938  15.132  0.00  0.00    +0.000 C 
ENDBRANCH  23  25
ENDBRANCH  22  23
BRANCH  22  26
ATOM     26  C   UNL     1       6.408   4.665  18.040  0.00  0.00    +0.000 C 
BRANCH  26  27
ATOM     27  C   UNL     1       7.017   5.921  18.664  0.00  0.00    +0.000 C 
ATOM     28  C   UNL     1       7.469   6.933  17.620  0.00  0.00    +0.000 C 
ENDBRANCH  26  27
ENDBRANCH  22  26
ENDBRANCH   1  22
TORSDOF 6
ENDMDL
MODEL 5
REMARK VINA RESULT:      -6.4      3.088      4.904
REMARK  Name = 
REMARK  13 active torsions:
REMARK  status: ('A' for Active; 'I' for Inactive)
REMARK    1  A    between atoms: C_1  and  C_2
REMARK    2  A    between atoms: C_2  and  C_3
REMARK    3  A    between atoms: C_3  and  N_4
REMARK    4  A    between atoms: N_4  and  C_5
REMARK    5  A    between atoms: N_4  and  C_8
REMARK    6  A    between atoms: C_5  and  C_6
REMARK    7  A    between atoms: C_6  and  C_7
REMARK    8  A    between atoms: C_10  and  C_11
REMARK    9  A    between atoms: C_14  and  C_15
REMARK   10  A    between atoms: C_16  and  C_17
REMARK   11  A    between atoms: N_20  and  C_21
REMARK   12  A    between atoms: N_20  and  C_22
REMARK   13  A    between atoms: C_24  and  C_25
REMARK                            x       y       z     vdW  Elec       q    Type
REMARK                         _______ _______ _______ _____ _____    ______ ____
ROOT
ATOM      1  C   UNL     1       1.621   7.839  20.210  0.00  0.00    +0.000 A 
ATOM      2  C   UNL     1       1.145   8.029  21.461  0.00  0.00    +0.000 A 
ATOM      3  C   UNL     1       0.503   9.329  21.794  0.00  0.00    +0.000 A 
ATOM      4  C   UNL     1       0.049   9.540  23.216  0.00  0.00    +0.000 C 
ATOM      5  N   UNL     1       0.330  10.307  20.962  0.00  0.00    +0.000 NA
ATOM      6  C   UNL     1       0.930  10.194  19.741  0.00  0.00    +0.000 A 
ATOM      7  C   UNL     1       1.169  11.143  18.752  0.00  0.00    +0.000 A 
ATOM      8  C   UNL     1       1.886  10.428  17.777  0.00  0.00    +0.000 A 
ATOM      9  N   UNL     1       2.105   9.159  18.094  0.00  0.00    +0.000 NA
ATOM     10  N   UNL     1       1.560   8.993  19.336  0.00  0.00    +0.000 N 
ENDROOT
BRANCH   7  11
ATOM     11  C   UNL     1       0.807  12.570  18.790  0.00  0.00    +0.000 A 
ATOM     12  C   UNL     1      -0.526  13.015  18.791  0.00  0.00    +0.000 A 
ATOM     13  C   UNL     1      -1.753  12.142  18.755  0.00  0.00    +0.000 C 
ATOM     14  C   UNL     1      -0.788  14.401  18.822  0.00  0.00    +0.000 A 
ATOM     15  C   UNL     1       0.219  15.347  18.936  0.00  0.00    +0.000 A 
ATOM     16  N   UNL     1      -0.038  16.699  19.046  0.00  0.00    +0.000 N 
ATOM     17  C   UNL     1      -1.359  17.305  19.009  0.00  0.00    +0.000 C 
ATOM     18  C   UNL     1       1.080  17.628  19.130  0.00  0.00    +0.000 C 
ATOM     19  N   UNL     1       1.493  14.916  18.976  0.00  0.00    +0.000 NA
ATOM     20  C   UNL     1       1.787  13.581  18.894  0.00  0.00    +0.000 A 
ATOM     21  C   UNL     1       3.266  13.315  18.966  0.00  0.00    +0.000 C 
ENDBRANCH   7  11
BRANCH   1  22
ATOM     22  N   UNL     1       2.165   6.571  19.779  0.00  0.00    +0.000 N 
BRANCH  22  23
ATOM     23  C   UNL     1       2.754   6.391  18.432  0.00  0.00    +0.000 C 
BRANCH  23  25
ATOM     24  C   UNL     1       3.728   4.230  17.477  0.00  0.00    +0.000 C 
ATOM     25  C   UNL     1       3.942   5.428  18.389  0.00  0.00    +0.000 C 
ENDBRANCH  23  25
ENDBRANCH  22  23
BRANCH  22  26
ATOM     26  C   UNL     1       2.121   5.376  20.668  0.00  0.00    +0.000 C 
BRANCH  26  27
ATOM     27  C   UNL     1       1.020   4.342  20.422  0.00  0.00    +0.000 C 
ATOM     28  C   UNL     1       1.446   2.932  20.806  0.00  0.00    +0.000 C 
ENDBRANCH  26  27
ENDBRANCH  22  26
ENDBRANCH   1  22
TORSDOF 6
ENDMDL
MODEL 6
REMARK VINA RESULT:      -6.3      3.084      4.916
REMARK  Name = 
REMARK  13 active torsions:
REMARK  status: ('A' for Active; 'I' for Inactive)
REMARK    1  A    between atoms: C_1  and  C_2
REMARK    2  A    between atoms: C_2  and  C_3
REMARK    3  A    between atoms: C_3  and  N_4
REMARK    4  A    between atoms: N_4  and  C_5
REMARK    5  A    between atoms: N_4  and  C_8
REMARK    6  A    between atoms: C_5  and  C_6
REMARK    7  A    between atoms: C_6  and  C_7
REMARK    8  A    between atoms: C_10  and  C_11
REMARK    9  A    between atoms: C_14  and  C_15
REMARK   10  A    between atoms: C_16  and  C_17
REMARK   11  A    between atoms: N_20  and  C_21
REMARK   12  A    between atoms: N_20  and  C_22
REMARK   13  A    between atoms: C_24  and  C_25
REMARK                            x       y       z     vdW  Elec       q    Type
REMARK                         _______ _______ _______ _____ _____    ______ ____
ROOT
ATOM      1  C   UNL     1       1.612   7.809  20.193  0.00  0.00    +0.000 A 
ATOM      2  C   UNL     1       1.165   8.014  21.453  0.00  0.00    +0.000 A 
ATOM      3  C   UNL     1       0.541   9.321  21.788  0.00  0.00    +0.000 A 
ATOM      4  C   UNL     1       0.121   9.549  23.219  0.00  0.00    +0.000 C 
ATOM      5  N   UNL     1       0.356  10.293  20.951  0.00  0.00    +0.000 NA
ATOM      6  C   UNL     1       0.928  10.164  19.718  0.00  0.00    +0.000 A 
ATOM      7  C   UNL     1       1.152  11.103  18.716  0.00  0.00    +0.000 A 
ATOM      8  C   UNL     1       1.841  10.373  17.731  0.00  0.00    +0.000 A 
ATOM      9  N   UNL     1       2.058   9.105  18.055  0.00  0.00    +0.000 NA
ATOM     10  N   UNL     1       1.540   8.955  19.310  0.00  0.00    +0.000 N 
ENDROOT
BRANCH   7  11
ATOM     11  C   UNL     1       0.802  12.533  18.748  0.00  0.00    +0.000 A 
ATOM     12  C   UNL     1      -0.526  12.988  18.827  0.00  0.00    +0.000 A 
ATOM     13  C   UNL     1      -1.758  12.123  18.890  0.00  0.00    +0.000 C 
ATOM     14  C   UNL     1      -0.777  14.376  18.848  0.00  0.00    +0.000 A 
ATOM     15  C   UNL     1       0.241  15.317  18.877  0.00  0.00    +0.000 A 
ATOM     16  N   UNL     1      -0.000  16.672  18.976  0.00  0.00    +0.000 N 
ATOM     17  C   UNL     1      -1.317  17.286  19.014  0.00  0.00    +0.000 C 
ATOM     18  C   UNL     1       1.127  17.594  18.969  0.00  0.00    +0.000 C 
ATOM     19  N   UNL     1       1.512  14.877  18.842  0.00  0.00    +0.000 NA
ATOM     20  C   UNL     1       1.793  13.538  18.768  0.00  0.00    +0.000 A 
ATOM     21  C   UNL     1       3.271  13.263  18.748  0.00  0.00    +0.000 C 
ENDBRANCH   7  11
BRANCH   1  22
ATOM     22  N   UNL     1       2.136   6.532  19.762  0.00  0.00    +0.000 N 
BRANCH  22  23
ATOM     23  C   UNL     1       2.176   5.360  20.667  0.00  0.00    +0.000 C 
BRANCH  23  25
ATOM     24  C   UNL     1       1.559   2.886  20.490  0.00  0.00    +0.000 C 
ATOM     25  C   UNL     1       1.078   4.327  20.407  0.00  0.00    +0.000 C 
ENDBRANCH  23  25
ENDBRANCH  22  23
BRANCH  22  26
ATOM     26  C   UNL     1       2.691   6.354  18.391  0.00  0.00    +0.000 C 
BRANCH  26  27
ATOM     27  C   UNL     1       3.972   5.532  18.241  0.00  0.00    +0.000 C 
ATOM     28  C   UNL     1       3.779   4.302  17.364  0.00  0.00    +0.000 C 
ENDBRANCH  26  27
ENDBRANCH  22  26
ENDBRANCH   1  22
TORSDOF 6
ENDMDL
MODEL 7
REMARK VINA RESULT:      -6.3      3.209      4.887
REMARK  Name = 
REMARK  13 active torsions:
REMARK  status: ('A' for Active; 'I' for Inactive)
REMARK    1  A    between atoms: C_1  and  C_2
REMARK    2  A    between atoms: C_2  and  C_3
REMARK    3  A    between atoms: C_3  and  N_4
REMARK    4  A    between atoms: N_4  and  C_5
REMARK    5  A    between atoms: N_4  and  C_8
REMARK    6  A    between atoms: C_5  and  C_6
REMARK    7  A    between atoms: C_6  and  C_7
REMARK    8  A    between atoms: C_10  and  C_11
REMARK    9  A    between atoms: C_14  and  C_15
REMARK   10  A    between atoms: C_16  and  C_17
REMARK   11  A    between atoms: N_20  and  C_21
REMARK   12  A    between atoms: N_20  and  C_22
REMARK   13  A    between atoms: C_24  and  C_25
REMARK                            x       y       z     vdW  Elec       q    Type
REMARK                         _______ _______ _______ _____ _____    ______ ____
ROOT
ATOM      1  C   UNL     1       1.551   7.925  20.213  0.00  0.00    +0.000 A 
ATOM      2  C   UNL     1       1.082   8.129  21.465  0.00  0.00    +0.000 A 
ATOM      3  C   UNL     1       0.514   9.459  21.810  0.00  0.00    +0.000 A 
ATOM      4  C   UNL     1       0.069   9.681  23.234  0.00  0.00    +0.000 C 
ATOM      5  N   UNL     1       0.397  10.453  20.987  0.00  0.00    +0.000 NA
ATOM      6  C   UNL     1       0.994  10.319  19.766  0.00  0.00    +0.000 A 
ATOM      7  C   UNL     1       1.287  11.263  18.788  0.00  0.00    +0.000 A 
ATOM      8  C   UNL     1       1.966  10.518  17.807  0.00  0.00    +0.000 A 
ATOM      9  N   UNL     1       2.112   9.236  18.112  0.00  0.00    +0.000 NA
ATOM     10  N   UNL     1       1.556   9.088  19.350  0.00  0.00    +0.000 N 
ENDROOT
BRANCH   7  11
ATOM     11  C   UNL     1       1.006  12.707  18.839  0.00  0.00    +0.000 A 
ATOM     12  C   UNL     1       2.021  13.680  18.800  0.00  0.00    +0.000 A 
ATOM     13  C   UNL     1       3.501  13.415  18.704  0.00  0.00    +0.000 C 
ATOM     14  C   UNL     1       1.669  15.045  18.860  0.00  0.00    +0.000 A 
ATOM     15  C   UNL     1       0.350  15.473  18.872  0.00  0.00    +0.000 A 
ATOM     16  N   UNL     1       0.001  16.808  18.851  0.00  0.00    +0.000 N 
ATOM     17  C   UNL     1       0.939  17.918  18.863  0.00  0.00    +0.000 C 
ATOM     18  C   UNL     1      -1.408  17.173  18.897  0.00  0.00    +0.000 C 
ATOM     19  N   UNL     1      -0.620  14.541  18.867  0.00  0.00    +0.000 NA
ATOM     20  C   UNL     1      -0.314  13.206  18.864  0.00  0.00    +0.000 A 
ATOM     21  C   UNL     1      -1.541  12.337  18.852  0.00  0.00    +0.000 C 
ENDBRANCH   7  11
BRANCH   1  22
ATOM     22  N   UNL     1       2.023   6.632  19.770  0.00  0.00    +0.000 N 
BRANCH  22  23
ATOM     23  C   UNL     1       2.549   6.420  18.402  0.00  0.00    +0.000 C 
BRANCH  23  25
ATOM     24  C   UNL     1       4.084   4.635  17.408  0.00  0.00    +0.000 C 
ATOM     25  C   UNL     1       3.954   5.817  18.355  0.00  0.00    +0.000 C 
ENDBRANCH  23  25
ENDBRANCH  22  23
BRANCH  22  26
ATOM     26  C   UNL     1       1.966   5.445  20.669  0.00  0.00    +0.000 C 
BRANCH  26  27
ATOM     27  C   UNL     1       1.072   4.276  20.253  0.00  0.00    +0.000 C 
ATOM     28  C   UNL     1       1.409   2.989  20.995  0.00  0.00    +0.000 C 
ENDBRANCH  26  27
ENDBRANCH  22  26
ENDBRANCH   1  22
TORSDOF 6
ENDMDL
MODEL 8
REMARK VINA RESULT:      -6.2      0.938      2.632
REMARK  Name = 
REMARK  13 active torsions:
REMARK  status: ('A' for Active; 'I' for Inactive)
REMARK    1  A    between atoms: C_1  and  C_2
REMARK    2  A    between atoms: C_2  and  C_3
REMARK    3  A    between atoms: C_3  and  N_4
REMARK    4  A    between atoms: N_4  and  C_5
REMARK    5  A    between atoms: N_4  and  C_8
REMARK    6  A    between atoms: C_5  and  C_6
REMARK    7  A    between atoms: C_6  and  C_7
REMARK    8  A    between atoms: C_10  and  C_11
REMARK    9  A    between atoms: C_14  and  C_15
REMARK   10  A    between atoms: C_16  and  C_17
REMARK   11  A    between atoms: N_20  and  C_21
REMARK   12  A    between atoms: N_20  and  C_22
REMARK   13  A    between atoms: C_24  and  C_25
REMARK                            x       y       z     vdW  Elec       q    Type
REMARK                         _______ _______ _______ _____ _____    ______ ____
ROOT
ATOM      1  C   UNL     1       3.758   6.041  18.140  0.00  0.00    +0.000 A 
ATOM      2  C   UNL     1       3.431   5.237  19.178  0.00  0.00    +0.000 A 
ATOM      3  C   UNL     1       2.319   5.645  20.077  0.00  0.00    +0.000 A 
ATOM      4  C   UNL     1       2.026   4.768  21.269  0.00  0.00    +0.000 C 
ATOM      5  N   UNL     1       1.599   6.712  19.932  0.00  0.00    +0.000 NA
ATOM      6  C   UNL     1       2.004   7.607  18.984  0.00  0.00    +0.000 A 
ATOM      7  C   UNL     1       1.636   8.931  18.765  0.00  0.00    +0.000 A 
ATOM      8  C   UNL     1       2.455   9.326  17.693  0.00  0.00    +0.000 A 
ATOM      9  N   UNL     1       3.275   8.376  17.264  0.00  0.00    +0.000 NA
ATOM     10  N   UNL     1       3.050   7.303  18.080  0.00  0.00    +0.000 N 
ENDROOT
BRANCH   7  11
ATOM     11  C   UNL     1       0.669   9.721  19.545  0.00  0.00    +0.000 A 
ATOM     12  C   UNL     1      -0.501  10.260  18.981  0.00  0.00    +0.000 A 
ATOM     13  C   UNL     1      -0.939  10.123  17.547  0.00  0.00    +0.000 C 
ATOM     14  C   UNL     1      -1.374  11.011  19.796  0.00  0.00    +0.000 A 
ATOM     15  C   UNL     1      -1.168  11.172  21.158  0.00  0.00    +0.000 A 
ATOM     16  N   UNL     1      -2.060  11.840  21.972  0.00  0.00    +0.000 N 
ATOM     17  C   UNL     1      -3.279  12.490  21.521  0.00  0.00    +0.000 C 
ATOM     18  C   UNL     1      -1.752  11.990  23.388  0.00  0.00    +0.000 C 
ATOM     19  N   UNL     1      -0.068  10.620  21.703  0.00  0.00    +0.000 NA
ATOM     20  C   UNL     1       0.829   9.929  20.932  0.00  0.00    +0.000 A 
ATOM     21  C   UNL     1       1.979   9.390  21.737  0.00  0.00    +0.000 C 
ENDBRANCH   7  11
BRANCH   1  22
ATOM     22  N   UNL     1       4.756   5.667  17.163  0.00  0.00    +0.000 N 
BRANCH  22  23
ATOM     23  C   UNL     1       5.833   6.597  16.751  0.00  0.00    +0.000 C 
BRANCH  23  25
ATOM     24  C   UNL     1       7.783   7.980  17.654  0.00  0.00    +0.000 C 
ATOM     25  C   UNL     1       7.004   6.677  17.732  0.00  0.00    +0.000 C 
ENDBRANCH  23  25
ENDBRANCH  22  23
BRANCH  22  26
ATOM     26  C   UNL     1       4.719   4.332  16.501  0.00  0.00    +0.000 C 
BRANCH  26  27
ATOM     27  C   UNL     1       5.923   3.923  15.652  0.00  0.00    +0.000 C 
ATOM     28  C   UNL     1       5.698   4.161  14.165  0.00  0.00    +0.000 C 
ENDBRANCH  26  27
ENDBRANCH  22  26
ENDBRANCH   1  22
TORSDOF 6
ENDMDL
MODEL 9
REMARK VINA RESULT:      -6.2      3.101      4.882
REMARK  Name = 
REMARK  13 active torsions:
REMARK  status: ('A' for Active; 'I' for Inactive)
REMARK    1  A    between atoms: C_1  and  C_2
REMARK    2  A    between atoms: C_2  and  C_3
REMARK    3  A    between atoms: C_3  and  N_4
REMARK    4  A    between atoms: N_4  and  C_5
REMARK    5  A    between atoms: N_4  and  C_8
REMARK    6  A    between atoms: C_5  and  C_6
REMARK    7  A    between atoms: C_6  and  C_7
REMARK    8  A    between atoms: C_10  and  C_11
REMARK    9  A    between atoms: C_14  and  C_15
REMARK   10  A    between atoms: C_16  and  C_17
REMARK   11  A    between atoms: N_20  and  C_21
REMARK   12  A    between atoms: N_20  and  C_22
REMARK   13  A    between atoms: C_24  and  C_25
REMARK                            x       y       z     vdW  Elec       q    Type
REMARK                         _______ _______ _______ _____ _____    ______ ____
ROOT
ATOM      1  C   UNL     1       1.532   7.776  20.350  0.00  0.00    +0.000 A 
ATOM      2  C   UNL     1       1.107   8.009  21.613  0.00  0.00    +0.000 A 
ATOM      3  C   UNL     1       0.549   9.347  21.945  0.00  0.00    +0.000 A 
ATOM      4  C   UNL     1       0.153   9.603  23.378  0.00  0.00    +0.000 C 
ATOM      5  N   UNL     1       0.403  10.322  21.104  0.00  0.00    +0.000 NA
ATOM      6  C   UNL     1       0.958  10.159  19.867  0.00  0.00    +0.000 A 
ATOM      7  C   UNL     1       1.217  11.080  18.857  0.00  0.00    +0.000 A 
ATOM      8  C   UNL     1       1.862  10.313  17.871  0.00  0.00    +0.000 A 
ATOM      9  N   UNL     1       2.020   9.039  18.201  0.00  0.00    +0.000 NA
ATOM     10  N   UNL     1       1.507   8.920  19.461  0.00  0.00    +0.000 N 
ENDROOT
BRANCH   7  11
ATOM     11  C   UNL     1       0.936  12.526  18.885  0.00  0.00    +0.000 A 
ATOM     12  C   UNL     1       1.938  13.497  18.709  0.00  0.00    +0.000 A 
ATOM     13  C   UNL     1       3.401  13.229  18.473  0.00  0.00    +0.000 C 
ATOM     14  C   UNL     1       1.587  14.862  18.754  0.00  0.00    +0.000 A 
ATOM     15  C   UNL     1       0.275  15.290  18.883  0.00  0.00    +0.000 A 
ATOM     16  N   UNL     1      -0.081  16.624  18.850  0.00  0.00    +0.000 N 
ATOM     17  C   UNL     1       0.849  17.734  18.727  0.00  0.00    +0.000 C 
ATOM     18  C   UNL     1      -1.480  16.989  19.024  0.00  0.00    +0.000 C 
ATOM     19  N   UNL     1      -0.687  14.358  19.011  0.00  0.00    +0.000 NA
ATOM     20  C   UNL     1      -0.377  13.024  19.024  0.00  0.00    +0.000 A 
ATOM     21  C   UNL     1      -1.596  12.154  19.167  0.00  0.00    +0.000 C 
ENDBRANCH   7  11
BRANCH   1  22
ATOM     22  N   UNL     1       1.990   6.474  19.922  0.00  0.00    +0.000 N 
BRANCH  22  23
ATOM     23  C   UNL     1       1.347   5.226  20.395  0.00  0.00    +0.000 C 
BRANCH  23  25
ATOM     24  C   UNL     1       1.832   2.888  21.306  0.00  0.00    +0.000 C 
ATOM     25  C   UNL     1       2.244   4.351  21.274  0.00  0.00    +0.000 C 
ENDBRANCH  23  25
ENDBRANCH  22  23
BRANCH  22  26
ATOM     26  C   UNL     1       3.158   6.333  19.007  0.00  0.00    +0.000 C 
BRANCH  26  27
ATOM     27  C   UNL     1       2.994   5.451  17.769  0.00  0.00    +0.000 C 
ATOM     28  C   UNL     1       3.982   4.292  17.741  0.00  0.00    +0.000 C 
ENDBRANCH  26  27
ENDBRANCH  22  26
ENDBRANCH   1  22
TORSDOF 6
ENDMDL
