MODEL 1
REMARK VINA RESULT:      -7.4      0.000      0.000
REMARK  Name = 
REMARK  2 active torsions:
REMARK  status: ('A' for Active; 'I' for Inactive)
REMARK    1  A    between atoms: C_1  and  C_17
REMARK    2  A    between atoms: N_2  and  N_3
REMARK                            x       y       z     vdW  Elec       q    Type
REMARK                         _______ _______ _______ _____ _____    ______ ____
ROOT
ATOM      1  N   UNL     1       2.128   8.155  18.495  0.00  0.00    +0.000 N 
ATOM      2  C   UNL     1       2.939   7.049  18.264  0.00  0.00    +0.000 A 
ATOM      3  N   UNL     1       3.821   7.177  17.294  0.00  0.00    +0.000 NA
ATOM      4  N   UNL     1       4.677   6.127  17.141  0.00  0.00    +0.000 N 
ATOM      5  C   UNL     1       5.697   6.008  16.241  0.00  0.00    +0.000 A 
ATOM      6  N   UNL     1       6.321   4.862  16.412  0.00  0.00    +0.000 NA
ATOM      7  N   UNL     1       5.700   4.201  17.452  0.00  0.00    +0.000 NA
ATOM      8  C   UNL     1       4.721   4.971  17.878  0.00  0.00    +0.000 A 
ATOM      9  C   UNL     1       3.746   4.775  18.920  0.00  0.00    +0.000 A 
ATOM     10  C   UNL     1       3.709   3.609  19.694  0.00  0.00    +0.000 A 
ATOM     11  C   UNL     1       2.722   3.450  20.665  0.00  0.00    +0.000 A 
ATOM     12  C   UNL     1       1.759   4.441  20.844  0.00  0.00    +0.000 A 
ATOM     13  C   UNL     1       1.790   5.597  20.060  0.00  0.00    +0.000 A 
ATOM     14  C   UNL     1       2.805   5.793  19.116  0.00  0.00    +0.000 A 
ATOM     15  H   UNL     1       2.361   8.926  17.868  0.00  0.00    +0.000 HD
ENDROOT
BRANCH   1  17
ATOM     16  C   UNL     1       0.896   9.495  19.860  0.00  0.00    +0.000 C 
ATOM     17  N   UNL     1       1.670   8.469  19.736  0.00  0.00    +0.000 NA
BRANCH  16  18
ATOM     18  C   UNL     1       0.337   9.759  21.156  0.00  0.00    +0.000 A 
ATOM     19  C   UNL     1       0.384   9.029  22.330  0.00  0.00    +0.000 A 
ATOM     20  C   UNL     1      -0.374   9.745  23.283  0.00  0.00    +0.000 A 
ATOM     21  C   UNL     1      -0.831  10.869  22.638  0.00  0.00    +0.000 A 
ATOM     22  O   UNL     1      -0.409  10.885  21.343  0.00  0.00    +0.000 OA
ENDBRANCH  16  18
ENDBRANCH   1  17
TORSDOF 2
ENDMDL
MODEL 2
REMARK VINA RESULT:      -7.3      4.767      5.889
REMARK  Name = 
REMARK  2 active torsions:
REMARK  status: ('A' for Active; 'I' for Inactive)
REMARK    1  A    between atoms: C_1  and  C_17
REMARK    2  A    between atoms: N_2  and  N_3
REMARK                            x       y       z     vdW  Elec       q    Type
REMARK                         _______ _______ _______ _____ _____    ______ ____
ROOT
ATOM      1  N   UNL     1       4.559   2.589  16.728  0.00  0.00    +0.000 N 
ATOM      2  C   UNL     1       5.517   3.446  16.199  0.00  0.00    +0.000 A 
ATOM      3  N   UNL     1       5.757   3.314  14.910  0.00  0.00    +0.000 NA
ATOM      4  N   UNL     1       6.624   4.223  14.381  0.00  0.00    +0.000 N 
ATOM      5  C   UNL     1       7.024   4.333  13.080  0.00  0.00    +0.000 A 
ATOM      6  N   UNL     1       7.848   5.350  12.944  0.00  0.00    +0.000 NA
ATOM      7  N   UNL     1       8.001   5.931  14.186  0.00  0.00    +0.000 NA
ATOM      8  C   UNL     1       7.261   5.247  15.033  0.00  0.00    +0.000 A 
ATOM      9  C   UNL     1       7.058   5.400  16.451  0.00  0.00    +0.000 A 
ATOM     10  C   UNL     1       7.697   6.404  17.190  0.00  0.00    +0.000 A 
ATOM     11  C   UNL     1       7.497   6.486  18.567  0.00  0.00    +0.000 A 
ATOM     12  C   UNL     1       6.684   5.553  19.207  0.00  0.00    +0.000 A 
ATOM     13  C   UNL     1       6.059   4.545  18.469  0.00  0.00    +0.000 A 
ATOM     14  C   UNL     1       6.210   4.480  17.079  0.00  0.00    +0.000 A 
ATOM     15  H   UNL     1       4.163   1.982  16.010  0.00  0.00    +0.000 HD
ENDROOT
BRANCH   1  17
ATOM     16  C   UNL     1       3.364   2.047  18.587  0.00  0.00    +0.000 C 
ATOM     17  N   UNL     1       3.749   2.958  17.756  0.00  0.00    +0.000 NA
BRANCH  16  18
ATOM     18  C   UNL     1       2.593   2.463  19.725  0.00  0.00    +0.000 A 
ATOM     19  C   UNL     1       1.257   2.799  19.841  0.00  0.00    +0.000 A 
ATOM     20  C   UNL     1       1.047   3.170  21.188  0.00  0.00    +0.000 A 
ATOM     21  C   UNL     1       2.265   3.034  21.813  0.00  0.00    +0.000 A 
ATOM     22  O   UNL     1       3.212   2.609  20.932  0.00  0.00    +0.000 OA
ENDBRANCH  16  18
ENDBRANCH   1  17
TORSDOF 2
ENDMDL
MODEL 3
REMARK VINA RESULT:      -7.2      1.281      1.716
REMARK  Name = 
REMARK  2 active torsions:
REMARK  status: ('A' for Active; 'I' for Inactive)
REMARK    1  A    between atoms: C_1  and  C_17
REMARK    2  A    between atoms: N_2  and  N_3
REMARK                            x       y       z     vdW  Elec       q    Type
REMARK                         _______ _______ _______ _____ _____    ______ ____
ROOT
ATOM      1  N   UNL     1       3.004   8.052  17.414  0.00  0.00    +0.000 N 
ATOM      2  C   UNL     1       3.851   6.978  17.663  0.00  0.00    +0.000 A 
ATOM      3  N   UNL     1       5.009   7.004  17.036  0.00  0.00    +0.000 NA
ATOM      4  N   UNL     1       5.872   5.999  17.362  0.00  0.00    +0.000 N 
ATOM      5  C   UNL     1       7.138   5.802  16.889  0.00  0.00    +0.000 A 
ATOM      6  N   UNL     1       7.672   4.740  17.454  0.00  0.00    +0.000 NA
ATOM      7  N   UNL     1       6.738   4.218  18.325  0.00  0.00    +0.000 NA
ATOM      8  C   UNL     1       5.669   4.983  18.260  0.00  0.00    +0.000 A 
ATOM      9  C   UNL     1       4.399   4.895  18.934  0.00  0.00    +0.000 A 
ATOM     10  C   UNL     1       4.108   3.870  19.842  0.00  0.00    +0.000 A 
ATOM     11  C   UNL     1       2.851   3.808  20.440  0.00  0.00    +0.000 A 
ATOM     12  C   UNL     1       1.879   4.751  20.113  0.00  0.00    +0.000 A 
ATOM     13  C   UNL     1       2.168   5.765  19.196  0.00  0.00    +0.000 A 
ATOM     14  C   UNL     1       3.442   5.870  18.625  0.00  0.00    +0.000 A 
ATOM     15  H   UNL     1       3.432   8.726  16.777  0.00  0.00    +0.000 HD
ENDROOT
BRANCH   1  17
ATOM     16  C   UNL     1       1.613   9.691  18.161  0.00  0.00    +0.000 C 
ATOM     17  N   UNL     1       2.151   8.533  18.357  0.00  0.00    +0.000 NA
BRANCH  16  18
ATOM     18  C   UNL     1       0.637  10.144  19.112  0.00  0.00    +0.000 A 
ATOM     19  C   UNL     1      -0.315  11.143  19.028  0.00  0.00    +0.000 A 
ATOM     20  C   UNL     1      -0.975  11.180  20.277  0.00  0.00    +0.000 A 
ATOM     21  C   UNL     1      -0.391  10.200  21.044  0.00  0.00    +0.000 A 
ATOM     22  O   UNL     1       0.593   9.568  20.347  0.00  0.00    +0.000 OA
ENDBRANCH  16  18
ENDBRANCH   1  17
TORSDOF 2
ENDMDL
MODEL 4
REMARK VINA RESULT:      -7.2      1.403      1.514
REMARK  Name = 
REMARK  2 active torsions:
REMARK  status: ('A' for Active; 'I' for Inactive)
REMARK    1  A    between atoms: C_1  and  C_17
REMARK    2  A    between atoms: N_2  and  N_3
REMARK                            x       y       z     vdW  Elec       q    Type
REMARK                         _______ _______ _______ _____ _____    ______ ____
ROOT
ATOM      1  N   UNL     1       3.040   7.849  17.701  0.00  0.00    +0.000 N 
ATOM      2  C   UNL     1       3.636   6.662  17.291  0.00  0.00    +0.000 A 
ATOM      3  N   UNL     1       4.723   6.789  16.558  0.00  0.00    +0.000 NA
ATOM      4  N   UNL     1       5.356   5.623  16.243  0.00  0.00    +0.000 N 
ATOM      5  C   UNL     1       6.507   5.467  15.526  0.00  0.00    +0.000 A 
ATOM      6  N   UNL     1       6.825   4.192  15.451  0.00  0.00    +0.000 NA
ATOM      7  N   UNL     1       5.860   3.482  16.136  0.00  0.00    +0.000 NA
ATOM      8  C   UNL     1       4.990   4.352  16.605  0.00  0.00    +0.000 A 
ATOM      9  C   UNL     1       3.784   4.167  17.370  0.00  0.00    +0.000 A 
ATOM     10  C   UNL     1       3.332   2.897  17.751  0.00  0.00    +0.000 A 
ATOM     11  C   UNL     1       2.139   2.768  18.459  0.00  0.00    +0.000 A 
ATOM     12  C   UNL     1       1.386   3.901  18.762  0.00  0.00    +0.000 A 
ATOM     13  C   UNL     1       1.833   5.165  18.370  0.00  0.00    +0.000 A 
ATOM     14  C   UNL     1       3.055   5.315  17.702  0.00  0.00    +0.000 A 
ATOM     15  H   UNL     1       3.564   8.662  17.376  0.00  0.00    +0.000 HD
ENDROOT
BRANCH   1  17
ATOM     16  C   UNL     1       1.710   9.032  19.119  0.00  0.00    +0.000 C 
ATOM     17  N   UNL     1       2.386   7.956  18.889  0.00  0.00    +0.000 NA
BRANCH  16  18
ATOM     18  C   UNL     1       0.942   9.093  20.331  0.00  0.00    +0.000 A 
ATOM     19  C   UNL     1       0.636   8.117  21.261  0.00  0.00    +0.000 A 
ATOM     20  C   UNL     1      -0.186   8.727  22.234  0.00  0.00    +0.000 A 
ATOM     21  C   UNL     1      -0.327  10.038  21.844  0.00  0.00    +0.000 A 
ATOM     22  O   UNL     1       0.351  10.270  20.686  0.00  0.00    +0.000 OA
ENDBRANCH  16  18
ENDBRANCH   1  17
TORSDOF 2
ENDMDL
MODEL 5
REMARK VINA RESULT:      -7.0      3.837      6.236
REMARK  Name = 
REMARK  2 active torsions:
REMARK  status: ('A' for Active; 'I' for Inactive)
REMARK    1  A    between atoms: C_1  and  C_17
REMARK    2  A    between atoms: N_2  and  N_3
REMARK                            x       y       z     vdW  Elec       q    Type
REMARK                         _______ _______ _______ _____ _____    ______ ____
ROOT
ATOM      1  N   UNL     1       7.004   5.765  17.396  0.00  0.00    +0.000 N 
ATOM      2  C   UNL     1       5.840   5.283  17.985  0.00  0.00    +0.000 A 
ATOM      3  N   UNL     1       5.915   4.073  18.499  0.00  0.00    +0.000 NA
ATOM      4  N   UNL     1       4.801   3.648  19.159  0.00  0.00    +0.000 N 
ATOM      5  C   UNL     1       4.618   2.459  19.805  0.00  0.00    +0.000 A 
ATOM      6  N   UNL     1       3.420   2.418  20.349  0.00  0.00    +0.000 NA
ATOM      7  N   UNL     1       2.790   3.611  20.057  0.00  0.00    +0.000 NA
ATOM      8  C   UNL     1       3.629   4.335  19.347  0.00  0.00    +0.000 A 
ATOM      9  C   UNL     1       3.491   5.645  18.765  0.00  0.00    +0.000 A 
ATOM     10  C   UNL     1       2.315   6.395  18.889  0.00  0.00    +0.000 A 
ATOM     11  C   UNL     1       2.218   7.642  18.274  0.00  0.00    +0.000 A 
ATOM     12  C   UNL     1       3.281   8.126  17.516  0.00  0.00    +0.000 A 
ATOM     13  C   UNL     1       4.448   7.370  17.383  0.00  0.00    +0.000 A 
ATOM     14  C   UNL     1       4.580   6.138  18.035  0.00  0.00    +0.000 A 
ATOM     15  H   UNL     1       7.767   5.092  17.472  0.00  0.00    +0.000 HD
ENDROOT
BRANCH   1  17
ATOM     16  C   UNL     1       7.991   7.541  18.420  0.00  0.00    +0.000 C 
ATOM     17  N   UNL     1       7.326   7.086  17.410  0.00  0.00    +0.000 NA
BRANCH  16  18
ATOM     18  C   UNL     1       8.414   8.913  18.378  0.00  0.00    +0.000 A 
ATOM     19  C   UNL     1       8.130   9.923  17.477  0.00  0.00    +0.000 A 
ATOM     20  C   UNL     1       8.849  11.061  17.904  0.00  0.00    +0.000 A 
ATOM     21  C   UNL     1       9.522  10.681  19.041  0.00  0.00    +0.000 A 
ATOM     22  O   UNL     1       9.269   9.376  19.335  0.00  0.00    +0.000 OA
ENDBRANCH  16  18
ENDBRANCH   1  17
TORSDOF 2
ENDMDL
MODEL 6
REMARK VINA RESULT:      -7.0      3.789      6.059
REMARK  Name = 
REMARK  2 active torsions:
REMARK  status: ('A' for Active; 'I' for Inactive)
REMARK    1  A    between atoms: C_1  and  C_17
REMARK    2  A    between atoms: N_2  and  N_3
REMARK                            x       y       z     vdW  Elec       q    Type
REMARK                         _______ _______ _______ _____ _____    ______ ____
ROOT
ATOM      1  N   UNL     1       6.412   6.058  16.329  0.00  0.00    +0.000 N 
ATOM      2  C   UNL     1       5.302   5.424  16.876  0.00  0.00    +0.000 A 
ATOM      3  N   UNL     1       5.358   4.109  16.925  0.00  0.00    +0.000 NA
ATOM      4  N   UNL     1       4.311   3.502  17.552  0.00  0.00    +0.000 N 
ATOM      5  C   UNL     1       4.130   2.166  17.767  0.00  0.00    +0.000 A 
ATOM      6  N   UNL     1       3.011   1.961  18.430  0.00  0.00    +0.000 NA
ATOM      7  N   UNL     1       2.434   3.193  18.662  0.00  0.00    +0.000 NA
ATOM      8  C   UNL     1       3.224   4.103  18.132  0.00  0.00    +0.000 A 
ATOM      9  C   UNL     1       3.104   5.537  18.064  0.00  0.00    +0.000 A 
ATOM     10  C   UNL     1       2.008   6.219  18.608  0.00  0.00    +0.000 A 
ATOM     11  C   UNL     1       1.920   7.604  18.482  0.00  0.00    +0.000 A 
ATOM     12  C   UNL     1       2.909   8.302  17.792  0.00  0.00    +0.000 A 
ATOM     13  C   UNL     1       3.994   7.618  17.239  0.00  0.00    +0.000 A 
ATOM     14  C   UNL     1       4.122   6.232  17.400  0.00  0.00    +0.000 A 
ATOM     15  H   UNL     1       7.130   5.386  16.056  0.00  0.00    +0.000 HD
ENDROOT
BRANCH   1  17
ATOM     16  C   UNL     1       7.701   7.339  17.698  0.00  0.00    +0.000 C 
ATOM     17  N   UNL     1       6.825   7.283  16.750  0.00  0.00    +0.000 NA
BRANCH  16  18
ATOM     18  C   UNL     1       8.205   8.632  18.067  0.00  0.00    +0.000 A 
ATOM     19  C   UNL     1       8.081   9.863  17.451  0.00  0.00    +0.000 A 
ATOM     20  C   UNL     1       8.814  10.784  18.233  0.00  0.00    +0.000 A 
ATOM     21  C   UNL     1       9.335  10.061  19.280  0.00  0.00    +0.000 A 
ATOM     22  O   UNL     1       8.976   8.752  19.186  0.00  0.00    +0.000 OA
ENDBRANCH  16  18
ENDBRANCH   1  17
TORSDOF 2
ENDMDL
MODEL 7
REMARK VINA RESULT:      -7.0      2.128      3.579
REMARK  Name = 
REMARK  2 active torsions:
REMARK  status: ('A' for Active; 'I' for Inactive)
REMARK    1  A    between atoms: C_1  and  C_17
REMARK    2  A    between atoms: N_2  and  N_3
REMARK                            x       y       z     vdW  Elec       q    Type
REMARK                         _______ _______ _______ _____ _____    ______ ____
ROOT
ATOM      1  N   UNL     1       2.397   6.587  20.428  0.00  0.00    +0.000 N 
ATOM      2  C   UNL     1       2.888   5.529  19.672  0.00  0.00    +0.000 A 
ATOM      3  N   UNL     1       2.605   4.323  20.121  0.00  0.00    +0.000 NA
ATOM      4  N   UNL     1       3.005   3.293  19.322  0.00  0.00    +0.000 N 
ATOM      5  C   UNL     1       2.818   1.956  19.530  0.00  0.00    +0.000 A 
ATOM      6  N   UNL     1       3.319   1.267  18.527  0.00  0.00    +0.000 NA
ATOM      7  N   UNL     1       3.854   2.169  17.629  0.00  0.00    +0.000 NA
ATOM      8  C   UNL     1       3.656   3.375  18.118  0.00  0.00    +0.000 A 
ATOM      9  C   UNL     1       4.021   4.673  17.612  0.00  0.00    +0.000 A 
ATOM     10  C   UNL     1       4.712   4.835  16.405  0.00  0.00    +0.000 A 
ATOM     11  C   UNL     1       5.075   6.110  15.978  0.00  0.00    +0.000 A 
ATOM     12  C   UNL     1       4.773   7.219  16.766  0.00  0.00    +0.000 A 
ATOM     13  C   UNL     1       4.095   7.053  17.976  0.00  0.00    +0.000 A 
ATOM     14  C   UNL     1       3.679   5.783  18.395  0.00  0.00    +0.000 A 
ATOM     15  H   UNL     1       1.861   6.256  21.230  0.00  0.00    +0.000 HD
ENDROOT
BRANCH   1  17
ATOM     16  C   UNL     1       1.246   8.547  20.538  0.00  0.00    +0.000 C 
ATOM     17  N   UNL     1       2.020   7.765  19.862  0.00  0.00    +0.000 NA
BRANCH  16  18
ATOM     18  C   UNL     1       0.935   9.831  19.975  0.00  0.00    +0.000 A 
ATOM     19  C   UNL     1       0.874  10.254  18.660  0.00  0.00    +0.000 A 
ATOM     20  C   UNL     1       0.561  11.631  18.691  0.00  0.00    +0.000 A 
ATOM     21  C   UNL     1       0.443  11.964  20.020  0.00  0.00    +0.000 A 
ATOM     22  O   UNL     1       0.674  10.878  20.809  0.00  0.00    +0.000 OA
ENDBRANCH  16  18
ENDBRANCH   1  17
TORSDOF 2
ENDMDL
MODEL 8
REMARK VINA RESULT:      -6.9      3.691      7.426
REMARK  Name = 
REMARK  2 active torsions:
REMARK  status: ('A' for Active; 'I' for Inactive)
REMARK    1  A    between atoms: C_1  and  C_17
REMARK    2  A    between atoms: N_2  and  N_3
REMARK                            x       y       z     vdW  Elec       q    Type
REMARK                         _______ _______ _______ _____ _____    ______ ____
ROOT
ATOM      1  N   UNL     1       5.013   6.234  16.847  0.00  0.00    +0.000 N 
ATOM      2  C   UNL     1       4.097   5.918  17.845  0.00  0.00    +0.000 A 
ATOM      3  N   UNL     1       3.662   6.931  18.566  0.00  0.00    +0.000 NA
ATOM      4  N   UNL     1       2.692   6.627  19.474  0.00  0.00    +0.000 N 
ATOM      5  C   UNL     1       2.049   7.481  20.324  0.00  0.00    +0.000 A 
ATOM      6  N   UNL     1       1.155   6.826  21.034  0.00  0.00    +0.000 NA
ATOM      7  N   UNL     1       1.204   5.503  20.646  0.00  0.00    +0.000 NA
ATOM      8  C   UNL     1       2.126   5.401  19.713  0.00  0.00    +0.000 A 
ATOM      9  C   UNL     1       2.604   4.260  18.974  0.00  0.00    +0.000 A 
ATOM     10  C   UNL     1       2.096   2.972  19.183  0.00  0.00    +0.000 A 
ATOM     11  C   UNL     1       2.618   1.895  18.470  0.00  0.00    +0.000 A 
ATOM     12  C   UNL     1       3.664   2.099  17.572  0.00  0.00    +0.000 A 
ATOM     13  C   UNL     1       4.178   3.383  17.375  0.00  0.00    +0.000 A 
ATOM     14  C   UNL     1       3.629   4.482  18.047  0.00  0.00    +0.000 A 
ATOM     15  H   UNL     1       5.199   7.237  16.815  0.00  0.00    +0.000 HD
ENDROOT
BRANCH   1  17
ATOM     16  C   UNL     1       6.214   5.451  15.081  0.00  0.00    +0.000 C 
ATOM     17  N   UNL     1       5.071   5.546  15.676  0.00  0.00    +0.000 NA
BRANCH  16  18
ATOM     18  C   UNL     1       6.286   4.638  13.899  0.00  0.00    +0.000 A 
ATOM     19  C   UNL     1       5.472   3.615  13.451  0.00  0.00    +0.000 A 
ATOM     20  C   UNL     1       6.039   3.143  12.246  0.00  0.00    +0.000 A 
ATOM     21  C   UNL     1       7.160   3.909  12.028  0.00  0.00    +0.000 A 
ATOM     22  O   UNL     1       7.322   4.817  13.030  0.00  0.00    +0.000 OA
ENDBRANCH  16  18
ENDBRANCH   1  17
TORSDOF 2
ENDMDL
MODEL 9
REMARK VINA RESULT:      -6.7      3.626      5.972
REMARK  Name = 
REMARK  2 active torsions:
REMARK  status: ('A' for Active; 'I' for Inactive)
REMARK    1  A    between atoms: C_1  and  C_17
REMARK    2  A    between atoms: N_2  and  N_3
REMARK                            x       y       z     vdW  Elec       q    Type
REMARK                         _______ _______ _______ _____ _____    ______ ____
ROOT
ATOM      1  N   UNL     1       6.019   5.564  16.176  0.00  0.00    +0.000 N 
ATOM      2  C   UNL     1       4.970   4.985  16.881  0.00  0.00    +0.000 A 
ATOM      3  N   UNL     1       4.964   3.668  16.922  0.00  0.00    +0.000 NA
ATOM      4  N   UNL     1       3.988   3.113  17.697  0.00  0.00    +0.000 N 
ATOM      5  C   UNL     1       3.771   1.787  17.938  0.00  0.00    +0.000 A 
ATOM      6  N   UNL     1       2.752   1.636  18.757  0.00  0.00    +0.000 NA
ATOM      7  N   UNL     1       2.279   2.895  19.069  0.00  0.00    +0.000 NA
ATOM      8  C   UNL     1       3.030   3.766  18.428  0.00  0.00    +0.000 A 
ATOM      9  C   UNL     1       2.977   5.205  18.376  0.00  0.00    +0.000 A 
ATOM     10  C   UNL     1       2.009   5.939  19.072  0.00  0.00    +0.000 A 
ATOM     11  C   UNL     1       1.976   7.328  18.959  0.00  0.00    +0.000 A 
ATOM     12  C   UNL     1       2.889   7.978  18.131  0.00  0.00    +0.000 A 
ATOM     13  C   UNL     1       3.845   7.241  17.427  0.00  0.00    +0.000 A 
ATOM     14  C   UNL     1       3.922   5.851  17.570  0.00  0.00    +0.000 A 
ATOM     15  H   UNL     1       6.654   4.857  15.803  0.00  0.00    +0.000 HD
ENDROOT
BRANCH   1  17
ATOM     16  C   UNL     1       7.268   6.819  17.606  0.00  0.00    +0.000 C 
ATOM     17  N   UNL     1       6.553   6.763  16.531  0.00  0.00    +0.000 NA
BRANCH  16  18
ATOM     18  C   UNL     1       7.909   8.065  17.918  0.00  0.00    +0.000 A 
ATOM     19  C   UNL     1       8.782   8.407  18.934  0.00  0.00    +0.000 A 
ATOM     20  C   UNL     1       9.064   9.783  18.781  0.00  0.00    +0.000 A 
ATOM     21  C   UNL     1       8.352  10.196  17.679  0.00  0.00    +0.000 A 
ATOM     22  O   UNL     1       7.643   9.161  17.150  0.00  0.00    +0.000 OA
ENDBRANCH  16  18
ENDBRANCH   1  17
TORSDOF 2
ENDMDL
