MODEL 1
REMARK VINA RESULT:      -7.8      0.000      0.000
REMARK  Name = 
REMARK  2 active torsions:
REMARK  status: ('A' for Active; 'I' for Inactive)
REMARK    1  A    between atoms: C_14  and  C_15
REMARK    2  A    between atoms: N_28  and  C_29
REMARK                            x       y       z     vdW  Elec       q    Type
REMARK                         _______ _______ _______ _____ _____    ______ ____
ROOT
ATOM      1  O   UNL     1      -0.305   9.450  17.385  0.00  0.00    +0.000 OA
ATOM      2  C   UNL     1      -0.131  10.059  18.441  0.00  0.00    +0.000 C 
ATOM      3  C   UNL     1      -1.047  11.238  18.812  0.00  0.00    +0.000 C 
ATOM      4  C   UNL     1      -2.517  10.779  18.613  0.00  0.00    +0.000 C 
ATOM      5  C   UNL     1      -3.452  11.851  19.052  0.00  0.00    +0.000 A 
ATOM      6  C   UNL     1      -3.017  12.926  19.798  0.00  0.00    +0.000 A 
ATOM      7  N   UNL     1      -4.088  13.739  20.047  0.00  0.00    +0.000 N 
ATOM      8  C   UNL     1      -5.227  13.181  19.511  0.00  0.00    +0.000 A 
ATOM      9  C   UNL     1      -6.553  13.646  19.549  0.00  0.00    +0.000 A 
ATOM     10  C   UNL     1      -7.523  12.862  18.924  0.00  0.00    +0.000 A 
ATOM     11  C   UNL     1      -7.185  11.677  18.278  0.00  0.00    +0.000 A 
ATOM     12  C   UNL     1      -5.855  11.234  18.244  0.00  0.00    +0.000 A 
ATOM     13  C   UNL     1      -4.857  11.997  18.876  0.00  0.00    +0.000 A 
ATOM     14  C   UNL     1      -1.612  13.191  20.247  0.00  0.00    +0.000 C 
ATOM     15  N   UNL     1      -0.861  11.916  20.121  0.00  0.00    +0.000 N 
ATOM     16  C   UNL     1       0.399  11.789  20.710  0.00  0.00    +0.000 C 
ATOM     17  O   UNL     1       0.942  12.636  21.411  0.00  0.00    +0.000 OA
ATOM     18  C   UNL     1       0.950  10.371  20.640  0.00  0.00    +0.000 C 
ATOM     19  N   UNL     1       0.937   9.815  19.297  0.00  0.00    +0.000 N 
ATOM     20  H   UNL     1      -4.065  14.600  20.576  0.00  0.00    +0.000 HD
ENDROOT
BRANCH  14  21
ATOM     21  C   UNL     1      -1.568  13.863  21.606  0.00  0.00    +0.000 A 
ATOM     22  C   UNL     1      -1.937  13.206  22.807  0.00  0.00    +0.000 A 
ATOM     23  C   UNL     1      -1.723  13.816  24.048  0.00  0.00    +0.000 A 
ATOM     24  C   UNL     1      -1.116  15.054  24.051  0.00  0.00    +0.000 A 
ATOM     25  C   UNL     1      -0.818  15.721  22.886  0.00  0.00    +0.000 A 
ATOM     26  C   UNL     1      -1.064  15.174  21.655  0.00  0.00    +0.000 A 
ATOM     27  O   UNL     1      -0.180  16.902  23.107  0.00  0.00    +0.000 OA
ATOM     28  C   UNL     1       0.169  16.715  24.491  0.00  0.00    +0.000 C 
ATOM     29  O   UNL     1      -0.670  15.737  25.144  0.00  0.00    +0.000 OA
ENDBRANCH  14  21
BRANCH  19  30
ATOM     30  C   UNL     1       1.769   8.687  19.046  0.00  0.00    +0.000 A 
ATOM     31  C   UNL     1       2.520   8.579  17.873  0.00  0.00    +0.000 A 
ATOM     32  C   UNL     1       3.316   7.454  17.666  0.00  0.00    +0.000 A 
ATOM     33  C   UNL     1       3.305   6.453  18.624  0.00  0.00    +0.000 A 
ATOM     34  N   UNL     1       2.590   6.517  19.766  0.00  0.00    +0.000 NA
ATOM     35  C   UNL     1       1.859   7.642  19.963  0.00  0.00    +0.000 A 
ENDBRANCH  19  30
TORSDOF 2
ENDMDL
MODEL 2
REMARK VINA RESULT:      -7.7      3.959      7.013
REMARK  Name = 
REMARK  2 active torsions:
REMARK  status: ('A' for Active; 'I' for Inactive)
REMARK    1  A    between atoms: C_14  and  C_15
REMARK    2  A    between atoms: N_28  and  C_29
REMARK                            x       y       z     vdW  Elec       q    Type
REMARK                         _______ _______ _______ _____ _____    ______ ____
ROOT
ATOM      1  O   UNL     1       3.997  15.043  21.683  0.00  0.00    +0.000 OA
ATOM      2  C   UNL     1       3.481  14.463  20.727  0.00  0.00    +0.000 C 
ATOM      3  C   UNL     1       2.274  13.535  20.947  0.00  0.00    +0.000 C 
ATOM      4  C   UNL     1       1.241  14.298  21.821  0.00  0.00    +0.000 C 
ATOM      5  C   UNL     1       0.007  13.482  21.984  0.00  0.00    +0.000 A 
ATOM      6  C   UNL     1      -0.235  12.376  21.198  0.00  0.00    +0.000 A 
ATOM      7  N   UNL     1      -1.433  11.834  21.575  0.00  0.00    +0.000 N 
ATOM      8  C   UNL     1      -1.997  12.602  22.568  0.00  0.00    +0.000 A 
ATOM      9  C   UNL     1      -3.227  12.445  23.230  0.00  0.00    +0.000 A 
ATOM     10  C   UNL     1      -3.556  13.393  24.200  0.00  0.00    +0.000 A 
ATOM     11  C   UNL     1      -2.693  14.441  24.506  0.00  0.00    +0.000 A 
ATOM     12  C   UNL     1      -1.467  14.576  23.839  0.00  0.00    +0.000 A 
ATOM     13  C   UNL     1      -1.112  13.643  22.849  0.00  0.00    +0.000 A 
ATOM     14  C   UNL     1       0.659  11.828  20.127  0.00  0.00    +0.000 C 
ATOM     15  N   UNL     1       1.626  12.898  19.772  0.00  0.00    +0.000 N 
ATOM     16  C   UNL     1       2.413  12.772  18.624  0.00  0.00    +0.000 C 
ATOM     17  O   UNL     1       2.333  11.861  17.808  0.00  0.00    +0.000 OA
ATOM     18  C   UNL     1       3.215  14.028  18.310  0.00  0.00    +0.000 C 
ATOM     19  N   UNL     1       3.998  14.506  19.437  0.00  0.00    +0.000 N 
ATOM     20  H   UNL     1      -1.864  11.016  21.167  0.00  0.00    +0.000 HD
ENDROOT
BRANCH  14  21
ATOM     21  C   UNL     1      -0.131  11.231  18.979  0.00  0.00    +0.000 A 
ATOM     22  C   UNL     1       0.139   9.949  18.438  0.00  0.00    +0.000 A 
ATOM     23  C   UNL     1      -0.720   9.379  17.491  0.00  0.00    +0.000 A 
ATOM     24  C   UNL     1      -1.842  10.098  17.137  0.00  0.00    +0.000 A 
ATOM     25  C   UNL     1      -2.070  11.368  17.611  0.00  0.00    +0.000 A 
ATOM     26  C   UNL     1      -1.221  11.976  18.497  0.00  0.00    +0.000 A 
ATOM     27  O   UNL     1      -3.254  11.883  17.181  0.00  0.00    +0.000 OA
ATOM     28  C   UNL     1      -3.858  10.675  16.683  0.00  0.00    +0.000 C 
ATOM     29  O   UNL     1      -2.880   9.657  16.371  0.00  0.00    +0.000 OA
ENDBRANCH  14  21
BRANCH  19  30
ATOM     30  C   UNL     1       5.064  15.408  19.159  0.00  0.00    +0.000 A 
ATOM     31  C   UNL     1       6.338  14.951  18.812  0.00  0.00    +0.000 A 
ATOM     32  C   UNL     1       7.353  15.870  18.554  0.00  0.00    +0.000 A 
ATOM     33  C   UNL     1       7.072  17.220  18.690  0.00  0.00    +0.000 A 
ATOM     34  N   UNL     1       5.858  17.701  19.029  0.00  0.00    +0.000 NA
ATOM     35  C   UNL     1       4.876  16.788  19.230  0.00  0.00    +0.000 A 
ENDBRANCH  19  30
TORSDOF 2
ENDMDL
MODEL 3
REMARK VINA RESULT:      -7.7      0.770      1.383
REMARK  Name = 
REMARK  2 active torsions:
REMARK  status: ('A' for Active; 'I' for Inactive)
REMARK    1  A    between atoms: C_14  and  C_15
REMARK    2  A    between atoms: N_28  and  C_29
REMARK                            x       y       z     vdW  Elec       q    Type
REMARK                         _______ _______ _______ _____ _____    ______ ____
ROOT
ATOM      1  O   UNL     1      -0.199   9.340  17.350  0.00  0.00    +0.000 OA
ATOM      2  C   UNL     1      -0.022   9.950  18.406  0.00  0.00    +0.000 C 
ATOM      3  C   UNL     1      -0.928  11.138  18.771  0.00  0.00    +0.000 C 
ATOM      4  C   UNL     1      -2.402  10.692  18.570  0.00  0.00    +0.000 C 
ATOM      5  C   UNL     1      -3.328  11.774  19.004  0.00  0.00    +0.000 A 
ATOM      6  C   UNL     1      -2.884  12.846  19.749  0.00  0.00    +0.000 A 
ATOM      7  N   UNL     1      -3.949  13.669  19.994  0.00  0.00    +0.000 N 
ATOM      8  C   UNL     1      -5.092  13.121  19.456  0.00  0.00    +0.000 A 
ATOM      9  C   UNL     1      -6.413  13.598  19.490  0.00  0.00    +0.000 A 
ATOM     10  C   UNL     1      -7.388  12.821  18.864  0.00  0.00    +0.000 A 
ATOM     11  C   UNL     1      -7.061  11.632  18.221  0.00  0.00    +0.000 A 
ATOM     12  C   UNL     1      -5.734  11.177  18.191  0.00  0.00    +0.000 A 
ATOM     13  C   UNL     1      -4.731  11.932  18.824  0.00  0.00    +0.000 A 
ATOM     14  C   UNL     1      -1.478  13.099  20.201  0.00  0.00    +0.000 C 
ATOM     15  N   UNL     1      -0.739  11.817  20.080  0.00  0.00    +0.000 N 
ATOM     16  C   UNL     1       0.518  11.679  20.672  0.00  0.00    +0.000 C 
ATOM     17  O   UNL     1       1.067  12.523  21.372  0.00  0.00    +0.000 OA
ATOM     18  C   UNL     1       1.057  10.256  20.607  0.00  0.00    +0.000 C 
ATOM     19  N   UNL     1       1.041   9.698  19.265  0.00  0.00    +0.000 N 
ATOM     20  H   UNL     1      -3.919  14.531  20.521  0.00  0.00    +0.000 HD
ENDROOT
BRANCH  14  21
ATOM     21  C   UNL     1      -1.431  13.773  21.559  0.00  0.00    +0.000 A 
ATOM     22  C   UNL     1      -0.722  14.977  21.801  0.00  0.00    +0.000 A 
ATOM     23  C   UNL     1      -0.844  15.641  23.027  0.00  0.00    +0.000 A 
ATOM     24  C   UNL     1      -1.698  15.098  23.962  0.00  0.00    +0.000 A 
ATOM     25  C   UNL     1      -2.335  13.897  23.754  0.00  0.00    +0.000 A 
ATOM     26  C   UNL     1      -2.194  13.194  22.587  0.00  0.00    +0.000 A 
ATOM     27  O   UNL     1      -3.169  13.562  24.775  0.00  0.00    +0.000 OA
ATOM     28  C   UNL     1      -3.220  14.832  25.451  0.00  0.00    +0.000 C 
ATOM     29  O   UNL     1      -2.085  15.669  25.138  0.00  0.00    +0.000 OA
ENDBRANCH  14  21
BRANCH  19  30
ATOM     30  C   UNL     1       1.864   8.562  19.018  0.00  0.00    +0.000 A 
ATOM     31  C   UNL     1       2.635   8.454  17.858  0.00  0.00    +0.000 A 
ATOM     32  C   UNL     1       3.420   7.322  17.654  0.00  0.00    +0.000 A 
ATOM     33  C   UNL     1       3.379   6.312  18.603  0.00  0.00    +0.000 A 
ATOM     34  N   UNL     1       2.645   6.375  19.732  0.00  0.00    +0.000 NA
ATOM     35  C   UNL     1       1.925   7.507  19.927  0.00  0.00    +0.000 A 
ENDBRANCH  19  30
TORSDOF 2
ENDMDL
MODEL 4
REMARK VINA RESULT:      -7.6      8.079     11.209
REMARK  Name = 
REMARK  2 active torsions:
REMARK  status: ('A' for Active; 'I' for Inactive)
REMARK    1  A    between atoms: C_14  and  C_15
REMARK    2  A    between atoms: N_28  and  C_29
REMARK                            x       y       z     vdW  Elec       q    Type
REMARK                         _______ _______ _______ _____ _____    ______ ____
ROOT
ATOM      1  O   UNL     1       8.991  11.950  25.070  0.00  0.00    +0.000 OA
ATOM      2  C   UNL     1       8.075  12.594  24.556  0.00  0.00    +0.000 C 
ATOM      3  C   UNL     1       8.321  13.382  23.258  0.00  0.00    +0.000 C 
ATOM      4  C   UNL     1       9.033  12.435  22.254  0.00  0.00    +0.000 C 
ATOM      5  C   UNL     1       9.208  13.117  20.942  0.00  0.00    +0.000 A 
ATOM      6  C   UNL     1       8.538  14.284  20.642  0.00  0.00    +0.000 A 
ATOM      7  N   UNL     1       8.897  14.674  19.381  0.00  0.00    +0.000 N 
ATOM      8  C   UNL     1       9.757  13.747  18.836  0.00  0.00    +0.000 A 
ATOM      9  C   UNL     1      10.351  13.718  17.563  0.00  0.00    +0.000 A 
ATOM     10  C   UNL     1      11.183  12.637  17.271  0.00  0.00    +0.000 A 
ATOM     11  C   UNL     1      11.423  11.637  18.209  0.00  0.00    +0.000 A 
ATOM     12  C   UNL     1      10.827  11.688  19.477  0.00  0.00    +0.000 A 
ATOM     13  C   UNL     1       9.974  12.759  19.797  0.00  0.00    +0.000 A 
ATOM     14  C   UNL     1       7.597  15.030  21.539  0.00  0.00    +0.000 C 
ATOM     15  N   UNL     1       7.186  14.097  22.618  0.00  0.00    +0.000 N 
ATOM     16  C   UNL     1       6.114  14.426  23.451  0.00  0.00    +0.000 C 
ATOM     17  O   UNL     1       5.403  15.417  23.333  0.00  0.00    +0.000 OA
ATOM     18  C   UNL     1       5.711  13.289  24.383  0.00  0.00    +0.000 C 
ATOM     19  N   UNL     1       6.825  12.749  25.144  0.00  0.00    +0.000 N 
ATOM     20  H   UNL     1       8.557  15.494  18.898  0.00  0.00    +0.000 HD
ENDROOT
BRANCH  14  21
ATOM     21  C   UNL     1       6.476  15.690  20.761  0.00  0.00    +0.000 A 
ATOM     22  C   UNL     1       6.334  17.097  20.650  0.00  0.00    +0.000 A 
ATOM     23  C   UNL     1       5.379  17.651  19.789  0.00  0.00    +0.000 A 
ATOM     24  C   UNL     1       4.617  16.780  19.040  0.00  0.00    +0.000 A 
ATOM     25  C   UNL     1       4.707  15.417  19.195  0.00  0.00    +0.000 A 
ATOM     26  C   UNL     1       5.593  14.843  20.068  0.00  0.00    +0.000 A 
ATOM     27  O   UNL     1       3.908  14.737  18.330  0.00  0.00    +0.000 OA
ATOM     28  C   UNL     1       3.588  15.811  17.427  0.00  0.00    +0.000 C 
ATOM     29  O   UNL     1       3.761  17.111  18.032  0.00  0.00    +0.000 OA
ENDBRANCH  14  21
BRANCH  19  30
ATOM     30  C   UNL     1       6.516  11.981  26.302  0.00  0.00    +0.000 A 
ATOM     31  C   UNL     1       7.164  12.201  27.521  0.00  0.00    +0.000 A 
ATOM     32  C   UNL     1       6.834  11.422  28.627  0.00  0.00    +0.000 A 
ATOM     33  C   UNL     1       5.892  10.417  28.470  0.00  0.00    +0.000 A 
ATOM     34  N   UNL     1       5.249  10.169  27.310  0.00  0.00    +0.000 NA
ATOM     35  C   UNL     1       5.556  10.972  26.261  0.00  0.00    +0.000 A 
ENDBRANCH  19  30
TORSDOF 2
ENDMDL
MODEL 5
REMARK VINA RESULT:      -7.5      2.802      4.277
REMARK  Name = 
REMARK  2 active torsions:
REMARK  status: ('A' for Active; 'I' for Inactive)
REMARK    1  A    between atoms: C_14  and  C_15
REMARK    2  A    between atoms: N_28  and  C_29
REMARK                            x       y       z     vdW  Elec       q    Type
REMARK                         _______ _______ _______ _____ _____    ______ ____
ROOT
ATOM      1  O   UNL     1       2.313  11.667  18.960  0.00  0.00    +0.000 OA
ATOM      2  C   UNL     1       1.335  11.450  19.676  0.00  0.00    +0.000 C 
ATOM      3  C   UNL     1       0.578  12.623  20.323  0.00  0.00    +0.000 C 
ATOM      4  C   UNL     1       0.297  13.676  19.216  0.00  0.00    +0.000 C 
ATOM      5  C   UNL     1      -0.521  14.791  19.766  0.00  0.00    +0.000 A 
ATOM      6  C   UNL     1      -1.158  14.685  20.984  0.00  0.00    +0.000 A 
ATOM      7  N   UNL     1      -1.824  15.855  21.225  0.00  0.00    +0.000 N 
ATOM      8  C   UNL     1      -1.668  16.706  20.155  0.00  0.00    +0.000 A 
ATOM      9  C   UNL     1      -2.196  17.992  19.951  0.00  0.00    +0.000 A 
ATOM     10  C   UNL     1      -1.879  18.630  18.751  0.00  0.00    +0.000 A 
ATOM     11  C   UNL     1      -1.061  18.020  17.804  0.00  0.00    +0.000 A 
ATOM     12  C   UNL     1      -0.538  16.739  18.030  0.00  0.00    +0.000 A 
ATOM     13  C   UNL     1      -0.849  16.066  19.225  0.00  0.00    +0.000 A 
ATOM     14  C   UNL     1      -1.118  13.510  21.913  0.00  0.00    +0.000 C 
ATOM     15  N   UNL     1      -0.639  12.344  21.128  0.00  0.00    +0.000 N 
ATOM     16  C   UNL     1      -0.748  11.056  21.657  0.00  0.00    +0.000 C 
ATOM     17  O   UNL     1      -1.287  10.770  22.721  0.00  0.00    +0.000 OA
ATOM     18  C   UNL     1      -0.379   9.967  20.658  0.00  0.00    +0.000 C 
ATOM     19  N   UNL     1       0.919  10.174  20.037  0.00  0.00    +0.000 N 
ATOM     20  H   UNL     1      -2.382  16.058  22.043  0.00  0.00    +0.000 HD
ENDROOT
BRANCH  14  21
ATOM     21  C   UNL     1      -2.430  13.325  22.652  0.00  0.00    +0.000 A 
ATOM     22  C   UNL     1      -2.630  13.748  23.991  0.00  0.00    +0.000 A 
ATOM     23  C   UNL     1      -3.903  13.702  24.570  0.00  0.00    +0.000 A 
ATOM     24  C   UNL     1      -4.945  13.264  23.780  0.00  0.00    +0.000 A 
ATOM     25  C   UNL     1      -4.742  12.792  22.505  0.00  0.00    +0.000 A 
ATOM     26  C   UNL     1      -3.500  12.773  21.927  0.00  0.00    +0.000 A 
ATOM     27  O   UNL     1      -5.902  12.456  21.879  0.00  0.00    +0.000 OA
ATOM     28  C   UNL     1      -6.834  13.084  22.779  0.00  0.00    +0.000 C 
ATOM     29  O   UNL     1      -6.271  13.302  24.092  0.00  0.00    +0.000 OA
ENDBRANCH  14  21
BRANCH  19  30
ATOM     30  C   UNL     1       1.531   9.053  19.408  0.00  0.00    +0.000 A 
ATOM     31  C   UNL     1       1.789   9.035  18.034  0.00  0.00    +0.000 A 
ATOM     32  C   UNL     1       2.384   7.914  17.459  0.00  0.00    +0.000 A 
ATOM     33  C   UNL     1       2.668   6.828  18.272  0.00  0.00    +0.000 A 
ATOM     34  N   UNL     1       2.430   6.804  19.599  0.00  0.00    +0.000 NA
ATOM     35  C   UNL     1       1.892   7.925  20.142  0.00  0.00    +0.000 A 
ENDBRANCH  19  30
TORSDOF 2
ENDMDL
MODEL 6
REMARK VINA RESULT:      -7.3      1.204      1.766
REMARK  Name = 
REMARK  2 active torsions:
REMARK  status: ('A' for Active; 'I' for Inactive)
REMARK    1  A    between atoms: C_14  and  C_15
REMARK    2  A    between atoms: N_28  and  C_29
REMARK                            x       y       z     vdW  Elec       q    Type
REMARK                         _______ _______ _______ _____ _____    ______ ____
ROOT
ATOM      1  O   UNL     1      -0.948  10.076  18.117  0.00  0.00    +0.000 OA
ATOM      2  C   UNL     1      -0.482  10.769  19.023  0.00  0.00    +0.000 C 
ATOM      3  C   UNL     1      -1.209  12.052  19.462  0.00  0.00    +0.000 C 
ATOM      4  C   UNL     1      -2.706  11.700  19.677  0.00  0.00    +0.000 C 
ATOM      5  C   UNL     1      -3.441  12.885  20.200  0.00  0.00    +0.000 A 
ATOM      6  C   UNL     1      -2.773  13.988  20.690  0.00  0.00    +0.000 A 
ATOM      7  N   UNL     1      -3.701  14.908  21.092  0.00  0.00    +0.000 N 
ATOM      8  C   UNL     1      -4.968  14.398  20.913  0.00  0.00    +0.000 A 
ATOM      9  C   UNL     1      -6.214  14.974  21.214  0.00  0.00    +0.000 A 
ATOM     10  C   UNL     1      -7.351  14.216  20.935  0.00  0.00    +0.000 A 
ATOM     11  C   UNL     1      -7.253  12.949  20.369  0.00  0.00    +0.000 A 
ATOM     12  C   UNL     1      -6.000  12.395  20.069  0.00  0.00    +0.000 A 
ATOM     13  C   UNL     1      -4.834  13.130  20.350  0.00  0.00    +0.000 A 
ATOM     14  C   UNL     1      -1.288  14.178  20.754  0.00  0.00    +0.000 C 
ATOM     15  N   UNL     1      -0.667  12.838  20.601  0.00  0.00    +0.000 N 
ATOM     16  C   UNL     1       0.691  12.664  20.881  0.00  0.00    +0.000 C 
ATOM     17  O   UNL     1       1.438  13.527  21.328  0.00  0.00    +0.000 OA
ATOM     18  C   UNL     1       1.126  11.204  20.847  0.00  0.00    +0.000 C 
ATOM     19  N   UNL     1       0.748  10.522  19.620  0.00  0.00    +0.000 N 
ATOM     20  H   UNL     1      -3.499  15.812  21.496  0.00  0.00    +0.000 HD
ENDROOT
BRANCH  14  21
ATOM     21  C   UNL     1      -0.870  14.974  21.975  0.00  0.00    +0.000 A 
ATOM     22  C   UNL     1      -0.181  16.210  21.894  0.00  0.00    +0.000 A 
ATOM     23  C   UNL     1       0.037  16.981  23.042  0.00  0.00    +0.000 A 
ATOM     24  C   UNL     1      -0.471  16.506  24.233  0.00  0.00    +0.000 A 
ATOM     25  C   UNL     1      -1.081  15.277  24.324  0.00  0.00    +0.000 A 
ATOM     26  C   UNL     1      -1.262  14.474  23.229  0.00  0.00    +0.000 A 
ATOM     27  O   UNL     1      -1.555  15.018  25.573  0.00  0.00    +0.000 OA
ATOM     28  C   UNL     1      -1.463  16.343  26.128  0.00  0.00    +0.000 C 
ATOM     29  O   UNL     1      -0.516  17.174  25.420  0.00  0.00    +0.000 OA
ENDBRANCH  14  21
BRANCH  19  30
ATOM     30  C   UNL     1       1.426   9.309  19.309  0.00  0.00    +0.000 A 
ATOM     31  C   UNL     1       2.013   9.098  18.059  0.00  0.00    +0.000 A 
ATOM     32  C   UNL     1       2.661   7.893  17.796  0.00  0.00    +0.000 A 
ATOM     33  C   UNL     1       2.668   6.919  18.782  0.00  0.00    +0.000 A 
ATOM     34  N   UNL     1       2.109   7.082  19.999  0.00  0.00    +0.000 NA
ATOM     35  C   UNL     1       1.524   8.280  20.245  0.00  0.00    +0.000 A 
ENDBRANCH  19  30
TORSDOF 2
ENDMDL
MODEL 7
REMARK VINA RESULT:      -7.0      9.077     10.297
REMARK  Name = 
REMARK  2 active torsions:
REMARK  status: ('A' for Active; 'I' for Inactive)
REMARK    1  A    between atoms: C_14  and  C_15
REMARK    2  A    between atoms: N_28  and  C_29
REMARK                            x       y       z     vdW  Elec       q    Type
REMARK                         _______ _______ _______ _____ _____    ______ ____
ROOT
ATOM      1  O   UNL     1       9.191  15.264  20.841  0.00  0.00    +0.000 OA
ATOM      2  C   UNL     1       8.910  14.307  21.564  0.00  0.00    +0.000 C 
ATOM      3  C   UNL     1       8.186  14.538  22.901  0.00  0.00    +0.000 C 
ATOM      4  C   UNL     1       6.973  15.469  22.630  0.00  0.00    +0.000 C 
ATOM      5  C   UNL     1       6.176  15.648  23.875  0.00  0.00    +0.000 A 
ATOM      6  C   UNL     1       6.364  14.835  24.973  0.00  0.00    +0.000 A 
ATOM      7  N   UNL     1       5.501  15.235  25.956  0.00  0.00    +0.000 N 
ATOM      8  C   UNL     1       4.719  16.270  25.494  0.00  0.00    +0.000 A 
ATOM      9  C   UNL     1       3.685  16.967  26.142  0.00  0.00    +0.000 A 
ATOM     10  C   UNL     1       3.047  17.976  25.421  0.00  0.00    +0.000 A 
ATOM     11  C   UNL     1       3.430  18.287  24.120  0.00  0.00    +0.000 A 
ATOM     12  C   UNL     1       4.470  17.584  23.494  0.00  0.00    +0.000 A 
ATOM     13  C   UNL     1       5.125  16.553  24.191  0.00  0.00    +0.000 A 
ATOM     14  C   UNL     1       7.355  13.719  25.100  0.00  0.00    +0.000 C 
ATOM     15  N   UNL     1       7.797  13.365  23.727  0.00  0.00    +0.000 N 
ATOM     16  C   UNL     1       8.518  12.189  23.508  0.00  0.00    +0.000 C 
ATOM     17  O   UNL     1       8.775  11.347  24.362  0.00  0.00    +0.000 OA
ATOM     18  C   UNL     1       8.737  11.888  22.031  0.00  0.00    +0.000 C 
ATOM     19  N   UNL     1       9.311  13.003  21.297  0.00  0.00    +0.000 N 
ATOM     20  H   UNL     1       5.416  14.816  26.872  0.00  0.00    +0.000 HD
ENDROOT
BRANCH  14  21
ATOM     21  C   UNL     1       6.822  12.579  25.946  0.00  0.00    +0.000 A 
ATOM     22  C   UNL     1       7.300  12.294  27.249  0.00  0.00    +0.000 A 
ATOM     23  C   UNL     1       6.664  11.336  28.048  0.00  0.00    +0.000 A 
ATOM     24  C   UNL     1       5.548  10.716  27.529  0.00  0.00    +0.000 A 
ATOM     25  C   UNL     1       5.123  10.943  26.241  0.00  0.00    +0.000 A 
ATOM     26  C   UNL     1       5.755  11.834  25.415  0.00  0.00    +0.000 A 
ATOM     27  O   UNL     1       3.978  10.272  25.941  0.00  0.00    +0.000 OA
ATOM     28  C   UNL     1       3.584   9.891  27.271  0.00  0.00    +0.000 C 
ATOM     29  O   UNL     1       4.694   9.889  28.196  0.00  0.00    +0.000 OA
ENDBRANCH  14  21
BRANCH  19  30
ATOM     30  C   UNL     1       9.913  12.719  20.038  0.00  0.00    +0.000 A 
ATOM     31  C   UNL     1      11.259  12.357  19.937  0.00  0.00    +0.000 A 
ATOM     32  C   UNL     1      11.809  12.093  18.684  0.00  0.00    +0.000 A 
ATOM     33  C   UNL     1      11.003  12.238  17.566  0.00  0.00    +0.000 A 
ATOM     34  N   UNL     1       9.703  12.590  17.621  0.00  0.00    +0.000 NA
ATOM     35  C   UNL     1       9.180  12.797  18.856  0.00  0.00    +0.000 A 
ENDBRANCH  19  30
TORSDOF 2
ENDMDL
MODEL 8
REMARK VINA RESULT:      -6.9      6.941     10.147
REMARK  Name = 
REMARK  2 active torsions:
REMARK  status: ('A' for Active; 'I' for Inactive)
REMARK    1  A    between atoms: C_14  and  C_15
REMARK    2  A    between atoms: N_28  and  C_29
REMARK                            x       y       z     vdW  Elec       q    Type
REMARK                         _______ _______ _______ _____ _____    ______ ____
ROOT
ATOM      1  O   UNL     1       1.736  13.473  21.572  0.00  0.00    +0.000 OA
ATOM      2  C   UNL     1       2.541  13.753  20.683  0.00  0.00    +0.000 C 
ATOM      3  C   UNL     1       3.830  14.520  21.024  0.00  0.00    +0.000 C 
ATOM      4  C   UNL     1       4.493  13.818  22.241  0.00  0.00    +0.000 C 
ATOM      5  C   UNL     1       5.799  14.460  22.553  0.00  0.00    +0.000 A 
ATOM      6  C   UNL     1       6.406  15.326  21.668  0.00  0.00    +0.000 A 
ATOM      7  N   UNL     1       7.580  15.756  22.224  0.00  0.00    +0.000 N 
ATOM      8  C   UNL     1       7.768  15.142  23.442  0.00  0.00    +0.000 A 
ATOM      9  C   UNL     1       8.840  15.255  24.344  0.00  0.00    +0.000 A 
ATOM     10  C   UNL     1       8.772  14.499  25.514  0.00  0.00    +0.000 A 
ATOM     11  C   UNL     1       7.681  13.678  25.780  0.00  0.00    +0.000 A 
ATOM     12  C   UNL     1       6.617  13.584  24.871  0.00  0.00    +0.000 A 
ATOM     13  C   UNL     1       6.662  14.326  23.677  0.00  0.00    +0.000 A 
ATOM     14  C   UNL     1       5.877  15.758  20.335  0.00  0.00    +0.000 C 
ATOM     15  N   UNL     1       4.819  14.790  19.948  0.00  0.00    +0.000 N 
ATOM     16  C   UNL     1       4.327  14.782  18.640  0.00  0.00    +0.000 C 
ATOM     17  O   UNL     1       4.747  15.476  17.721  0.00  0.00    +0.000 OA
ATOM     18  C   UNL     1       3.383  13.619  18.364  0.00  0.00    +0.000 C 
ATOM     19  N   UNL     1       2.305  13.512  19.335  0.00  0.00    +0.000 N 
ATOM     20  H   UNL     1       8.236  16.395  21.796  0.00  0.00    +0.000 HD
ENDROOT
BRANCH  14  21
ATOM     21  C   UNL     1       6.988  15.974  19.325  0.00  0.00    +0.000 A 
ATOM     22  C   UNL     1       7.377  17.258  18.866  0.00  0.00    +0.000 A 
ATOM     23  C   UNL     1       8.511  17.413  18.062  0.00  0.00    +0.000 A 
ATOM     24  C   UNL     1       9.241  16.281  17.767  0.00  0.00    +0.000 A 
ATOM     25  C   UNL     1       8.829  15.028  18.155  0.00  0.00    +0.000 A 
ATOM     26  C   UNL     1       7.694  14.836  18.898  0.00  0.00    +0.000 A 
ATOM     27  O   UNL     1       9.712  14.054  17.809  0.00  0.00    +0.000 OA
ATOM     28  C   UNL     1      10.841  14.882  17.474  0.00  0.00    +0.000 C 
ATOM     29  O   UNL     1      10.456  16.236  17.149  0.00  0.00    +0.000 OA
ENDBRANCH  14  21
BRANCH  19  30
ATOM     30  C   UNL     1       1.168  12.737  18.968  0.00  0.00    +0.000 A 
ATOM     31  C   UNL     1      -0.036  13.338  18.590  0.00  0.00    +0.000 A 
ATOM     32  C   UNL     1      -1.125  12.541  18.246  0.00  0.00    +0.000 A 
ATOM     33  C   UNL     1      -0.988  11.164  18.328  0.00  0.00    +0.000 A 
ATOM     34  N   UNL     1       0.155  10.547  18.693  0.00  0.00    +0.000 NA
ATOM     35  C   UNL     1       1.213  11.344  18.980  0.00  0.00    +0.000 A 
ENDBRANCH  19  30
TORSDOF 2
ENDMDL
MODEL 9
REMARK VINA RESULT:      -6.8      5.147      6.605
REMARK  Name = 
REMARK  2 active torsions:
REMARK  status: ('A' for Active; 'I' for Inactive)
REMARK    1  A    between atoms: C_14  and  C_15
REMARK    2  A    between atoms: N_28  and  C_29
REMARK                            x       y       z     vdW  Elec       q    Type
REMARK                         _______ _______ _______ _____ _____    ______ ____
ROOT
ATOM      1  O   UNL     1       5.493  14.277  17.832  0.00  0.00    +0.000 OA
ATOM      2  C   UNL     1       4.770  15.088  18.413  0.00  0.00    +0.000 C 
ATOM      3  C   UNL     1       3.240  14.974  18.305  0.00  0.00    +0.000 C 
ATOM      4  C   UNL     1       2.852  13.499  18.597  0.00  0.00    +0.000 C 
ATOM      5  C   UNL     1       1.370  13.351  18.603  0.00  0.00    +0.000 A 
ATOM      6  C   UNL     1       0.537  14.448  18.649  0.00  0.00    +0.000 A 
ATOM      7  N   UNL     1      -0.757  14.006  18.640  0.00  0.00    +0.000 N 
ATOM      8  C   UNL     1      -0.777  12.629  18.637  0.00  0.00    +0.000 A 
ATOM      9  C   UNL     1      -1.873  11.751  18.659  0.00  0.00    +0.000 A 
ATOM     10  C   UNL     1      -1.596  10.384  18.662  0.00  0.00    +0.000 A 
ATOM     11  C   UNL     1      -0.287   9.913  18.630  0.00  0.00    +0.000 A 
ATOM     12  C   UNL     1       0.794  10.806  18.601  0.00  0.00    +0.000 A 
ATOM     13  C   UNL     1       0.547  12.190  18.609  0.00  0.00    +0.000 A 
ATOM     14  C   UNL     1       0.955  15.887  18.676  0.00  0.00    +0.000 C 
ATOM     15  N   UNL     1       2.387  15.922  19.068  0.00  0.00    +0.000 N 
ATOM     16  C   UNL     1       2.980  17.133  19.430  0.00  0.00    +0.000 C 
ATOM     17  O   UNL     1       2.396  18.206  19.530  0.00  0.00    +0.000 OA
ATOM     18  C   UNL     1       4.394  16.967  19.972  0.00  0.00    +0.000 C 
ATOM     19  N   UNL     1       5.259  16.198  19.093  0.00  0.00    +0.000 N 
ATOM     20  H   UNL     1      -1.581  14.591  18.671  0.00  0.00    +0.000 HD
ENDROOT
BRANCH  14  21
ATOM     21  C   UNL     1       0.013  16.736  19.507  0.00  0.00    +0.000 A 
ATOM     22  C   UNL     1      -0.848  17.713  18.946  0.00  0.00    +0.000 A 
ATOM     23  C   UNL     1      -1.811  18.352  19.735  0.00  0.00    +0.000 A 
ATOM     24  C   UNL     1      -1.904  17.971  21.057  0.00  0.00    +0.000 A 
ATOM     25  C   UNL     1      -1.027  17.074  21.619  0.00  0.00    +0.000 A 
ATOM     26  C   UNL     1      -0.039  16.470  20.886  0.00  0.00    +0.000 A 
ATOM     27  O   UNL     1      -1.320  16.797  22.918  0.00  0.00    +0.000 OA
ATOM     28  C   UNL     1      -2.645  17.357  22.975  0.00  0.00    +0.000 C 
ATOM     29  O   UNL     1      -2.872  18.342  21.942  0.00  0.00    +0.000 OA
ENDBRANCH  14  21
BRANCH  19  30
ATOM     30  C   UNL     1       6.664  16.311  19.292  0.00  0.00    +0.000 A 
ATOM     31  C   UNL     1       7.455  17.126  18.478  0.00  0.00    +0.000 A 
ATOM     32  C   UNL     1       8.828  17.203  18.705  0.00  0.00    +0.000 A 
ATOM     33  C   UNL     1       9.373  16.429  19.718  0.00  0.00    +0.000 A 
ATOM     34  N   UNL     1       8.645  15.627  20.521  0.00  0.00    +0.000 NA
ATOM     35  C   UNL     1       7.306  15.605  20.308  0.00  0.00    +0.000 A 
ENDBRANCH  19  30
TORSDOF 2
ENDMDL
