MODEL 1
REMARK VINA RESULT:      -8.6      0.000      0.000
REMARK  Name = 
REMARK  7 active torsions:
REMARK  status: ('A' for Active; 'I' for Inactive)
REMARK    1  A    between atoms: N_1  and  S_2
REMARK    2  A    between atoms: S_2  and  O_5
REMARK    3  A    between atoms: O_5  and  C_6
REMARK    4  A    between atoms: C_9  and  C_10
REMARK    5  A    between atoms: C_13  and  C_14
REMARK    6  A    between atoms: C_14  and  C_16
REMARK    7  A    between atoms: C_21  and  O_22
REMARK                            x       y       z     vdW  Elec       q    Type
REMARK                         _______ _______ _______ _____ _____    ______ ____
ROOT
ATOM      1  C   UNL     1       1.495   8.733  19.406  0.00  0.00    +0.000 A 
ATOM      2  C   UNL     1       1.676   9.080  18.079  0.00  0.00    +0.000 A 
ATOM      3  C   UNL     1       2.474   8.139  17.363  0.00  0.00    +0.000 A 
ATOM      4  C   UNL     1       2.932   7.114  18.169  0.00  0.00    +0.000 A 
ATOM      5  S   UNL     1       2.302   7.256  19.752  0.00  0.00    +0.000 S 
ENDROOT
BRANCH   1   9
ATOM      6  C   UNL     1      -0.587  10.831  22.538  0.00  0.00    +0.000 A 
ATOM      7  C   UNL     1      -0.668   9.442  22.444  0.00  0.00    +0.000 A 
ATOM      8  C   UNL     1       0.003   8.765  21.420  0.00  0.00    +0.000 A 
ATOM      9  C   UNL     1       0.769   9.454  20.465  0.00  0.00    +0.000 A 
ATOM     10  C   UNL     1       0.811  10.852  20.555  0.00  0.00    +0.000 A 
ATOM     11  F   UNL     1       1.504  11.575  19.660  0.00  0.00    +0.000 F 
ATOM     12  C   UNL     1       0.136  11.529  21.576  0.00  0.00    +0.000 A 
ATOM     13  F   UNL     1       0.196  12.869  21.626  0.00  0.00    +0.000 F 
BRANCH   6  14
ATOM     14  O   UNL     1      -1.218  11.576  23.500  0.00  0.00    +0.000 OA
BRANCH  14  15
ATOM     15  S   UNL     1      -2.653  12.283  23.211  0.00  0.00    +0.000 S 
ATOM     16  O   UNL     1      -3.646  11.781  24.133  0.00  0.00    +0.000 OA
ATOM     17  O   UNL     1      -2.890  12.313  21.786  0.00  0.00    +0.000 OA
BRANCH  15  18
ATOM     18  N   UNL     1      -2.406  13.892  23.613  0.00  0.00    +0.000 NA
ATOM     19  H   UNL     1      -1.400  14.065  23.642  0.00  0.00    +0.000 HD
ATOM     20  H   UNL     1      -2.843  14.081  24.514  0.00  0.00    +0.000 HD
ENDBRANCH  15  18
ENDBRANCH  14  15
ENDBRANCH   6  14
ENDBRANCH   1   9
BRANCH   4  21
ATOM     21  C   UNL     1       3.833   6.006  17.872  0.00  0.00    +0.000 C 
ATOM     22  O   UNL     1       4.884   6.138  17.245  0.00  0.00    +0.000 OA
BRANCH  21  23
ATOM     23  C   UNL     1       3.482   4.637  18.316  0.00  0.00    +0.000 A 
ATOM     24  C   UNL     1       2.221   4.111  18.029  0.00  0.00    +0.000 A 
ATOM     25  F   UNL     1       1.329   4.800  17.304  0.00  0.00    +0.000 F 
ATOM     26  C   UNL     1       1.856   2.837  18.468  0.00  0.00    +0.000 A 
ATOM     27  C   UNL     1       2.760   2.059  19.192  0.00  0.00    +0.000 A 
ATOM     28  C   UNL     1       4.015   2.581  19.486  0.00  0.00    +0.000 A 
ATOM     29  C   UNL     1       4.365   3.868  19.074  0.00  0.00    +0.000 A 
ATOM     30  F   UNL     1       5.560   4.354  19.439  0.00  0.00    +0.000 F 
BRANCH  28  31
ATOM     31  O   UNL     1       4.932   1.848  20.184  0.00  0.00    +0.000 OA
ATOM     32  H   UNL     1       5.509   2.438  20.696  0.00  0.00    +0.000 HD
ENDBRANCH  28  31
ENDBRANCH  21  23
ENDBRANCH   4  21
TORSDOF 7
ENDMDL
MODEL 2
REMARK VINA RESULT:      -8.6      1.977      2.150
REMARK  Name = 
REMARK  7 active torsions:
REMARK  status: ('A' for Active; 'I' for Inactive)
REMARK    1  A    between atoms: N_1  and  S_2
REMARK    2  A    between atoms: S_2  and  O_5
REMARK    3  A    between atoms: O_5  and  C_6
REMARK    4  A    between atoms: C_9  and  C_10
REMARK    5  A    between atoms: C_13  and  C_14
REMARK    6  A    between atoms: C_14  and  C_16
REMARK    7  A    between atoms: C_21  and  O_22
REMARK                            x       y       z     vdW  Elec       q    Type
REMARK                         _______ _______ _______ _____ _____    ______ ____
ROOT
ATOM      1  C   UNL     1       1.136   9.139  19.420  0.00  0.00    +0.000 A 
ATOM      2  C   UNL     1       1.804   9.154  18.209  0.00  0.00    +0.000 A 
ATOM      3  C   UNL     1       2.603   7.990  18.000  0.00  0.00    +0.000 A 
ATOM      4  C   UNL     1       2.572   7.128  19.080  0.00  0.00    +0.000 A 
ATOM      5  S   UNL     1       1.495   7.695  20.281  0.00  0.00    +0.000 S 
ENDROOT
BRANCH   1   9
ATOM      6  C   UNL     1      -1.422  12.159  21.117  0.00  0.00    +0.000 A 
ATOM      7  C   UNL     1      -0.299  11.713  21.813  0.00  0.00    +0.000 A 
ATOM      8  C   UNL     1       0.526  10.726  21.262  0.00  0.00    +0.000 A 
ATOM      9  C   UNL     1       0.250  10.158  20.007  0.00  0.00    +0.000 A 
ATOM     10  C   UNL     1      -0.902  10.593  19.338  0.00  0.00    +0.000 A 
ATOM     11  F   UNL     1      -1.239  10.074  18.145  0.00  0.00    +0.000 F 
ATOM     12  C   UNL     1      -1.728  11.577  19.891  0.00  0.00    +0.000 A 
ATOM     13  F   UNL     1      -2.826  11.964  19.222  0.00  0.00    +0.000 F 
BRANCH   6  14
ATOM     14  O   UNL     1      -2.289  13.112  21.584  0.00  0.00    +0.000 OA
BRANCH  14  15
ATOM     15  S   UNL     1      -3.546  12.715  22.536  0.00  0.00    +0.000 S 
ATOM     16  O   UNL     1      -3.108  11.826  23.587  0.00  0.00    +0.000 OA
ATOM     17  O   UNL     1      -4.689  12.403  21.708  0.00  0.00    +0.000 OA
BRANCH  15  18
ATOM     18  N   UNL     1      -3.968  14.156  23.280  0.00  0.00    +0.000 NA
ATOM     19  H   UNL     1      -3.763  14.922  22.638  0.00  0.00    +0.000 HD
ATOM     20  H   UNL     1      -3.444  14.248  24.149  0.00  0.00    +0.000 HD
ENDBRANCH  15  18
ENDBRANCH  14  15
ENDBRANCH   6  14
ENDBRANCH   1   9
BRANCH   4  21
ATOM     21  C   UNL     1       3.299   5.887  19.322  0.00  0.00    +0.000 C 
ATOM     22  O   UNL     1       4.526   5.821  19.381  0.00  0.00    +0.000 OA
BRANCH  21  23
ATOM     23  C   UNL     1       2.548   4.620  19.488  0.00  0.00    +0.000 A 
ATOM     24  C   UNL     1       2.081   3.932  18.367  0.00  0.00    +0.000 A 
ATOM     25  F   UNL     1       2.346   4.364  17.126  0.00  0.00    +0.000 F 
ATOM     26  C   UNL     1       1.342   2.755  18.501  0.00  0.00    +0.000 A 
ATOM     27  C   UNL     1       1.071   2.238  19.768  0.00  0.00    +0.000 A 
ATOM     28  C   UNL     1       1.529   2.923  20.888  0.00  0.00    +0.000 A 
ATOM     29  C   UNL     1       2.240   4.117  20.751  0.00  0.00    +0.000 A 
ATOM     30  F   UNL     1       2.601   4.777  21.862  0.00  0.00    +0.000 F 
BRANCH  28  31
ATOM     31  O   UNL     1       1.294   2.445  22.146  0.00  0.00    +0.000 OA
ATOM     32  H   UNL     1       0.375   2.625  22.404  0.00  0.00    +0.000 HD
ENDBRANCH  28  31
ENDBRANCH  21  23
ENDBRANCH   4  21
TORSDOF 7
ENDMDL
MODEL 3
REMARK VINA RESULT:      -8.6      2.506      3.001
REMARK  Name = 
REMARK  7 active torsions:
REMARK  status: ('A' for Active; 'I' for Inactive)
REMARK    1  A    between atoms: N_1  and  S_2
REMARK    2  A    between atoms: S_2  and  O_5
REMARK    3  A    between atoms: O_5  and  C_6
REMARK    4  A    between atoms: C_9  and  C_10
REMARK    5  A    between atoms: C_13  and  C_14
REMARK    6  A    between atoms: C_14  and  C_16
REMARK    7  A    between atoms: C_21  and  O_22
REMARK                            x       y       z     vdW  Elec       q    Type
REMARK                         _______ _______ _______ _____ _____    ______ ____
ROOT
ATOM      1  C   UNL     1       1.367   9.018  19.634  0.00  0.00    +0.000 A 
ATOM      2  C   UNL     1       1.386   8.014  20.586  0.00  0.00    +0.000 A 
ATOM      3  C   UNL     1       2.126   6.867  20.169  0.00  0.00    +0.000 A 
ATOM      4  C   UNL     1       2.617   6.995  18.884  0.00  0.00    +0.000 A 
ATOM      5  S   UNL     1       2.261   8.540  18.246  0.00  0.00    +0.000 S 
ENDROOT
BRANCH   1   9
ATOM      6  C   UNL     1      -0.559  12.868  19.731  0.00  0.00    +0.000 A 
ATOM      7  C   UNL     1       0.307  12.487  20.755  0.00  0.00    +0.000 A 
ATOM      8  C   UNL     1       0.925  11.231  20.724  0.00  0.00    +0.000 A 
ATOM      9  C   UNL     1       0.693  10.326  19.675  0.00  0.00    +0.000 A 
ATOM     10  C   UNL     1      -0.206  10.714  18.672  0.00  0.00    +0.000 A 
ATOM     11  F   UNL     1      -0.491   9.888  17.652  0.00  0.00    +0.000 F 
ATOM     12  C   UNL     1      -0.826  11.967  18.705  0.00  0.00    +0.000 A 
ATOM     13  F   UNL     1      -1.686  12.300  17.729  0.00  0.00    +0.000 F 
BRANCH   6  14
ATOM     14  O   UNL     1      -1.214  14.071  19.685  0.00  0.00    +0.000 OA
BRANCH  14  15
ATOM     15  S   UNL     1      -0.397  15.477  19.673  0.00  0.00    +0.000 S 
ATOM     16  O   UNL     1       0.698  15.403  18.733  0.00  0.00    +0.000 OA
ATOM     17  O   UNL     1      -0.198  15.922  21.033  0.00  0.00    +0.000 OA
BRANCH  15  18
ATOM     18  N   UNL     1      -1.488  16.581  19.042  0.00  0.00    +0.000 NA
ATOM     19  H   UNL     1      -2.331  16.565  19.618  0.00  0.00    +0.000 HD
ATOM     20  H   UNL     1      -1.693  16.332  18.075  0.00  0.00    +0.000 HD
ENDBRANCH  15  18
ENDBRANCH  14  15
ENDBRANCH   6  14
ENDBRANCH   1   9
BRANCH   4  21
ATOM     21  C   UNL     1       3.340   6.043  18.047  0.00  0.00    +0.000 C 
ATOM     22  O   UNL     1       4.066   6.378  17.112  0.00  0.00    +0.000 OA
BRANCH  21  23
ATOM     23  C   UNL     1       3.195   4.590  18.301  0.00  0.00    +0.000 A 
ATOM     24  C   UNL     1       2.032   3.925  17.910  0.00  0.00    +0.000 A 
ATOM     25  F   UNL     1       1.053   4.562  17.253  0.00  0.00    +0.000 F 
ATOM     26  C   UNL     1       1.860   2.563  18.169  0.00  0.00    +0.000 A 
ATOM     27  C   UNL     1       2.864   1.840  18.815  0.00  0.00    +0.000 A 
ATOM     28  C   UNL     1       4.022   2.500  19.211  0.00  0.00    +0.000 A 
ATOM     29  C   UNL     1       4.177   3.868  18.979  0.00  0.00    +0.000 A 
ATOM     30  F   UNL     1       5.281   4.474  19.440  0.00  0.00    +0.000 F 
BRANCH  28  31
ATOM     31  O   UNL     1       5.033   1.826  19.835  0.00  0.00    +0.000 OA
ATOM     32  H   UNL     1       5.087   0.918  19.494  0.00  0.00    +0.000 HD
ENDBRANCH  28  31
ENDBRANCH  21  23
ENDBRANCH   4  21
TORSDOF 7
ENDMDL
MODEL 4
REMARK VINA RESULT:      -8.6      2.781      4.107
REMARK  Name = 
REMARK  7 active torsions:
REMARK  status: ('A' for Active; 'I' for Inactive)
REMARK    1  A    between atoms: N_1  and  S_2
REMARK    2  A    between atoms: S_2  and  O_5
REMARK    3  A    between atoms: O_5  and  C_6
REMARK    4  A    between atoms: C_9  and  C_10
REMARK    5  A    between atoms: C_13  and  C_14
REMARK    6  A    between atoms: C_14  and  C_16
REMARK    7  A    between atoms: C_21  and  O_22
REMARK                            x       y       z     vdW  Elec       q    Type
REMARK                         _______ _______ _______ _____ _____    ______ ____
ROOT
ATOM      1  C   UNL     1       2.288   6.785  19.891  0.00  0.00    +0.000 A 
ATOM      2  C   UNL     1       1.757   5.681  20.535  0.00  0.00    +0.000 A 
ATOM      3  C   UNL     1       2.556   4.509  20.378  0.00  0.00    +0.000 A 
ATOM      4  C   UNL     1       3.658   4.726  19.573  0.00  0.00    +0.000 A 
ATOM      5  S   UNL     1       3.759   6.368  19.107  0.00  0.00    +0.000 S 
ENDROOT
BRANCH   1   9
ATOM      6  C   UNL     1       0.670  10.764  19.589  0.00  0.00    +0.000 A 
ATOM      7  C   UNL     1       1.193  10.128  18.464  0.00  0.00    +0.000 A 
ATOM      8  C   UNL     1       1.726   8.838  18.568  0.00  0.00    +0.000 A 
ATOM      9  C   UNL     1       1.751   8.152  19.794  0.00  0.00    +0.000 A 
ATOM     10  C   UNL     1       1.252   8.821  20.920  0.00  0.00    +0.000 A 
ATOM     11  F   UNL     1       1.268   8.233  22.128  0.00  0.00    +0.000 F 
ATOM     12  C   UNL     1       0.723  10.112  20.816  0.00  0.00    +0.000 A 
ATOM     13  F   UNL     1       0.260  10.721  21.920  0.00  0.00    +0.000 F 
BRANCH   6  14
ATOM     14  O   UNL     1       0.139  12.028  19.582  0.00  0.00    +0.000 OA
BRANCH  14  15
ATOM     15  S   UNL     1      -1.377  12.303  19.062  0.00  0.00    +0.000 S 
ATOM     16  O   UNL     1      -1.951  13.417  19.779  0.00  0.00    +0.000 OA
ATOM     17  O   UNL     1      -2.073  11.042  18.939  0.00  0.00    +0.000 OA
BRANCH  15  18
ATOM     18  N   UNL     1      -1.181  12.811  17.477  0.00  0.00    +0.000 NA
ATOM     19  H   UNL     1      -0.280  13.285  17.400  0.00  0.00    +0.000 HD
ATOM     20  H   UNL     1      -1.951  13.431  17.228  0.00  0.00    +0.000 HD
ENDBRANCH  15  18
ENDBRANCH  14  15
ENDBRANCH   6  14
ENDBRANCH   1   9
BRANCH   4  21
ATOM     21  C   UNL     1       4.672   3.797  19.086  0.00  0.00    +0.000 C 
ATOM     22  O   UNL     1       4.932   2.728  19.638  0.00  0.00    +0.000 OA
BRANCH  21  23
ATOM     23  C   UNL     1       5.462   4.142  17.881  0.00  0.00    +0.000 A 
ATOM     24  C   UNL     1       6.725   4.720  18.015  0.00  0.00    +0.000 A 
ATOM     25  F   UNL     1       7.274   4.923  19.221  0.00  0.00    +0.000 F 
ATOM     26  C   UNL     1       7.472   5.085  16.893  0.00  0.00    +0.000 A 
ATOM     27  C   UNL     1       6.968   4.860  15.611  0.00  0.00    +0.000 A 
ATOM     28  C   UNL     1       5.708   4.290  15.473  0.00  0.00    +0.000 A 
ATOM     29  C   UNL     1       4.950   3.956  16.597  0.00  0.00    +0.000 A 
ATOM     30  F   UNL     1       3.712   3.472  16.414  0.00  0.00    +0.000 F 
BRANCH  28  31
ATOM     31  O   UNL     1       5.183   4.043  14.236  0.00  0.00    +0.000 OA
ATOM     32  H   UNL     1       5.865   3.673  13.653  0.00  0.00    +0.000 HD
ENDBRANCH  28  31
ENDBRANCH  21  23
ENDBRANCH   4  21
TORSDOF 7
ENDMDL
MODEL 5
REMARK VINA RESULT:      -8.5      1.853      2.002
REMARK  Name = 
REMARK  7 active torsions:
REMARK  status: ('A' for Active; 'I' for Inactive)
REMARK    1  A    between atoms: N_1  and  S_2
REMARK    2  A    between atoms: S_2  and  O_5
REMARK    3  A    between atoms: O_5  and  C_6
REMARK    4  A    between atoms: C_9  and  C_10
REMARK    5  A    between atoms: C_13  and  C_14
REMARK    6  A    between atoms: C_14  and  C_16
REMARK    7  A    between atoms: C_21  and  O_22
REMARK                            x       y       z     vdW  Elec       q    Type
REMARK                         _______ _______ _______ _____ _____    ______ ____
ROOT
ATOM      1  C   UNL     1       0.862   9.247  20.232  0.00  0.00    +0.000 A 
ATOM      2  C   UNL     1       1.331   9.397  18.939  0.00  0.00    +0.000 A 
ATOM      3  C   UNL     1       2.094   8.278  18.491  0.00  0.00    +0.000 A 
ATOM      4  C   UNL     1       2.236   7.311  19.469  0.00  0.00    +0.000 A 
ATOM      5  S   UNL     1       1.359   7.732  20.874  0.00  0.00    +0.000 S 
ENDROOT
BRANCH   1   9
ATOM      6  C   UNL     1      -1.396  12.001  22.653  0.00  0.00    +0.000 A 
ATOM      7  C   UNL     1      -1.110  10.719  23.122  0.00  0.00    +0.000 A 
ATOM      8  C   UNL     1      -0.383   9.825  22.329  0.00  0.00    +0.000 A 
ATOM      9  C   UNL     1       0.074  10.183  21.050  0.00  0.00    +0.000 A 
ATOM     10  C   UNL     1      -0.252  11.463  20.582  0.00  0.00    +0.000 A 
ATOM     11  F   UNL     1       0.132  11.863  19.358  0.00  0.00    +0.000 F 
ATOM     12  C   UNL     1      -0.983  12.356  21.373  0.00  0.00    +0.000 A 
ATOM     13  F   UNL     1      -1.281  13.571  20.886  0.00  0.00    +0.000 F 
BRANCH   6  14
ATOM     14  O   UNL     1      -2.109  12.937  23.355  0.00  0.00    +0.000 OA
BRANCH  14  15
ATOM     15  S   UNL     1      -3.733  12.987  23.285  0.00  0.00    +0.000 S 
ATOM     16  O   UNL     1      -4.195  12.339  22.080  0.00  0.00    +0.000 OA
ATOM     17  O   UNL     1      -4.183  14.310  23.654  0.00  0.00    +0.000 OA
BRANCH  15  18
ATOM     18  N   UNL     1      -4.229  12.022  24.562  0.00  0.00    +0.000 NA
ATOM     19  H   UNL     1      -3.538  12.098  25.310  0.00  0.00    +0.000 HD
ATOM     20  H   UNL     1      -4.321  11.060  24.237  0.00  0.00    +0.000 HD
ENDBRANCH  15  18
ENDBRANCH  14  15
ENDBRANCH   6  14
ENDBRANCH   1   9
BRANCH   4  21
ATOM     21  C   UNL     1       2.998   6.067  19.466  0.00  0.00    +0.000 C 
ATOM     22  O   UNL     1       4.220   6.022  19.333  0.00  0.00    +0.000 OA
BRANCH  21  23
ATOM     23  C   UNL     1       2.288   4.774  19.608  0.00  0.00    +0.000 A 
ATOM     24  C   UNL     1       1.689   4.180  18.496  0.00  0.00    +0.000 A 
ATOM     25  F   UNL     1       1.788   4.727  17.277  0.00  0.00    +0.000 F 
ATOM     26  C   UNL     1       0.985   2.980  18.614  0.00  0.00    +0.000 A 
ATOM     27  C   UNL     1       0.883   2.345  19.852  0.00  0.00    +0.000 A 
ATOM     28  C   UNL     1       1.473   2.936  20.963  0.00  0.00    +0.000 A 
ATOM     29  C   UNL     1       2.149   4.152  20.848  0.00  0.00    +0.000 A 
ATOM     30  F   UNL     1       2.642   4.718  21.960  0.00  0.00    +0.000 F 
BRANCH  28  31
ATOM     31  O   UNL     1       1.406   2.341  22.191  0.00  0.00    +0.000 OA
ATOM     32  H   UNL     1       1.680   2.968  22.880  0.00  0.00    +0.000 HD
ENDBRANCH  28  31
ENDBRANCH  21  23
ENDBRANCH   4  21
TORSDOF 7
ENDMDL
MODEL 6
REMARK VINA RESULT:      -8.5      1.898      2.283
REMARK  Name = 
REMARK  7 active torsions:
REMARK  status: ('A' for Active; 'I' for Inactive)
REMARK    1  A    between atoms: N_1  and  S_2
REMARK    2  A    between atoms: S_2  and  O_5
REMARK    3  A    between atoms: O_5  and  C_6
REMARK    4  A    between atoms: C_9  and  C_10
REMARK    5  A    between atoms: C_13  and  C_14
REMARK    6  A    between atoms: C_14  and  C_16
REMARK    7  A    between atoms: C_21  and  O_22
REMARK                            x       y       z     vdW  Elec       q    Type
REMARK                         _______ _______ _______ _____ _____    ______ ____
ROOT
ATOM      1  C   UNL     1       1.165   8.985  19.865  0.00  0.00    +0.000 A 
ATOM      2  C   UNL     1       1.262   7.959  20.787  0.00  0.00    +0.000 A 
ATOM      3  C   UNL     1       2.060   6.870  20.325  0.00  0.00    +0.000 A 
ATOM      4  C   UNL     1       2.518   7.062  19.036  0.00  0.00    +0.000 A 
ATOM      5  S   UNL     1       2.058   8.600  18.448  0.00  0.00    +0.000 S 
ENDROOT
BRANCH   1   9
ATOM      6  C   UNL     1      -0.984  12.710  20.103  0.00  0.00    +0.000 A 
ATOM      7  C   UNL     1      -0.059  12.365  21.088  0.00  0.00    +0.000 A 
ATOM      8  C   UNL     1       0.632  11.150  21.011  0.00  0.00    +0.000 A 
ATOM      9  C   UNL     1       0.416  10.250  19.954  0.00  0.00    +0.000 A 
ATOM     10  C   UNL     1      -0.542  10.598  18.993  0.00  0.00    +0.000 A 
ATOM     11  F   UNL     1      -0.816   9.773  17.969  0.00  0.00    +0.000 F 
ATOM     12  C   UNL     1      -1.235  11.810  19.072  0.00  0.00    +0.000 A 
ATOM     13  F   UNL     1      -2.150  12.106  18.134  0.00  0.00    +0.000 F 
BRANCH   6  14
ATOM     14  O   UNL     1      -1.712  13.871  20.103  0.00  0.00    +0.000 OA
BRANCH  14  15
ATOM     15  S   UNL     1      -2.907  14.117  21.177  0.00  0.00    +0.000 S 
ATOM     16  O   UNL     1      -2.401  14.833  22.325  0.00  0.00    +0.000 OA
ATOM     17  O   UNL     1      -3.673  12.900  21.322  0.00  0.00    +0.000 OA
BRANCH  15  18
ATOM     18  N   UNL     1      -3.956  15.163  20.392  0.00  0.00    +0.000 NA
ATOM     19  H   UNL     1      -4.070  14.841  19.430  0.00  0.00    +0.000 HD
ATOM     20  H   UNL     1      -3.572  16.106  20.425  0.00  0.00    +0.000 HD
ENDBRANCH  15  18
ENDBRANCH  14  15
ENDBRANCH   6  14
ENDBRANCH   1   9
BRANCH   4  21
ATOM     21  C   UNL     1       3.280   6.177  18.160  0.00  0.00    +0.000 C 
ATOM     22  O   UNL     1       3.995   6.583  17.245  0.00  0.00    +0.000 OA
BRANCH  21  23
ATOM     23  C   UNL     1       3.190   4.710  18.345  0.00  0.00    +0.000 A 
ATOM     24  C   UNL     1       2.069   4.015  17.888  0.00  0.00    +0.000 A 
ATOM     25  F   UNL     1       1.084   4.640  17.228  0.00  0.00    +0.000 F 
ATOM     26  C   UNL     1       1.948   2.638  18.083  0.00  0.00    +0.000 A 
ATOM     27  C   UNL     1       2.961   1.929  18.729  0.00  0.00    +0.000 A 
ATOM     28  C   UNL     1       4.077   2.617  19.191  0.00  0.00    +0.000 A 
ATOM     29  C   UNL     1       4.180   4.000  19.023  0.00  0.00    +0.000 A 
ATOM     30  F   UNL     1       5.242   4.630  19.547  0.00  0.00    +0.000 F 
BRANCH  28  31
ATOM     31  O   UNL     1       5.096   1.959  19.819  0.00  0.00    +0.000 OA
ATOM     32  H   UNL     1       5.884   1.951  19.253  0.00  0.00    +0.000 HD
ENDBRANCH  28  31
ENDBRANCH  21  23
ENDBRANCH   4  21
TORSDOF 7
ENDMDL
MODEL 7
REMARK VINA RESULT:      -8.5      0.971      1.815
REMARK  Name = 
REMARK  7 active torsions:
REMARK  status: ('A' for Active; 'I' for Inactive)
REMARK    1  A    between atoms: N_1  and  S_2
REMARK    2  A    between atoms: S_2  and  O_5
REMARK    3  A    between atoms: O_5  and  C_6
REMARK    4  A    between atoms: C_9  and  C_10
REMARK    5  A    between atoms: C_13  and  C_14
REMARK    6  A    between atoms: C_14  and  C_16
REMARK    7  A    between atoms: C_21  and  O_22
REMARK                            x       y       z     vdW  Elec       q    Type
REMARK                         _______ _______ _______ _____ _____    ______ ____
ROOT
ATOM      1  C   UNL     1       1.481   8.821  19.455  0.00  0.00    +0.000 A 
ATOM      2  C   UNL     1       1.845   9.223  18.183  0.00  0.00    +0.000 A 
ATOM      3  C   UNL     1       2.573   8.223  17.472  0.00  0.00    +0.000 A 
ATOM      4  C   UNL     1       2.796   7.091  18.233  0.00  0.00    +0.000 A 
ATOM      5  S   UNL     1       2.032   7.221  19.757  0.00  0.00    +0.000 S 
ENDROOT
BRANCH   1   9
ATOM      6  C   UNL     1      -0.593  11.004  22.534  0.00  0.00    +0.000 A 
ATOM      7  C   UNL     1      -0.667   9.612  22.485  0.00  0.00    +0.000 A 
ATOM      8  C   UNL     1       0.002   8.907  21.478  0.00  0.00    +0.000 A 
ATOM      9  C   UNL     1       0.757   9.570  20.496  0.00  0.00    +0.000 A 
ATOM     10  C   UNL     1       0.791  10.970  20.543  0.00  0.00    +0.000 A 
ATOM     11  F   UNL     1       1.475  11.669  19.621  0.00  0.00    +0.000 F 
ATOM     12  C   UNL     1       0.120  11.675  21.546  0.00  0.00    +0.000 A 
ATOM     13  F   UNL     1       0.172  13.017  21.553  0.00  0.00    +0.000 F 
BRANCH   6  14
ATOM     14  O   UNL     1      -1.223  11.775  23.476  0.00  0.00    +0.000 OA
BRANCH  14  15
ATOM     15  S   UNL     1      -2.707  12.384  23.212  0.00  0.00    +0.000 S 
ATOM     16  O   UNL     1      -3.654  11.791  24.127  0.00  0.00    +0.000 OA
ATOM     17  O   UNL     1      -2.956  12.429  21.789  0.00  0.00    +0.000 OA
BRANCH  15  18
ATOM     18  N   UNL     1      -2.573  13.997  23.649  0.00  0.00    +0.000 NA
ATOM     19  H   UNL     1      -2.430  14.548  22.803  0.00  0.00    +0.000 HD
ATOM     20  H   UNL     1      -1.794  14.102  24.298  0.00  0.00    +0.000 HD
ENDBRANCH  15  18
ENDBRANCH  14  15
ENDBRANCH   6  14
ENDBRANCH   1   9
BRANCH   4  21
ATOM     21  C   UNL     1       3.560   5.884  17.935  0.00  0.00    +0.000 C 
ATOM     22  O   UNL     1       4.551   5.873  17.205  0.00  0.00    +0.000 OA
BRANCH  21  23
ATOM     23  C   UNL     1       3.131   4.587  18.508  0.00  0.00    +0.000 A 
ATOM     24  C   UNL     1       3.990   3.876  19.347  0.00  0.00    +0.000 A 
ATOM     25  F   UNL     1       5.186   4.369  19.698  0.00  0.00    +0.000 F 
ATOM     26  C   UNL     1       3.620   2.635  19.871  0.00  0.00    +0.000 A 
ATOM     27  C   UNL     1       2.370   2.092  19.571  0.00  0.00    +0.000 A 
ATOM     28  C   UNL     1       1.514   2.794  18.730  0.00  0.00    +0.000 A 
ATOM     29  C   UNL     1       1.900   4.019  18.183  0.00  0.00    +0.000 A 
ATOM     30  F   UNL     1       1.068   4.626  17.323  0.00  0.00    +0.000 F 
BRANCH  28  31
ATOM     31  O   UNL     1       0.278   2.302  18.421  0.00  0.00    +0.000 OA
ATOM     32  H   UNL     1       0.184   1.399  18.764  0.00  0.00    +0.000 HD
ENDBRANCH  28  31
ENDBRANCH  21  23
ENDBRANCH   4  21
TORSDOF 7
ENDMDL
MODEL 8
REMARK VINA RESULT:      -8.4      1.520      2.332
REMARK  Name = 
REMARK  7 active torsions:
REMARK  status: ('A' for Active; 'I' for Inactive)
REMARK    1  A    between atoms: N_1  and  S_2
REMARK    2  A    between atoms: S_2  and  O_5
REMARK    3  A    between atoms: O_5  and  C_6
REMARK    4  A    between atoms: C_9  and  C_10
REMARK    5  A    between atoms: C_13  and  C_14
REMARK    6  A    between atoms: C_14  and  C_16
REMARK    7  A    between atoms: C_21  and  O_22
REMARK                            x       y       z     vdW  Elec       q    Type
REMARK                         _______ _______ _______ _____ _____    ______ ____
ROOT
ATOM      1  C   UNL     1       1.426   8.949  19.333  0.00  0.00    +0.000 A 
ATOM      2  C   UNL     1       1.612   9.193  17.984  0.00  0.00    +0.000 A 
ATOM      3  C   UNL     1       2.308   8.139  17.320  0.00  0.00    +0.000 A 
ATOM      4  C   UNL     1       2.686   7.130  18.185  0.00  0.00    +0.000 A 
ATOM      5  S   UNL     1       2.103   7.430  19.764  0.00  0.00    +0.000 S 
ENDROOT
BRANCH   1   9
ATOM      6  C   UNL     1      -0.480  11.442  22.283  0.00  0.00    +0.000 A 
ATOM      7  C   UNL     1       0.266  12.013  21.252  0.00  0.00    +0.000 A 
ATOM      8  C   UNL     1       0.890  11.199  20.300  0.00  0.00    +0.000 A 
ATOM      9  C   UNL     1       0.789   9.799  20.353  0.00  0.00    +0.000 A 
ATOM     10  C   UNL     1       0.064   9.242  21.415  0.00  0.00    +0.000 A 
ATOM     11  F   UNL     1      -0.052   7.910  21.540  0.00  0.00    +0.000 F 
ATOM     12  C   UNL     1      -0.557  10.055  22.369  0.00  0.00    +0.000 A 
ATOM     13  F   UNL     1      -1.237   9.484  23.376  0.00  0.00    +0.000 F 
BRANCH   6  14
ATOM     14  O   UNL     1      -1.116  12.159  23.262  0.00  0.00    +0.000 OA
BRANCH  14  15
ATOM     15  S   UNL     1      -2.674  12.597  23.110  0.00  0.00    +0.000 S 
ATOM     16  O   UNL     1      -3.497  11.815  24.003  0.00  0.00    +0.000 OA
ATOM     17  O   UNL     1      -2.995  12.731  21.707  0.00  0.00    +0.000 OA
BRANCH  15  18
ATOM     18  N   UNL     1      -2.716  14.172  23.684  0.00  0.00    +0.000 NA
ATOM     19  H   UNL     1      -3.587  14.603  23.374  0.00  0.00    +0.000 HD
ATOM     20  H   UNL     1      -1.904  14.677  23.331  0.00  0.00    +0.000 HD
ENDBRANCH  15  18
ENDBRANCH  14  15
ENDBRANCH   6  14
ENDBRANCH   1   9
BRANCH   4  21
ATOM     21  C   UNL     1       3.479   5.928  17.948  0.00  0.00    +0.000 C 
ATOM     22  O   UNL     1       4.492   5.912  17.250  0.00  0.00    +0.000 OA
BRANCH  21  23
ATOM     23  C   UNL     1       3.054   4.642  18.549  0.00  0.00    +0.000 A 
ATOM     24  C   UNL     1       3.892   3.979  19.447  0.00  0.00    +0.000 A 
ATOM     25  F   UNL     1       5.062   4.510  19.828  0.00  0.00    +0.000 F 
ATOM     26  C   UNL     1       3.527   2.749  19.998  0.00  0.00    +0.000 A 
ATOM     27  C   UNL     1       2.302   2.168  19.668  0.00  0.00    +0.000 A 
ATOM     28  C   UNL     1       1.466   2.822  18.768  0.00  0.00    +0.000 A 
ATOM     29  C   UNL     1       1.849   4.036  18.194  0.00  0.00    +0.000 A 
ATOM     30  F   UNL     1       1.041   4.594  17.281  0.00  0.00    +0.000 F 
BRANCH  28  31
ATOM     31  O   UNL     1       0.254   2.292  18.427  0.00  0.00    +0.000 OA
ATOM     32  H   UNL     1       0.132   1.434  18.865  0.00  0.00    +0.000 HD
ENDBRANCH  28  31
ENDBRANCH  21  23
ENDBRANCH   4  21
TORSDOF 7
ENDMDL
MODEL 9
REMARK VINA RESULT:      -8.4      2.192      3.143
REMARK  Name = 
REMARK  7 active torsions:
REMARK  status: ('A' for Active; 'I' for Inactive)
REMARK    1  A    between atoms: N_1  and  S_2
REMARK    2  A    between atoms: S_2  and  O_5
REMARK    3  A    between atoms: O_5  and  C_6
REMARK    4  A    between atoms: C_9  and  C_10
REMARK    5  A    between atoms: C_13  and  C_14
REMARK    6  A    between atoms: C_14  and  C_16
REMARK    7  A    between atoms: C_21  and  O_22
REMARK                            x       y       z     vdW  Elec       q    Type
REMARK                         _______ _______ _______ _____ _____    ______ ____
ROOT
ATOM      1  C   UNL     1       1.806   8.101  19.479  0.00  0.00    +0.000 A 
ATOM      2  C   UNL     1       2.420   8.267  18.250  0.00  0.00    +0.000 A 
ATOM      3  C   UNL     1       3.191   7.133  17.856  0.00  0.00    +0.000 A 
ATOM      4  C   UNL     1       3.195   6.139  18.816  0.00  0.00    +0.000 A 
ATOM      5  S   UNL     1       2.182   6.555  20.129  0.00  0.00    +0.000 S 
ENDROOT
BRANCH   1   9
ATOM      6  C   UNL     1      -0.618  10.892  21.688  0.00  0.00    +0.000 A 
ATOM      7  C   UNL     1       0.210   9.992  22.358  0.00  0.00    +0.000 A 
ATOM      8  C   UNL     1       0.990   9.081  21.637  0.00  0.00    +0.000 A 
ATOM      9  C   UNL     1       0.963   9.044  20.233  0.00  0.00    +0.000 A 
ATOM     10  C   UNL     1       0.100   9.932  19.578  0.00  0.00    +0.000 A 
ATOM     11  F   UNL     1       0.006   9.933  18.238  0.00  0.00    +0.000 F 
ATOM     12  C   UNL     1      -0.683  10.840  20.299  0.00  0.00    +0.000 A 
ATOM     13  F   UNL     1      -1.503  11.672  19.635  0.00  0.00    +0.000 F 
BRANCH   6  14
ATOM     14  O   UNL     1      -1.422  11.810  22.311  0.00  0.00    +0.000 OA
BRANCH  14  15
ATOM     15  S   UNL     1      -0.933  13.344  22.538  0.00  0.00    +0.000 S 
ATOM     16  O   UNL     1       0.427  13.501  22.079  0.00  0.00    +0.000 OA
ATOM     17  O   UNL     1      -1.345  13.785  23.851  0.00  0.00    +0.000 OA
BRANCH  15  18
ATOM     18  N   UNL     1      -1.891  14.239  21.494  0.00  0.00    +0.000 NA
ATOM     19  H   UNL     1      -2.308  15.008  22.020  0.00  0.00    +0.000 HD
ATOM     20  H   UNL     1      -2.605  13.631  21.093  0.00  0.00    +0.000 HD
ENDBRANCH  15  18
ENDBRANCH  14  15
ENDBRANCH   6  14
ENDBRANCH   1   9
BRANCH   4  21
ATOM     21  C   UNL     1       3.913   4.870  18.861  0.00  0.00    +0.000 C 
ATOM     22  O   UNL     1       3.565   3.920  19.562  0.00  0.00    +0.000 OA
BRANCH  21  23
ATOM     23  C   UNL     1       5.140   4.694  18.049  0.00  0.00    +0.000 A 
ATOM     24  C   UNL     1       6.376   5.100  18.554  0.00  0.00    +0.000 A 
ATOM     25  F   UNL     1       6.492   5.600  19.792  0.00  0.00    +0.000 F 
ATOM     26  C   UNL     1       7.540   4.975  17.792  0.00  0.00    +0.000 A 
ATOM     27  C   UNL     1       7.484   4.425  16.511  0.00  0.00    +0.000 A 
ATOM     28  C   UNL     1       6.254   4.024  16.002  0.00  0.00    +0.000 A 
ATOM     29  C   UNL     1       5.088   4.180  16.754  0.00  0.00    +0.000 A 
ATOM     30  F   UNL     1       3.916   3.843  16.194  0.00  0.00    +0.000 F 
BRANCH  28  31
ATOM     31  O   UNL     1       6.158   3.471  14.757  0.00  0.00    +0.000 OA
ATOM     32  H   UNL     1       5.857   2.550  14.825  0.00  0.00    +0.000 HD
ENDBRANCH  28  31
ENDBRANCH  21  23
ENDBRANCH   4  21
TORSDOF 7
ENDMDL
