MODEL 1
REMARK VINA RESULT:      -6.9      0.000      0.000
REMARK  Name = 
REMARK  8 active torsions:
REMARK  status: ('A' for Active; 'I' for Inactive)
REMARK    1  A    between atoms: C_1  and  C_2
REMARK    2  A    between atoms: C_2  and  O_3
REMARK    3  A    between atoms: O_3  and  C_4
REMARK    4  A    between atoms: C_4  and  C_6
REMARK    5  A    between atoms: C_7  and  C_8
REMARK    6  A    between atoms: C_16  and  C_17
REMARK    7  A    between atoms: C_24  and  N_25
REMARK    8  A    between atoms: N_25  and  C_26
REMARK                            x       y       z     vdW  Elec       q    Type
REMARK                         _______ _______ _______ _____ _____    ______ ____
ROOT
ATOM      1  C   UNL     1       5.896   5.094  17.955  0.00  0.00    +0.000 A 
ATOM      2  C   UNL     1       6.583   6.057  17.168  0.00  0.00    +0.000 A 
ATOM      3  C   UNL     1       6.723   5.751  15.807  0.00  0.00    +0.000 A 
ATOM      4  C   UNL     1       6.204   4.574  15.276  0.00  0.00    +0.000 A 
ATOM      5  N   UNL     1       5.541   3.682  16.042  0.00  0.00    +0.000 NA
ATOM      6  C   UNL     1       5.369   3.929  17.365  0.00  0.00    +0.000 A 
ENDROOT
BRANCH   2   7
ATOM      7  C   UNL     1       7.215   7.308  17.698  0.00  0.00    +0.000 A 
ATOM      8  C   UNL     1       6.869   8.573  17.179  0.00  0.00    +0.000 A 
ATOM      9  C   UNL     1       7.562   9.732  17.545  0.00  0.00    +0.000 A 
ATOM     10  C   UNL     1       8.644   9.645  18.413  0.00  0.00    +0.000 A 
ATOM     11 CL   UNL     1       9.549  11.050  18.803  0.00  0.00    +0.000 Cl
ATOM     12  C   UNL     1       8.997   8.422  18.963  0.00  0.00    +0.000 A 
ATOM     13  C   UNL     1       8.246   7.281  18.658  0.00  0.00    +0.000 A 
ENDBRANCH   2   7
BRANCH   4  14
ATOM     14  C   UNL     1       6.338   4.228  13.848  0.00  0.00    +0.000 A 
ATOM     15  C   UNL     1       7.378   4.759  13.065  0.00  0.00    +0.000 A 
ATOM     16  C   UNL     1       7.518   4.418  11.719  0.00  0.00    +0.000 A 
ATOM     17  C   UNL     1       6.620   3.533  11.127  0.00  0.00    +0.000 A 
ATOM     18  C   UNL     1       5.576   2.999  11.875  0.00  0.00    +0.000 A 
ATOM     19  C   UNL     1       5.438   3.344  13.220  0.00  0.00    +0.000 A 
ENDBRANCH   4  14
BRANCH   1  20
ATOM     20  C   UNL     1       5.815   5.183  19.434  0.00  0.00    +0.000 C 
ATOM     21  O   UNL     1       6.745   5.089  20.205  0.00  0.00    +0.000 OA
BRANCH  20  22
ATOM     22  O   UNL     1       4.528   5.487  19.720  0.00  0.00    +0.000 OA
BRANCH  22  24
ATOM     23  C   UNL     1       2.498   6.548  19.577  0.00  0.00    +0.000 C 
ATOM     24  C   UNL     1       3.871   6.496  18.961  0.00  0.00    +0.000 C 
ENDBRANCH  22  24
ENDBRANCH  20  22
ENDBRANCH   1  20
BRANCH   6  25
ATOM     25  N   UNL     1       4.720   2.945  18.133  0.00  0.00    +0.000 N 
ATOM     26  H   UNL     1       5.323   2.183  18.431  0.00  0.00    +0.000 HD
BRANCH  25  27
ATOM     27  C   UNL     1       3.396   2.895  18.599  0.00  0.00    +0.000 A 
ATOM     28  C   UNL     1       3.080   2.441  19.884  0.00  0.00    +0.000 A 
ATOM     29  C   UNL     1       1.769   2.493  20.365  0.00  0.00    +0.000 A 
ATOM     30  C   UNL     1       0.743   2.954  19.545  0.00  0.00    +0.000 A 
ATOM     31  C   UNL     1       1.025   3.326  18.233  0.00  0.00    +0.000 A 
ATOM     32  C   UNL     1       2.342   3.291  17.762  0.00  0.00    +0.000 A 
ENDBRANCH  25  27
ENDBRANCH   6  25
TORSDOF 7
ENDMDL
MODEL 2
REMARK VINA RESULT:      -6.9      8.339     12.001
REMARK  Name = 
REMARK  8 active torsions:
REMARK  status: ('A' for Active; 'I' for Inactive)
REMARK    1  A    between atoms: C_1  and  C_2
REMARK    2  A    between atoms: C_2  and  O_3
REMARK    3  A    between atoms: O_3  and  C_4
REMARK    4  A    between atoms: C_4  and  C_6
REMARK    5  A    between atoms: C_7  and  C_8
REMARK    6  A    between atoms: C_16  and  C_17
REMARK    7  A    between atoms: C_24  and  N_25
REMARK    8  A    between atoms: N_25  and  C_26
REMARK                            x       y       z     vdW  Elec       q    Type
REMARK                         _______ _______ _______ _____ _____    ______ ____
ROOT
ATOM      1  C   UNL     1       0.692  12.826  19.554  0.00  0.00    +0.000 A 
ATOM      2  C   UNL     1       0.162  11.511  19.463  0.00  0.00    +0.000 A 
ATOM      3  C   UNL     1      -1.230  11.400  19.595  0.00  0.00    +0.000 A 
ATOM      4  C   UNL     1      -2.028  12.524  19.791  0.00  0.00    +0.000 A 
ATOM      5  N   UNL     1      -1.501  13.764  19.858  0.00  0.00    +0.000 NA
ATOM      6  C   UNL     1      -0.160  13.933  19.730  0.00  0.00    +0.000 A 
ENDROOT
BRANCH   2   7
ATOM      7  C   UNL     1       0.977  10.263  19.316  0.00  0.00    +0.000 A 
ATOM      8  C   UNL     1       1.547   9.909  18.075  0.00  0.00    +0.000 A 
ATOM      9  C   UNL     1       2.171   8.672  17.878  0.00  0.00    +0.000 A 
ATOM     10  C   UNL     1       2.207   7.745  18.914  0.00  0.00    +0.000 A 
ATOM     11 CL   UNL     1       2.900   6.195  18.656  0.00  0.00    +0.000 Cl
ATOM     12  C   UNL     1       1.681   8.068  20.155  0.00  0.00    +0.000 A 
ATOM     13  C   UNL     1       1.133   9.338  20.368  0.00  0.00    +0.000 A 
ENDBRANCH   2   7
BRANCH   4  14
ATOM     14  C   UNL     1      -3.494  12.434  19.932  0.00  0.00    +0.000 A 
ATOM     15  C   UNL     1      -4.297  11.948  18.885  0.00  0.00    +0.000 A 
ATOM     16  C   UNL     1      -5.682  11.845  19.022  0.00  0.00    +0.000 A 
ATOM     17  C   UNL     1      -6.293  12.223  20.215  0.00  0.00    +0.000 A 
ATOM     18  C   UNL     1      -5.525  12.714  21.265  0.00  0.00    +0.000 A 
ATOM     19  C   UNL     1      -4.141  12.819  21.123  0.00  0.00    +0.000 A 
ENDBRANCH   4  14
BRANCH   1  20
ATOM     20  C   UNL     1       2.150  13.096  19.610  0.00  0.00    +0.000 C 
ATOM     21  O   UNL     1       2.883  13.247  18.658  0.00  0.00    +0.000 OA
BRANCH  20  22
ATOM     22  O   UNL     1       2.454  13.232  20.921  0.00  0.00    +0.000 OA
BRANCH  22  24
ATOM     23  C   UNL     1       3.017  15.142  22.064  0.00  0.00    +0.000 C 
ATOM     24  C   UNL     1       3.602  13.992  21.288  0.00  0.00    +0.000 C 
ENDBRANCH  22  24
ENDBRANCH  20  22
ENDBRANCH   1  20
BRANCH   6  25
ATOM     25  N   UNL     1       0.348  15.238  19.862  0.00  0.00    +0.000 N 
ATOM     26  H   UNL     1       0.710  15.454  20.787  0.00  0.00    +0.000 HD
BRANCH  25  27
ATOM     27  C   UNL     1       0.488  16.251  18.899  0.00  0.00    +0.000 A 
ATOM     28  C   UNL     1       1.738  16.627  18.396  0.00  0.00    +0.000 A 
ATOM     29  C   UNL     1       1.849  17.565  17.366  0.00  0.00    +0.000 A 
ATOM     30  C   UNL     1       0.708  18.181  16.859  0.00  0.00    +0.000 A 
ATOM     31  C   UNL     1      -0.536  17.885  17.408  0.00  0.00    +0.000 A 
ATOM     32  C   UNL     1      -0.645  16.930  18.426  0.00  0.00    +0.000 A 
ENDBRANCH  25  27
ENDBRANCH   6  25
TORSDOF 7
ENDMDL
MODEL 3
REMARK VINA RESULT:      -6.8      8.545     11.972
REMARK  Name = 
REMARK  8 active torsions:
REMARK  status: ('A' for Active; 'I' for Inactive)
REMARK    1  A    between atoms: C_1  and  C_2
REMARK    2  A    between atoms: C_2  and  O_3
REMARK    3  A    between atoms: O_3  and  C_4
REMARK    4  A    between atoms: C_4  and  C_6
REMARK    5  A    between atoms: C_7  and  C_8
REMARK    6  A    between atoms: C_16  and  C_17
REMARK    7  A    between atoms: C_24  and  N_25
REMARK    8  A    between atoms: N_25  and  C_26
REMARK                            x       y       z     vdW  Elec       q    Type
REMARK                         _______ _______ _______ _____ _____    ______ ____
ROOT
ATOM      1  C   UNL     1       0.209  12.612  19.715  0.00  0.00    +0.000 A 
ATOM      2  C   UNL     1      -0.180  11.277  19.424  0.00  0.00    +0.000 A 
ATOM      3  C   UNL     1      -1.555  11.064  19.243  0.00  0.00    +0.000 A 
ATOM      4  C   UNL     1      -2.465  12.113  19.336  0.00  0.00    +0.000 A 
ATOM      5  N   UNL     1      -2.067  13.375  19.599  0.00  0.00    +0.000 NA
ATOM      6  C   UNL     1      -0.749  13.642  19.776  0.00  0.00    +0.000 A 
ENDROOT
BRANCH   2   7
ATOM      7  C   UNL     1       0.747  10.101  19.373  0.00  0.00    +0.000 A 
ATOM      8  C   UNL     1       1.378   9.725  18.169  0.00  0.00    +0.000 A 
ATOM      9  C   UNL     1       2.116   8.541  18.064  0.00  0.00    +0.000 A 
ATOM     10  C   UNL     1       2.209   7.686  19.157  0.00  0.00    +0.000 A 
ATOM     11 CL   UNL     1       3.044   6.193  19.013  0.00  0.00    +0.000 Cl
ATOM     12  C   UNL     1       1.623   8.036  20.364  0.00  0.00    +0.000 A 
ATOM     13  C   UNL     1       0.958   9.261  20.485  0.00  0.00    +0.000 A 
ENDBRANCH   2   7
BRANCH   4  14
ATOM     14  C   UNL     1      -3.915  11.916  19.150  0.00  0.00    +0.000 A 
ATOM     15  C   UNL     1      -4.841  12.392  20.095  0.00  0.00    +0.000 A 
ATOM     16  C   UNL     1      -6.215  12.224  19.912  0.00  0.00    +0.000 A 
ATOM     17  C   UNL     1      -6.692  11.577  18.774  0.00  0.00    +0.000 A 
ATOM     18  C   UNL     1      -5.799  11.088  17.827  0.00  0.00    +0.000 A 
ATOM     19  C   UNL     1      -4.426  11.256  18.015  0.00  0.00    +0.000 A 
ENDBRANCH   4  14
BRANCH   1  20
ATOM     20  C   UNL     1       1.595  12.971  20.103  0.00  0.00    +0.000 C 
ATOM     21  O   UNL     1       2.125  12.721  21.163  0.00  0.00    +0.000 OA
BRANCH  20  22
ATOM     22  O   UNL     1       2.157  13.532  19.008  0.00  0.00    +0.000 OA
BRANCH  22  24
ATOM     23  C   UNL     1       3.315  15.084  17.774  0.00  0.00    +0.000 C 
ATOM     24  C   UNL     1       3.106  14.580  19.178  0.00  0.00    +0.000 C 
ENDBRANCH  22  24
ENDBRANCH  20  22
ENDBRANCH   1  20
BRANCH   6  25
ATOM     25  N   UNL     1      -0.389  14.962  20.102  0.00  0.00    +0.000 N 
ATOM     26  H   UNL     1       0.246  15.039  20.893  0.00  0.00    +0.000 HD
BRANCH  25  27
ATOM     27  C   UNL     1      -0.718  16.168  19.464  0.00  0.00    +0.000 A 
ATOM     28  C   UNL     1      -0.099  16.571  18.275  0.00  0.00    +0.000 A 
ATOM     29  C   UNL     1      -0.511  17.724  17.601  0.00  0.00    +0.000 A 
ATOM     30  C   UNL     1      -1.518  18.521  18.136  0.00  0.00    +0.000 A 
ATOM     31  C   UNL     1      -2.085  18.184  19.363  0.00  0.00    +0.000 A 
ATOM     32  C   UNL     1      -1.683  17.018  20.024  0.00  0.00    +0.000 A 
ENDBRANCH  25  27
ENDBRANCH   6  25
TORSDOF 7
ENDMDL
MODEL 4
REMARK VINA RESULT:      -6.7      8.226     11.050
REMARK  Name = 
REMARK  8 active torsions:
REMARK  status: ('A' for Active; 'I' for Inactive)
REMARK    1  A    between atoms: C_1  and  C_2
REMARK    2  A    between atoms: C_2  and  O_3
REMARK    3  A    between atoms: O_3  and  C_4
REMARK    4  A    between atoms: C_4  and  C_6
REMARK    5  A    between atoms: C_7  and  C_8
REMARK    6  A    between atoms: C_16  and  C_17
REMARK    7  A    between atoms: C_24  and  N_25
REMARK    8  A    between atoms: N_25  and  C_26
REMARK                            x       y       z     vdW  Elec       q    Type
REMARK                         _______ _______ _______ _____ _____    ______ ____
ROOT
ATOM      1  C   UNL     1      -1.202  11.649  21.008  0.00  0.00    +0.000 A 
ATOM      2  C   UNL     1      -2.431  12.287  20.687  0.00  0.00    +0.000 A 
ATOM      3  C   UNL     1      -2.948  12.018  19.412  0.00  0.00    +0.000 A 
ATOM      4  C   UNL     1      -2.288  11.165  18.531  0.00  0.00    +0.000 A 
ATOM      5  N   UNL     1      -1.130  10.558  18.867  0.00  0.00    +0.000 NA
ATOM      6  C   UNL     1      -0.586  10.777  20.091  0.00  0.00    +0.000 A 
ENDROOT
BRANCH   2   7
ATOM      7  C   UNL     1      -3.151  13.261  21.570  0.00  0.00    +0.000 A 
ATOM      8  C   UNL     1      -3.897  12.819  22.682  0.00  0.00    +0.000 A 
ATOM      9  C   UNL     1      -4.705  13.692  23.419  0.00  0.00    +0.000 A 
ATOM     10  C   UNL     1      -4.811  15.024  23.035  0.00  0.00    +0.000 A 
ATOM     11 CL   UNL     1      -5.862  16.083  23.885  0.00  0.00    +0.000 Cl
ATOM     12  C   UNL     1      -4.072  15.500  21.963  0.00  0.00    +0.000 A 
ATOM     13  C   UNL     1      -3.202  14.640  21.283  0.00  0.00    +0.000 A 
ENDBRANCH   2   7
BRANCH   4  14
ATOM     14  C   UNL     1      -2.810  10.865  17.185  0.00  0.00    +0.000 A 
ATOM     15  C   UNL     1      -2.159   9.950  16.339  0.00  0.00    +0.000 A 
ATOM     16  C   UNL     1      -2.662   9.650  15.073  0.00  0.00    +0.000 A 
ATOM     17  C   UNL     1      -3.832  10.258  14.626  0.00  0.00    +0.000 A 
ATOM     18  C   UNL     1      -4.493  11.174  15.437  0.00  0.00    +0.000 A 
ATOM     19  C   UNL     1      -3.986  11.474  16.702  0.00  0.00    +0.000 A 
ENDBRANCH   4  14
BRANCH   1  20
ATOM     20  C   UNL     1      -0.439  11.963  22.241  0.00  0.00    +0.000 C 
ATOM     21  O   UNL     1      -0.647  11.507  23.343  0.00  0.00    +0.000 OA
BRANCH  20  22
ATOM     22  O   UNL     1       0.576  12.770  21.856  0.00  0.00    +0.000 OA
BRANCH  22  24
ATOM     23  C   UNL     1       0.784  14.631  20.527  0.00  0.00    +0.000 C 
ATOM     24  C   UNL     1       0.394  14.182  21.911  0.00  0.00    +0.000 C 
ENDBRANCH  22  24
ENDBRANCH  20  22
ENDBRANCH   1  20
BRANCH   6  25
ATOM     25  N   UNL     1       0.649  10.166  20.373  0.00  0.00    +0.000 N 
ATOM     26  H   UNL     1       1.090  10.491  21.230  0.00  0.00    +0.000 HD
BRANCH  25  27
ATOM     27  C   UNL     1       1.324   9.141  19.691  0.00  0.00    +0.000 A 
ATOM     28  C   UNL     1       1.720   9.275  18.356  0.00  0.00    +0.000 A 
ATOM     29  C   UNL     1       2.478   8.286  17.724  0.00  0.00    +0.000 A 
ATOM     30  C   UNL     1       2.808   7.119  18.408  0.00  0.00    +0.000 A 
ATOM     31  C   UNL     1       2.347   6.928  19.708  0.00  0.00    +0.000 A 
ATOM     32  C   UNL     1       1.605   7.931  20.342  0.00  0.00    +0.000 A 
ENDBRANCH  25  27
ENDBRANCH   6  25
TORSDOF 7
ENDMDL
MODEL 5
REMARK VINA RESULT:      -6.7      8.187     11.464
REMARK  Name = 
REMARK  8 active torsions:
REMARK  status: ('A' for Active; 'I' for Inactive)
REMARK    1  A    between atoms: C_1  and  C_2
REMARK    2  A    between atoms: C_2  and  O_3
REMARK    3  A    between atoms: O_3  and  C_4
REMARK    4  A    between atoms: C_4  and  C_6
REMARK    5  A    between atoms: C_7  and  C_8
REMARK    6  A    between atoms: C_16  and  C_17
REMARK    7  A    between atoms: C_24  and  N_25
REMARK    8  A    between atoms: N_25  and  C_26
REMARK                            x       y       z     vdW  Elec       q    Type
REMARK                         _______ _______ _______ _____ _____    ______ ____
ROOT
ATOM      1  C   UNL     1      -1.586  11.082  18.980  0.00  0.00    +0.000 A 
ATOM      2  C   UNL     1      -0.274  10.874  19.484  0.00  0.00    +0.000 A 
ATOM      3  C   UNL     1       0.253  11.908  20.271  0.00  0.00    +0.000 A 
ATOM      4  C   UNL     1      -0.485  13.058  20.539  0.00  0.00    +0.000 A 
ATOM      5  N   UNL     1      -1.736  13.224  20.061  0.00  0.00    +0.000 NA
ATOM      6  C   UNL     1      -2.300  12.252  19.300  0.00  0.00    +0.000 A 
ENDROOT
BRANCH   2   7
ATOM      7  C   UNL     1       0.588   9.687  19.176  0.00  0.00    +0.000 A 
ATOM      8  C   UNL     1       0.944   8.767  20.184  0.00  0.00    +0.000 A 
ATOM      9  C   UNL     1       1.876   7.749  19.953  0.00  0.00    +0.000 A 
ATOM     10  C   UNL     1       2.500   7.651  18.715  0.00  0.00    +0.000 A 
ATOM     11 CL   UNL     1       3.703   6.455  18.449  0.00  0.00    +0.000 Cl
ATOM     12  C   UNL     1       2.156   8.523  17.692  0.00  0.00    +0.000 A 
ATOM     13  C   UNL     1       1.163   9.485  17.905  0.00  0.00    +0.000 A 
ENDBRANCH   2   7
BRANCH   4  14
ATOM     14  C   UNL     1       0.046  14.160  21.363  0.00  0.00    +0.000 A 
ATOM     15  C   UNL     1       1.412  14.491  21.342  0.00  0.00    +0.000 A 
ATOM     16  C   UNL     1       1.914  15.546  22.106  0.00  0.00    +0.000 A 
ATOM     17  C   UNL     1       1.055  16.296  22.907  0.00  0.00    +0.000 A 
ATOM     18  C   UNL     1      -0.300  15.986  22.954  0.00  0.00    +0.000 A 
ATOM     19  C   UNL     1      -0.797  14.929  22.190  0.00  0.00    +0.000 A 
ENDBRANCH   4  14
BRANCH   1  20
ATOM     20  C   UNL     1      -2.216  10.168  17.996  0.00  0.00    +0.000 C 
ATOM     21  O   UNL     1      -2.956   9.244  18.253  0.00  0.00    +0.000 OA
BRANCH  20  22
ATOM     22  O   UNL     1      -1.874  10.641  16.775  0.00  0.00    +0.000 OA
BRANCH  22  24
ATOM     23  C   UNL     1      -2.846   9.954  14.812  0.00  0.00    +0.000 C 
ATOM     24  C   UNL     1      -2.905  11.024  15.870  0.00  0.00    +0.000 C 
ENDBRANCH  22  24
ENDBRANCH  20  22
ENDBRANCH   1  20
BRANCH   6  25
ATOM     25  N   UNL     1      -3.584  12.495  18.779  0.00  0.00    +0.000 N 
ATOM     26  H   UNL     1      -3.588  12.986  17.889  0.00  0.00    +0.000 HD
BRANCH  25  27
ATOM     27  C   UNL     1      -4.842  12.106  19.268  0.00  0.00    +0.000 A 
ATOM     28  C   UNL     1      -5.275  12.448  20.554  0.00  0.00    +0.000 A 
ATOM     29  C   UNL     1      -6.568  12.140  20.986  0.00  0.00    +0.000 A 
ATOM     30  C   UNL     1      -7.432  11.435  20.152  0.00  0.00    +0.000 A 
ATOM     31  C   UNL     1      -6.988  11.008  18.903  0.00  0.00    +0.000 A 
ATOM     32  C   UNL     1      -5.699  11.337  18.467  0.00  0.00    +0.000 A 
ENDBRANCH  25  27
ENDBRANCH   6  25
TORSDOF 7
ENDMDL
MODEL 6
REMARK VINA RESULT:      -6.7      8.305     11.993
REMARK  Name = 
REMARK  8 active torsions:
REMARK  status: ('A' for Active; 'I' for Inactive)
REMARK    1  A    between atoms: C_1  and  C_2
REMARK    2  A    between atoms: C_2  and  O_3
REMARK    3  A    between atoms: O_3  and  C_4
REMARK    4  A    between atoms: C_4  and  C_6
REMARK    5  A    between atoms: C_7  and  C_8
REMARK    6  A    between atoms: C_16  and  C_17
REMARK    7  A    between atoms: C_24  and  N_25
REMARK    8  A    between atoms: N_25  and  C_26
REMARK                            x       y       z     vdW  Elec       q    Type
REMARK                         _______ _______ _______ _____ _____    ______ ____
ROOT
ATOM      1  C   UNL     1       0.662  12.803  19.567  0.00  0.00    +0.000 A 
ATOM      2  C   UNL     1       0.138  11.484  19.501  0.00  0.00    +0.000 A 
ATOM      3  C   UNL     1      -1.256  11.371  19.611  0.00  0.00    +0.000 A 
ATOM      4  C   UNL     1      -2.061  12.497  19.763  0.00  0.00    +0.000 A 
ATOM      5  N   UNL     1      -1.539  13.741  19.806  0.00  0.00    +0.000 NA
ATOM      6  C   UNL     1      -0.197  13.911  19.698  0.00  0.00    +0.000 A 
ENDROOT
BRANCH   2   7
ATOM      7  C   UNL     1       0.960  10.235  19.402  0.00  0.00    +0.000 A 
ATOM      8  C   UNL     1       1.547   9.847  18.179  0.00  0.00    +0.000 A 
ATOM      9  C   UNL     1       2.178   8.608  18.028  0.00  0.00    +0.000 A 
ATOM     10  C   UNL     1       2.205   7.712  19.091  0.00  0.00    +0.000 A 
ATOM     11 CL   UNL     1       2.907   6.158  18.889  0.00  0.00    +0.000 Cl
ATOM     12  C   UNL     1       1.660   8.069  20.315  0.00  0.00    +0.000 A 
ATOM     13  C   UNL     1       1.105   9.343  20.483  0.00  0.00    +0.000 A 
ENDBRANCH   2   7
BRANCH   4  14
ATOM     14  C   UNL     1      -3.528  12.406  19.880  0.00  0.00    +0.000 A 
ATOM     15  C   UNL     1      -4.194  12.835  21.042  0.00  0.00    +0.000 A 
ATOM     16  C   UNL     1      -5.583  12.768  21.149  0.00  0.00    +0.000 A 
ATOM     17  C   UNL     1      -6.339  12.271  20.090  0.00  0.00    +0.000 A 
ATOM     18  C   UNL     1      -5.709  11.832  18.931  0.00  0.00    +0.000 A 
ATOM     19  C   UNL     1      -4.318  11.898  18.830  0.00  0.00    +0.000 A 
ENDBRANCH   4  14
BRANCH   1  20
ATOM     20  C   UNL     1       2.118  13.079  19.641  0.00  0.00    +0.000 C 
ATOM     21  O   UNL     1       2.856  13.266  18.699  0.00  0.00    +0.000 OA
BRANCH  20  22
ATOM     22  O   UNL     1       2.413  13.176  20.957  0.00  0.00    +0.000 OA
BRANCH  22  24
ATOM     23  C   UNL     1       4.403  14.002  21.749  0.00  0.00    +0.000 C 
ATOM     24  C   UNL     1       2.978  14.386  21.452  0.00  0.00    +0.000 C 
ENDBRANCH  22  24
ENDBRANCH  20  22
ENDBRANCH   1  20
BRANCH   6  25
ATOM     25  N   UNL     1       0.304  15.221  19.803  0.00  0.00    +0.000 N 
ATOM     26  H   UNL     1       0.648  15.464  20.729  0.00  0.00    +0.000 HD
BRANCH  25  27
ATOM     27  C   UNL     1       0.460  16.208  18.816  0.00  0.00    +0.000 A 
ATOM     28  C   UNL     1      -0.634  16.890  18.272  0.00  0.00    +0.000 A 
ATOM     29  C   UNL     1      -0.453  17.938  17.366  0.00  0.00    +0.000 A 
ATOM     30  C   UNL     1       0.829  18.285  16.950  0.00  0.00    +0.000 A 
ATOM     31  C   UNL     1       1.924  17.560  17.412  0.00  0.00    +0.000 A 
ATOM     32  C   UNL     1       1.739  16.524  18.335  0.00  0.00    +0.000 A 
ENDBRANCH  25  27
ENDBRANCH   6  25
TORSDOF 7
ENDMDL
MODEL 7
REMARK VINA RESULT:      -6.6      7.997     10.802
REMARK  Name = 
REMARK  8 active torsions:
REMARK  status: ('A' for Active; 'I' for Inactive)
REMARK    1  A    between atoms: C_1  and  C_2
REMARK    2  A    between atoms: C_2  and  O_3
REMARK    3  A    between atoms: O_3  and  C_4
REMARK    4  A    between atoms: C_4  and  C_6
REMARK    5  A    between atoms: C_7  and  C_8
REMARK    6  A    between atoms: C_16  and  C_17
REMARK    7  A    between atoms: C_24  and  N_25
REMARK    8  A    between atoms: N_25  and  C_26
REMARK                            x       y       z     vdW  Elec       q    Type
REMARK                         _______ _______ _______ _____ _____    ______ ____
ROOT
ATOM      1  C   UNL     1      -0.882  11.818  20.645  0.00  0.00    +0.000 A 
ATOM      2  C   UNL     1      -2.201  12.315  20.467  0.00  0.00    +0.000 A 
ATOM      3  C   UNL     1      -2.819  11.993  19.250  0.00  0.00    +0.000 A 
ATOM      4  C   UNL     1      -2.167  11.223  18.291  0.00  0.00    +0.000 A 
ATOM      5  N   UNL     1      -0.919  10.749  18.492  0.00  0.00    +0.000 NA
ATOM      6  C   UNL     1      -0.275  11.023  19.654  0.00  0.00    +0.000 A 
ENDROOT
BRANCH   2   7
ATOM      7  C   UNL     1      -2.926  13.198  21.436  0.00  0.00    +0.000 A 
ATOM      8  C   UNL     1      -3.678  12.651  22.497  0.00  0.00    +0.000 A 
ATOM      9  C   UNL     1      -4.490  13.448  23.310  0.00  0.00    +0.000 A 
ATOM     10  C   UNL     1      -4.595  14.812  23.057  0.00  0.00    +0.000 A 
ATOM     11 CL   UNL     1      -5.651  15.783  24.000  0.00  0.00    +0.000 Cl
ATOM     12  C   UNL     1      -3.851  15.389  22.039  0.00  0.00    +0.000 A 
ATOM     13  C   UNL     1      -2.977  14.599  21.284  0.00  0.00    +0.000 A 
ENDBRANCH   2   7
BRANCH   4  14
ATOM     14  C   UNL     1      -2.795  10.871  17.004  0.00  0.00    +0.000 A 
ATOM     15  C   UNL     1      -4.004  11.462  16.598  0.00  0.00    +0.000 A 
ATOM     16  C   UNL     1      -4.590  11.145  15.372  0.00  0.00    +0.000 A 
ATOM     17  C   UNL     1      -3.974  10.229  14.522  0.00  0.00    +0.000 A 
ATOM     18  C   UNL     1      -2.781   9.622  14.900  0.00  0.00    +0.000 A 
ATOM     19  C   UNL     1      -2.200   9.940  16.128  0.00  0.00    +0.000 A 
ENDBRANCH   4  14
BRANCH   1  20
ATOM     20  C   UNL     1      -0.030  12.212  21.794  0.00  0.00    +0.000 C 
ATOM     21  O   UNL     1       0.271  13.344  22.102  0.00  0.00    +0.000 OA
BRANCH  20  22
ATOM     22  O   UNL     1       0.245  11.069  22.464  0.00  0.00    +0.000 OA
BRANCH  22  24
ATOM     23  C   UNL     1      -0.544   8.954  22.881  0.00  0.00    +0.000 C 
ATOM     24  C   UNL     1      -0.805  10.410  23.165  0.00  0.00    +0.000 C 
ENDBRANCH  22  24
ENDBRANCH  20  22
ENDBRANCH   1  20
BRANCH   6  25
ATOM     25  N   UNL     1       1.044  10.555  19.794  0.00  0.00    +0.000 N 
ATOM     26  H   UNL     1       1.656  11.177  20.317  0.00  0.00    +0.000 HD
BRANCH  25  27
ATOM     27  C   UNL     1       1.617   9.341  19.381  0.00  0.00    +0.000 A 
ATOM     28  C   UNL     1       1.712   8.238  20.236  0.00  0.00    +0.000 A 
ATOM     29  C   UNL     1       2.192   7.008  19.777  0.00  0.00    +0.000 A 
ATOM     30  C   UNL     1       2.634   6.879  18.463  0.00  0.00    +0.000 A 
ATOM     31  C   UNL     1       2.629   7.989  17.623  0.00  0.00    +0.000 A 
ATOM     32  C   UNL     1       2.129   9.213  18.081  0.00  0.00    +0.000 A 
ENDBRANCH  25  27
ENDBRANCH   6  25
TORSDOF 7
ENDMDL
MODEL 8
REMARK VINA RESULT:      -6.6      8.255     11.046
REMARK  Name = 
REMARK  8 active torsions:
REMARK  status: ('A' for Active; 'I' for Inactive)
REMARK    1  A    between atoms: C_1  and  C_2
REMARK    2  A    between atoms: C_2  and  O_3
REMARK    3  A    between atoms: O_3  and  C_4
REMARK    4  A    between atoms: C_4  and  C_6
REMARK    5  A    between atoms: C_7  and  C_8
REMARK    6  A    between atoms: C_16  and  C_17
REMARK    7  A    between atoms: C_24  and  N_25
REMARK    8  A    between atoms: N_25  and  C_26
REMARK                            x       y       z     vdW  Elec       q    Type
REMARK                         _______ _______ _______ _____ _____    ______ ____
ROOT
ATOM      1  C   UNL     1      -1.216  11.805  20.998  0.00  0.00    +0.000 A 
ATOM      2  C   UNL     1      -2.459  12.415  20.679  0.00  0.00    +0.000 A 
ATOM      3  C   UNL     1      -2.989  12.104  19.418  0.00  0.00    +0.000 A 
ATOM      4  C   UNL     1      -2.327  11.240  18.551  0.00  0.00    +0.000 A 
ATOM      5  N   UNL     1      -1.155  10.661  18.885  0.00  0.00    +0.000 NA
ATOM      6  C   UNL     1      -0.598  10.919  20.095  0.00  0.00    +0.000 A 
ENDROOT
BRANCH   2   7
ATOM      7  C   UNL     1      -3.183  13.399  21.547  0.00  0.00    +0.000 A 
ATOM      8  C   UNL     1      -3.083  14.786  21.311  0.00  0.00    +0.000 A 
ATOM      9  C   UNL     1      -3.616  15.723  22.203  0.00  0.00    +0.000 A 
ATOM     10  C   UNL     1      -4.232  15.291  23.372  0.00  0.00    +0.000 A 
ATOM     11 CL   UNL     1      -4.817  16.437  24.509  0.00  0.00    +0.000 Cl
ATOM     12  C   UNL     1      -4.371  13.935  23.624  0.00  0.00    +0.000 A 
ATOM     13  C   UNL     1      -3.910  13.004  22.687  0.00  0.00    +0.000 A 
ENDBRANCH   2   7
BRANCH   4  14
ATOM     14  C   UNL     1      -2.863  10.897  17.220  0.00  0.00    +0.000 A 
ATOM     15  C   UNL     1      -4.051  11.478  16.742  0.00  0.00    +0.000 A 
ATOM     16  C   UNL     1      -4.551  11.169  15.476  0.00  0.00    +0.000 A 
ATOM     17  C   UNL     1      -3.866  10.274  14.657  0.00  0.00    +0.000 A 
ATOM     18  C   UNL     1      -2.693   9.678  15.106  0.00  0.00    +0.000 A 
ATOM     19  C   UNL     1      -2.198   9.987  16.374  0.00  0.00    +0.000 A 
ENDBRANCH   4  14
BRANCH   1  20
ATOM     20  C   UNL     1      -0.441  12.163  22.212  0.00  0.00    +0.000 C 
ATOM     21  O   UNL     1      -0.718  11.855  23.350  0.00  0.00    +0.000 OA
BRANCH  20  22
ATOM     22  O   UNL     1       0.666  12.804  21.773  0.00  0.00    +0.000 OA
BRANCH  22  24
ATOM     23  C   UNL     1       0.297  14.977  22.414  0.00  0.00    +0.000 C 
ATOM     24  C   UNL     1       0.533  14.105  21.209  0.00  0.00    +0.000 C 
ENDBRANCH  22  24
ENDBRANCH  20  22
ENDBRANCH   1  20
BRANCH   6  25
ATOM     25  N   UNL     1       0.651  10.337  20.376  0.00  0.00    +0.000 N 
ATOM     26  H   UNL     1       1.138  10.752  21.166  0.00  0.00    +0.000 HD
BRANCH  25  27
ATOM     27  C   UNL     1       1.287   9.238  19.775  0.00  0.00    +0.000 A 
ATOM     28  C   UNL     1       1.697   9.260  18.437  0.00  0.00    +0.000 A 
ATOM     29  C   UNL     1       2.418   8.198  17.885  0.00  0.00    +0.000 A 
ATOM     30  C   UNL     1       2.696   7.071  18.653  0.00  0.00    +0.000 A 
ATOM     31  C   UNL     1       2.219   6.993  19.959  0.00  0.00    +0.000 A 
ATOM     32  C   UNL     1       1.515   8.068  20.514  0.00  0.00    +0.000 A 
ENDBRANCH  25  27
ENDBRANCH   6  25
TORSDOF 7
ENDMDL
MODEL 9
REMARK VINA RESULT:      -6.6      8.364     11.662
REMARK  Name = 
REMARK  8 active torsions:
REMARK  status: ('A' for Active; 'I' for Inactive)
REMARK    1  A    between atoms: C_1  and  C_2
REMARK    2  A    between atoms: C_2  and  O_3
REMARK    3  A    between atoms: O_3  and  C_4
REMARK    4  A    between atoms: C_4  and  C_6
REMARK    5  A    between atoms: C_7  and  C_8
REMARK    6  A    between atoms: C_16  and  C_17
REMARK    7  A    between atoms: C_24  and  N_25
REMARK    8  A    between atoms: N_25  and  C_26
REMARK                            x       y       z     vdW  Elec       q    Type
REMARK                         _______ _______ _______ _____ _____    ______ ____
ROOT
ATOM      1  C   UNL     1       0.666  12.365  18.876  0.00  0.00    +0.000 A 
ATOM      2  C   UNL     1       0.174  11.033  18.946  0.00  0.00    +0.000 A 
ATOM      3  C   UNL     1      -1.221  10.893  18.948  0.00  0.00    +0.000 A 
ATOM      4  C   UNL     1      -2.057  12.004  18.875  0.00  0.00    +0.000 A 
ATOM      5  N   UNL     1      -1.565  13.258  18.793  0.00  0.00    +0.000 NA
ATOM      6  C   UNL     1      -0.222  13.453  18.780  0.00  0.00    +0.000 A 
ENDROOT
BRANCH   2   7
ATOM      7  C   UNL     1       1.025   9.808  19.089  0.00  0.00    +0.000 A 
ATOM      8  C   UNL     1       1.681   9.245  17.975  0.00  0.00    +0.000 A 
ATOM      9  C   UNL     1       2.344   8.015  18.056  0.00  0.00    +0.000 A 
ATOM     10  C   UNL     1       2.335   7.304  19.251  0.00  0.00    +0.000 A 
ATOM     11 CL   UNL     1       3.078   5.758  19.337  0.00  0.00    +0.000 Cl
ATOM     12  C   UNL     1       1.723   7.839  20.374  0.00  0.00    +0.000 A 
ATOM     13  C   UNL     1       1.135   9.107  20.307  0.00  0.00    +0.000 A 
ENDBRANCH   2   7
BRANCH   4  14
ATOM     14  C   UNL     1      -3.528  11.884  18.876  0.00  0.00    +0.000 A 
ATOM     15  C   UNL     1      -4.199  11.161  17.875  0.00  0.00    +0.000 A 
ATOM     16  C   UNL     1      -5.589  11.030  17.883  0.00  0.00    +0.000 A 
ATOM     17  C   UNL     1      -6.337  11.618  18.901  0.00  0.00    +0.000 A 
ATOM     18  C   UNL     1      -5.701  12.346  19.900  0.00  0.00    +0.000 A 
ATOM     19  C   UNL     1      -4.311  12.477  19.886  0.00  0.00    +0.000 A 
ENDBRANCH   4  14
BRANCH   1  20
ATOM     20  C   UNL     1       2.103  12.693  19.038  0.00  0.00    +0.000 C 
ATOM     21  O   UNL     1       2.910  12.818  18.143  0.00  0.00    +0.000 OA
BRANCH  20  22
ATOM     22  O   UNL     1       2.289  12.917  20.359  0.00  0.00    +0.000 OA
BRANCH  22  24
ATOM     23  C   UNL     1       2.331  14.817  21.647  0.00  0.00    +0.000 C 
ATOM     24  C   UNL     1       3.187  13.945  20.766  0.00  0.00    +0.000 C 
ENDBRANCH  22  24
ENDBRANCH  20  22
ENDBRANCH   1  20
BRANCH   6  25
ATOM     25  N   UNL     1       0.243  14.780  18.749  0.00  0.00    +0.000 N 
ATOM     26  H   UNL     1       1.186  14.885  18.382  0.00  0.00    +0.000 HD
BRANCH  25  27
ATOM     27  C   UNL     1      -0.418  15.973  19.084  0.00  0.00    +0.000 A 
ATOM     28  C   UNL     1      -0.921  16.206  20.369  0.00  0.00    +0.000 A 
ATOM     29  C   UNL     1      -1.485  17.438  20.711  0.00  0.00    +0.000 A 
ATOM     30  C   UNL     1      -1.601  18.441  19.753  0.00  0.00    +0.000 A 
ATOM     31  C   UNL     1      -1.187  18.197  18.447  0.00  0.00    +0.000 A 
ATOM     32  C   UNL     1      -0.604  16.969  18.114  0.00  0.00    +0.000 A 
ENDBRANCH  25  27
ENDBRANCH   6  25
TORSDOF 7
ENDMDL
