MODEL 1
REMARK VINA RESULT:      -6.8      0.000      0.000
REMARK  Name = 
REMARK  4 active torsions:
REMARK  status: ('A' for Active; 'I' for Inactive)
REMARK    1  A    between atoms: N_1  and  C_2
REMARK    2  A    between atoms: C_2  and  N_4
REMARK    3  A    between atoms: N_4  and  N_5
REMARK    4  A    between atoms: C_6  and  C_7
REMARK                            x       y       z     vdW  Elec       q    Type
REMARK                         _______ _______ _______ _____ _____    ______ ____
ROOT
ATOM      1  C   UNL     1       3.618   4.946  17.794  0.00  0.00    +0.000 A 
ATOM      2  N   UNL     1       3.793   6.296  17.773  0.00  0.00    +0.000 NA
ATOM      3  C   UNL     1       3.080   7.006  18.675  0.00  0.00    +0.000 A 
ATOM      4  C   UNL     1       2.227   6.434  19.601  0.00  0.00    +0.000 A 
ATOM      5  F   UNL     1       1.560   7.224  20.457  0.00  0.00    +0.000 F 
ATOM      6  C   UNL     1       2.076   5.044  19.639  0.00  0.00    +0.000 A 
ATOM      7  C   UNL     1       1.228   4.435  20.585  0.00  0.00    +0.000 A 
ATOM      8  C   UNL     1       1.082   3.050  20.637  0.00  0.00    +0.000 A 
ATOM      9  C   UNL     1       1.787   2.251  19.749  0.00  0.00    +0.000 A 
ATOM     10  C   UNL     1       2.633   2.840  18.811  0.00  0.00    +0.000 A 
ATOM     11  C   UNL     1       2.791   4.249  18.715  0.00  0.00    +0.000 A 
ENDROOT
BRANCH   1  13
ATOM     12  N   UNL     1       5.661   4.088  16.789  0.00  0.00    +0.000 NA
ATOM     13  C   UNL     1       4.383   4.269  16.715  0.00  0.00    +0.000 C 
BRANCH  12  14
ATOM     14  N   UNL     1       6.256   3.481  15.726  0.00  0.00    +0.000 N 
ATOM     15  H   UNL     1       6.430   2.480  15.725  0.00  0.00    +0.000 HD
BRANCH  14  16
ATOM     16  C   UNL     1       6.591   4.213  14.618  0.00  0.00    +0.000 C 
ATOM     17  S   UNL     1       6.098   3.799  13.090  0.00  0.00    +0.000 S 
BRANCH  16  18
ATOM     18  N   UNL     1       7.347   5.313  14.856  0.00  0.00    +0.000 N 
ATOM     19  H   UNL     1       7.084   5.985  15.563  0.00  0.00    +0.000 HD
ATOM     20  H   UNL     1       8.024   5.557  14.145  0.00  0.00    +0.000 HD
ENDBRANCH  16  18
ENDBRANCH  14  16
ENDBRANCH  12  14
ENDBRANCH   1  13
TORSDOF 4
ENDMDL
MODEL 2
REMARK VINA RESULT:      -6.7      2.015      3.017
REMARK  Name = 
REMARK  4 active torsions:
REMARK  status: ('A' for Active; 'I' for Inactive)
REMARK    1  A    between atoms: N_1  and  C_2
REMARK    2  A    between atoms: C_2  and  N_4
REMARK    3  A    between atoms: N_4  and  N_5
REMARK    4  A    between atoms: C_6  and  C_7
REMARK                            x       y       z     vdW  Elec       q    Type
REMARK                         _______ _______ _______ _____ _____    ______ ____
ROOT
ATOM      1  C   UNL     1       4.238   3.873  19.076  0.00  0.00    +0.000 A 
ATOM      2  N   UNL     1       4.167   2.652  19.674  0.00  0.00    +0.000 NA
ATOM      3  C   UNL     1       3.268   2.526  20.674  0.00  0.00    +0.000 A 
ATOM      4  C   UNL     1       2.429   3.546  21.085  0.00  0.00    +0.000 A 
ATOM      5  F   UNL     1       1.568   3.324  22.091  0.00  0.00    +0.000 F 
ATOM      6  C   UNL     1       2.484   4.789  20.446  0.00  0.00    +0.000 A 
ATOM      7  C   UNL     1       1.627   5.838  20.834  0.00  0.00    +0.000 A 
ATOM      8  C   UNL     1       1.667   7.075  20.193  0.00  0.00    +0.000 A 
ATOM      9  C   UNL     1       2.558   7.280  19.150  0.00  0.00    +0.000 A 
ATOM     10  C   UNL     1       3.408   6.250  18.753  0.00  0.00    +0.000 A 
ATOM     11  C   UNL     1       3.410   4.982  19.396  0.00  0.00    +0.000 A 
ENDROOT
BRANCH   1  13
ATOM     12  N   UNL     1       6.506   4.328  18.324  0.00  0.00    +0.000 NA
ATOM     13  C   UNL     1       5.308   3.928  18.047  0.00  0.00    +0.000 C 
BRANCH  12  14
ATOM     14  N   UNL     1       7.394   4.362  17.293  0.00  0.00    +0.000 N 
ATOM     15  H   UNL     1       8.201   3.747  17.276  0.00  0.00    +0.000 HD
BRANCH  14  16
ATOM     16  C   UNL     1       7.182   5.206  16.235  0.00  0.00    +0.000 C 
ATOM     17  S   UNL     1       6.688   4.668  14.747  0.00  0.00    +0.000 S 
BRANCH  16  18
ATOM     18  N   UNL     1       7.391   6.521  16.491  0.00  0.00    +0.000 N 
ATOM     19  H   UNL     1       7.196   7.227  15.796  0.00  0.00    +0.000 HD
ATOM     20  H   UNL     1       7.974   6.737  17.290  0.00  0.00    +0.000 HD
ENDBRANCH  16  18
ENDBRANCH  14  16
ENDBRANCH  12  14
ENDBRANCH   1  13
TORSDOF 4
ENDMDL
MODEL 3
REMARK VINA RESULT:      -6.7      2.010      3.037
REMARK  Name = 
REMARK  4 active torsions:
REMARK  status: ('A' for Active; 'I' for Inactive)
REMARK    1  A    between atoms: N_1  and  C_2
REMARK    2  A    between atoms: C_2  and  N_4
REMARK    3  A    between atoms: N_4  and  N_5
REMARK    4  A    between atoms: C_6  and  C_7
REMARK                            x       y       z     vdW  Elec       q    Type
REMARK                         _______ _______ _______ _____ _____    ______ ____
ROOT
ATOM      1  C   UNL     1       3.240   3.559  18.073  0.00  0.00    +0.000 A 
ATOM      2  N   UNL     1       2.891   2.256  18.260  0.00  0.00    +0.000 NA
ATOM      3  C   UNL     1       2.067   2.000  19.299  0.00  0.00    +0.000 A 
ATOM      4  C   UNL     1       1.563   2.978  20.138  0.00  0.00    +0.000 A 
ATOM      5  F   UNL     1       0.751   2.624  21.147  0.00  0.00    +0.000 F 
ATOM      6  C   UNL     1       1.900   4.318  19.922  0.00  0.00    +0.000 A 
ATOM      7  C   UNL     1       1.385   5.334  20.751  0.00  0.00    +0.000 A 
ATOM      8  C   UNL     1       1.706   6.674  20.533  0.00  0.00    +0.000 A 
ATOM      9  C   UNL     1       2.540   7.018  19.480  0.00  0.00    +0.000 A 
ATOM     10  C   UNL     1       3.053   6.023  18.650  0.00  0.00    +0.000 A 
ATOM     11  C   UNL     1       2.764   4.646  18.853  0.00  0.00    +0.000 A 
ENDROOT
BRANCH   1  13
ATOM     12  N   UNL     1       5.483   3.801  17.160  0.00  0.00    +0.000 NA
ATOM     13  C   UNL     1       4.208   3.722  16.957  0.00  0.00    +0.000 C 
BRANCH  12  14
ATOM     14  N   UNL     1       6.268   3.977  16.063  0.00  0.00    +0.000 N 
ATOM     15  H   UNL     1       6.323   3.267  15.339  0.00  0.00    +0.000 HD
BRANCH  14  16
ATOM     16  C   UNL     1       6.965   5.145  15.900  0.00  0.00    +0.000 C 
ATOM     17  S   UNL     1       7.110   6.276  17.103  0.00  0.00    +0.000 S 
BRANCH  16  18
ATOM     18  N   UNL     1       7.544   5.310  14.684  0.00  0.00    +0.000 N 
ATOM     19  H   UNL     1       7.512   6.198  14.205  0.00  0.00    +0.000 HD
ATOM     20  H   UNL     1       7.778   4.464  14.179  0.00  0.00    +0.000 HD
ENDBRANCH  16  18
ENDBRANCH  14  16
ENDBRANCH  12  14
ENDBRANCH   1  13
TORSDOF 4
ENDMDL
MODEL 4
REMARK VINA RESULT:      -6.6      1.144      1.274
REMARK  Name = 
REMARK  4 active torsions:
REMARK  status: ('A' for Active; 'I' for Inactive)
REMARK    1  A    between atoms: N_1  and  C_2
REMARK    2  A    between atoms: C_2  and  N_4
REMARK    3  A    between atoms: N_4  and  N_5
REMARK    4  A    between atoms: C_6  and  C_7
REMARK                            x       y       z     vdW  Elec       q    Type
REMARK                         _______ _______ _______ _____ _____    ______ ____
ROOT
ATOM      1  C   UNL     1       3.469   5.624  17.983  0.00  0.00    +0.000 A 
ATOM      2  N   UNL     1       3.440   6.876  18.517  0.00  0.00    +0.000 NA
ATOM      3  C   UNL     1       2.586   7.069  19.546  0.00  0.00    +0.000 A 
ATOM      4  C   UNL     1       1.783   6.075  20.074  0.00  0.00    +0.000 A 
ATOM      5  F   UNL     1       0.964   6.365  21.097  0.00  0.00    +0.000 F 
ATOM      6  C   UNL     1       1.839   4.783  19.542  0.00  0.00    +0.000 A 
ATOM      7  C   UNL     1       1.045   3.748  20.075  0.00  0.00    +0.000 A 
ATOM      8  C   UNL     1       1.105   2.454  19.558  0.00  0.00    +0.000 A 
ATOM      9  C   UNL     1       1.965   2.174  18.506  0.00  0.00    +0.000 A 
ATOM     10  C   UNL     1       2.759   3.187  17.973  0.00  0.00    +0.000 A 
ATOM     11  C   UNL     1       2.710   4.521  18.460  0.00  0.00    +0.000 A 
ENDROOT
BRANCH   1  13
ATOM     12  N   UNL     1       5.403   6.315  16.680  0.00  0.00    +0.000 NA
ATOM     13  C   UNL     1       4.378   5.538  16.811  0.00  0.00    +0.000 C 
BRANCH  12  14
ATOM     14  N   UNL     1       6.147   6.161  15.550  0.00  0.00    +0.000 N 
ATOM     15  H   UNL     1       6.302   6.939  14.916  0.00  0.00    +0.000 HD
BRANCH  14  16
ATOM     16  C   UNL     1       6.735   4.955  15.276  0.00  0.00    +0.000 C 
ATOM     17  S   UNL     1       6.267   3.999  14.006  0.00  0.00    +0.000 S 
BRANCH  16  18
ATOM     18  N   UNL     1       7.743   4.599  16.111  0.00  0.00    +0.000 N 
ATOM     19  H   UNL     1       7.556   4.146  16.994  0.00  0.00    +0.000 HD
ATOM     20  H   UNL     1       8.645   5.025  15.936  0.00  0.00    +0.000 HD
ENDBRANCH  16  18
ENDBRANCH  14  16
ENDBRANCH  12  14
ENDBRANCH   1  13
TORSDOF 4
ENDMDL
MODEL 5
REMARK VINA RESULT:      -6.6      1.893      2.237
REMARK  Name = 
REMARK  4 active torsions:
REMARK  status: ('A' for Active; 'I' for Inactive)
REMARK    1  A    between atoms: N_1  and  C_2
REMARK    2  A    between atoms: C_2  and  N_4
REMARK    3  A    between atoms: N_4  and  N_5
REMARK    4  A    between atoms: C_6  and  C_7
REMARK                            x       y       z     vdW  Elec       q    Type
REMARK                         _______ _______ _______ _____ _____    ______ ____
ROOT
ATOM      1  C   UNL     1       4.756   4.820  16.455  0.00  0.00    +0.000 A 
ATOM      2  N   UNL     1       5.085   6.140  16.514  0.00  0.00    +0.000 NA
ATOM      3  C   UNL     1       4.297   6.920  17.286  0.00  0.00    +0.000 A 
ATOM      4  C   UNL     1       3.220   6.443  18.011  0.00  0.00    +0.000 A 
ATOM      5  F   UNL     1       2.494   7.298  18.748  0.00  0.00    +0.000 F 
ATOM      6  C   UNL     1       2.906   5.081  17.972  0.00  0.00    +0.000 A 
ATOM      7  C   UNL     1       1.825   4.568  18.717  0.00  0.00    +0.000 A 
ATOM      8  C   UNL     1       1.514   3.209  18.693  0.00  0.00    +0.000 A 
ATOM      9  C   UNL     1       2.282   2.342  17.931  0.00  0.00    +0.000 A 
ATOM     10  C   UNL     1       3.357   2.835  17.193  0.00  0.00    +0.000 A 
ATOM     11  C   UNL     1       3.691   4.216  17.177  0.00  0.00    +0.000 A 
ENDROOT
BRANCH   1  13
ATOM     12  N   UNL     1       5.595   4.254  14.243  0.00  0.00    +0.000 NA
ATOM     13  C   UNL     1       5.634   4.067  15.522  0.00  0.00    +0.000 C 
BRANCH  12  14
ATOM     14  N   UNL     1       6.426   3.486  13.487  0.00  0.00    +0.000 N 
ATOM     15  H   UNL     1       7.347   3.222  13.825  0.00  0.00    +0.000 HD
BRANCH  14  16
ATOM     16  C   UNL     1       6.009   3.020  12.269  0.00  0.00    +0.000 C 
ATOM     17  S   UNL     1       4.504   3.345  11.654  0.00  0.00    +0.000 S 
BRANCH  16  18
ATOM     18  N   UNL     1       6.920   2.280  11.588  0.00  0.00    +0.000 N 
ATOM     19  H   UNL     1       6.911   1.271  11.630  0.00  0.00    +0.000 HD
ATOM     20  H   UNL     1       7.739   2.771  11.254  0.00  0.00    +0.000 HD
ENDBRANCH  16  18
ENDBRANCH  14  16
ENDBRANCH  12  14
ENDBRANCH   1  13
TORSDOF 4
ENDMDL
MODEL 6
REMARK VINA RESULT:      -6.6      1.720      2.774
REMARK  Name = 
REMARK  4 active torsions:
REMARK  status: ('A' for Active; 'I' for Inactive)
REMARK    1  A    between atoms: N_1  and  C_2
REMARK    2  A    between atoms: C_2  and  N_4
REMARK    3  A    between atoms: N_4  and  N_5
REMARK    4  A    between atoms: C_6  and  C_7
REMARK                            x       y       z     vdW  Elec       q    Type
REMARK                         _______ _______ _______ _____ _____    ______ ____
ROOT
ATOM      1  C   UNL     1       3.884   4.373  17.564  0.00  0.00    +0.000 A 
ATOM      2  N   UNL     1       3.906   3.034  17.320  0.00  0.00    +0.000 NA
ATOM      3  C   UNL     1       3.174   2.261  18.152  0.00  0.00    +0.000 A 
ATOM      4  C   UNL     1       2.412   2.761  19.192  0.00  0.00    +0.000 A 
ATOM      5  F   UNL     1       1.720   1.911  19.967  0.00  0.00    +0.000 F 
ATOM      6  C   UNL     1       2.368   4.140  19.419  0.00  0.00    +0.000 A 
ATOM      7  C   UNL     1       1.585   4.675  20.460  0.00  0.00    +0.000 A 
ATOM      8  C   UNL     1       1.525   6.050  20.685  0.00  0.00    +0.000 A 
ATOM      9  C   UNL     1       2.243   6.911  19.867  0.00  0.00    +0.000 A 
ATOM     10  C   UNL     1       3.018   6.395  18.830  0.00  0.00    +0.000 A 
ATOM     11  C   UNL     1       3.118   4.999  18.585  0.00  0.00    +0.000 A 
ENDROOT
BRANCH   1  13
ATOM     12  N   UNL     1       5.916   4.645  16.254  0.00  0.00    +0.000 NA
ATOM     13  C   UNL     1       4.780   5.122  16.646  0.00  0.00    +0.000 C 
BRANCH  12  14
ATOM     14  N   UNL     1       6.662   5.435  15.435  0.00  0.00    +0.000 N 
ATOM     15  H   UNL     1       6.987   6.347  15.742  0.00  0.00    +0.000 HD
BRANCH  14  16
ATOM     16  C   UNL     1       7.024   4.987  14.193  0.00  0.00    +0.000 C 
ATOM     17  S   UNL     1       6.187   3.802  13.390  0.00  0.00    +0.000 S 
BRANCH  16  18
ATOM     18  N   UNL     1       8.112   5.590  13.653  0.00  0.00    +0.000 N 
ATOM     19  H   UNL     1       8.067   6.040  12.749  0.00  0.00    +0.000 HD
ATOM     20  H   UNL     1       9.007   5.356  14.063  0.00  0.00    +0.000 HD
ENDBRANCH  16  18
ENDBRANCH  14  16
ENDBRANCH  12  14
ENDBRANCH   1  13
TORSDOF 4
ENDMDL
MODEL 7
REMARK VINA RESULT:      -6.4      3.802      5.947
REMARK  Name = 
REMARK  4 active torsions:
REMARK  status: ('A' for Active; 'I' for Inactive)
REMARK    1  A    between atoms: N_1  and  C_2
REMARK    2  A    between atoms: C_2  and  N_4
REMARK    3  A    between atoms: N_4  and  N_5
REMARK    4  A    between atoms: C_6  and  C_7
REMARK                            x       y       z     vdW  Elec       q    Type
REMARK                         _______ _______ _______ _____ _____    ______ ____
ROOT
ATOM      1  C   UNL     1       4.908   4.303  18.184  0.00  0.00    +0.000 A 
ATOM      2  N   UNL     1       5.334   4.873  19.345  0.00  0.00    +0.000 NA
ATOM      3  C   UNL     1       6.477   5.591  19.276  0.00  0.00    +0.000 A 
ATOM      4  C   UNL     1       7.194   5.781  18.109  0.00  0.00    +0.000 A 
ATOM      5  F   UNL     1       8.320   6.510  18.141  0.00  0.00    +0.000 F 
ATOM      6  C   UNL     1       6.735   5.220  16.913  0.00  0.00    +0.000 A 
ATOM      7  C   UNL     1       7.436   5.416  15.707  0.00  0.00    +0.000 A 
ATOM      8  C   UNL     1       6.978   4.871  14.509  0.00  0.00    +0.000 A 
ATOM      9  C   UNL     1       5.807   4.128  14.496  0.00  0.00    +0.000 A 
ATOM     10  C   UNL     1       5.099   3.930  15.681  0.00  0.00    +0.000 A 
ATOM     11  C   UNL     1       5.547   4.454  16.924  0.00  0.00    +0.000 A 
ENDROOT
BRANCH   1  13
ATOM     12  N   UNL     1       3.752   2.265  18.838  0.00  0.00    +0.000 NA
ATOM     13  C   UNL     1       3.691   3.474  18.384  0.00  0.00    +0.000 C 
BRANCH  12  14
ATOM     14  N   UNL     1       2.573   1.594  18.952  0.00  0.00    +0.000 N 
ATOM     15  H   UNL     1       2.481   0.638  18.621  0.00  0.00    +0.000 HD
BRANCH  14  16
ATOM     16  C   UNL     1       1.500   2.192  19.558  0.00  0.00    +0.000 C 
ATOM     17  S   UNL     1       1.523   2.674  21.144  0.00  0.00    +0.000 S 
BRANCH  16  18
ATOM     18  N   UNL     1       0.415   2.376  18.766  0.00  0.00    +0.000 N 
ATOM     19  H   UNL     1       0.062   3.301  18.568  0.00  0.00    +0.000 HD
ATOM     20  H   UNL     1      -0.162   1.561  18.596  0.00  0.00    +0.000 HD
ENDBRANCH  16  18
ENDBRANCH  14  16
ENDBRANCH  12  14
ENDBRANCH   1  13
TORSDOF 4
ENDMDL
MODEL 8
REMARK VINA RESULT:      -6.3      2.610      3.708
REMARK  Name = 
REMARK  4 active torsions:
REMARK  status: ('A' for Active; 'I' for Inactive)
REMARK    1  A    between atoms: N_1  and  C_2
REMARK    2  A    between atoms: C_2  and  N_4
REMARK    3  A    between atoms: N_4  and  N_5
REMARK    4  A    between atoms: C_6  and  C_7
REMARK                            x       y       z     vdW  Elec       q    Type
REMARK                         _______ _______ _______ _____ _____    ______ ____
ROOT
ATOM      1  C   UNL     1       5.926   4.489  15.859  0.00  0.00    +0.000 A 
ATOM      2  N   UNL     1       7.211   4.804  16.180  0.00  0.00    +0.000 NA
ATOM      3  C   UNL     1       7.467   5.014  17.489  0.00  0.00    +0.000 A 
ATOM      4  C   UNL     1       6.514   4.904  18.485  0.00  0.00    +0.000 A 
ATOM      5  F   UNL     1       6.866   5.135  19.760  0.00  0.00    +0.000 F 
ATOM      6  C   UNL     1       5.203   4.550  18.154  0.00  0.00    +0.000 A 
ATOM      7  C   UNL     1       4.218   4.412  19.153  0.00  0.00    +0.000 A 
ATOM      8  C   UNL     1       2.911   4.046  18.832  0.00  0.00    +0.000 A 
ATOM      9  C   UNL     1       2.571   3.805  17.509  0.00  0.00    +0.000 A 
ATOM     10  C   UNL     1       3.537   3.932  16.512  0.00  0.00    +0.000 A 
ATOM     11  C   UNL     1       4.873   4.323  16.799  0.00  0.00    +0.000 A 
ENDROOT
BRANCH   1  13
ATOM     12  N   UNL     1       6.649   3.869  13.621  0.00  0.00    +0.000 NA
ATOM     13  C   UNL     1       5.733   4.356  14.392  0.00  0.00    +0.000 C 
BRANCH  12  14
ATOM     14  N   UNL     1       6.368   3.823  12.290  0.00  0.00    +0.000 N 
ATOM     15  H   UNL     1       6.802   4.473  11.641  0.00  0.00    +0.000 HD
BRANCH  14  16
ATOM     16  C   UNL     1       5.523   2.863  11.801  0.00  0.00    +0.000 C 
ATOM     17  S   UNL     1       3.982   3.202  11.292  0.00  0.00    +0.000 S 
BRANCH  16  18
ATOM     18  N   UNL     1       6.039   1.610  11.746  0.00  0.00    +0.000 N 
ATOM     19  H   UNL     1       6.657   1.331  10.998  0.00  0.00    +0.000 HD
ATOM     20  H   UNL     1       5.590   0.912  12.326  0.00  0.00    +0.000 HD
ENDBRANCH  16  18
ENDBRANCH  14  16
ENDBRANCH  12  14
ENDBRANCH   1  13
TORSDOF 4
ENDMDL
MODEL 9
REMARK VINA RESULT:      -6.3      1.664      2.831
REMARK  Name = 
REMARK  4 active torsions:
REMARK  status: ('A' for Active; 'I' for Inactive)
REMARK    1  A    between atoms: N_1  and  C_2
REMARK    2  A    between atoms: C_2  and  N_4
REMARK    3  A    between atoms: N_4  and  N_5
REMARK    4  A    between atoms: C_6  and  C_7
REMARK                            x       y       z     vdW  Elec       q    Type
REMARK                         _______ _______ _______ _____ _____    ______ ____
ROOT
ATOM      1  C   UNL     1       3.474   3.474  18.191  0.00  0.00    +0.000 A 
ATOM      2  N   UNL     1       3.119   2.181  18.429  0.00  0.00    +0.000 NA
ATOM      3  C   UNL     1       2.225   1.979  19.422  0.00  0.00    +0.000 A 
ATOM      4  C   UNL     1       1.660   2.999  20.165  0.00  0.00    +0.000 A 
ATOM      5  F   UNL     1       0.781   2.697  21.134  0.00  0.00    +0.000 F 
ATOM      6  C   UNL     1       2.004   4.327  19.895  0.00  0.00    +0.000 A 
ATOM      7  C   UNL     1       1.427   5.385  20.625  0.00  0.00    +0.000 A 
ATOM      8  C   UNL     1       1.756   6.713  20.353  0.00  0.00    +0.000 A 
ATOM      9  C   UNL     1       2.660   7.003  19.342  0.00  0.00    +0.000 A 
ATOM     10  C   UNL     1       3.234   5.966  18.609  0.00  0.00    +0.000 A 
ATOM     11  C   UNL     1       2.939   4.601  18.872  0.00  0.00    +0.000 A 
ENDROOT
BRANCH   1  13
ATOM     12  N   UNL     1       5.695   4.050  17.384  0.00  0.00    +0.000 NA
ATOM     13  C   UNL     1       4.516   3.581  17.138  0.00  0.00    +0.000 C 
BRANCH  12  14
ATOM     14  N   UNL     1       6.556   4.125  16.333  0.00  0.00    +0.000 N 
ATOM     15  H   UNL     1       7.469   3.683  16.371  0.00  0.00    +0.000 HD
BRANCH  14  16
ATOM     16  C   UNL     1       6.180   4.769  15.184  0.00  0.00    +0.000 C 
ATOM     17  S   UNL     1       6.122   4.009  13.711  0.00  0.00    +0.000 S 
BRANCH  16  18
ATOM     18  N   UNL     1       5.842   6.074  15.334  0.00  0.00    +0.000 N 
ATOM     19  H   UNL     1       6.531   6.766  15.589  0.00  0.00    +0.000 HD
ATOM     20  H   UNL     1       4.855   6.275  15.429  0.00  0.00    +0.000 HD
ENDBRANCH  16  18
ENDBRANCH  14  16
ENDBRANCH  12  14
ENDBRANCH   1  13
TORSDOF 4
ENDMDL
