MODEL 1
REMARK VINA RESULT:      -7.9      0.000      0.000
REMARK  Name = 
REMARK  7 active torsions:
REMARK  status: ('A' for Active; 'I' for Inactive)
REMARK    1  A    between atoms: C_1  and  C_2
REMARK    2  A    between atoms: N_7  and  C_8
REMARK    3  A    between atoms: C_8  and  N_10
REMARK    4  A    between atoms: N_13  and  C_14
REMARK    5  A    between atoms: C_18  and  N_19
REMARK    6  A    between atoms: N_19  and  C_20
REMARK    7  A    between atoms: N_19  and  C_21
REMARK                            x       y       z     vdW  Elec       q    Type
REMARK                         _______ _______ _______ _____ _____    ______ ____
ROOT
ATOM      1  N   UNL     1       2.582   5.644  19.222  0.00  0.00    +0.000 N 
ATOM      2  C   UNL     1       1.745   6.071  20.355  0.00  0.00    +0.000 C 
ATOM      3  C   UNL     1       1.923   7.559  20.702  0.00  0.00    +0.000 C 
ATOM      4  N   UNL     1       1.701   8.384  19.503  0.00  0.00    +0.000 N 
ATOM      5  C   UNL     1       2.527   8.011  18.340  0.00  0.00    +0.000 C 
ATOM      6  C   UNL     1       2.409   6.506  18.031  0.00  0.00    +0.000 C 
ENDROOT
BRANCH   4   7
ATOM      7  C   UNL     1       0.747   9.386  19.471  0.00  0.00    +0.000 A 
ATOM      8  C   UNL     1       0.233   9.871  18.265  0.00  0.00    +0.000 A 
ATOM      9  C   UNL     1      -0.739  10.870  18.242  0.00  0.00    +0.000 A 
ATOM     10  C   UNL     1      -1.221  11.405  19.436  0.00  0.00    +0.000 A 
ATOM     11  C   UNL     1      -0.752  10.979  20.684  0.00  0.00    +0.000 A 
ATOM     12  C   UNL     1       0.233   9.968  20.656  0.00  0.00    +0.000 A 
BRANCH  11  13
ATOM     13  N   UNL     1      -1.264  11.501  21.867  0.00  0.00    +0.000 N 
ATOM     14  C   UNL     1      -1.106  10.794  23.136  0.00  0.00    +0.000 C 
ATOM     15  C   UNL     1      -2.242  12.585  21.900  0.00  0.00    +0.000 C 
ENDBRANCH  11  13
ENDBRANCH   4   7
BRANCH   1  16
ATOM     16  C   UNL     1       2.859   4.261  19.082  0.00  0.00    +0.000 C 
ATOM     17  S   UNL     1       1.649   3.130  18.781  0.00  0.00    +0.000 S 
BRANCH  16  24
ATOM     18  C   UNL     1       5.790   4.140  14.466  0.00  0.00    +0.000 C 
ATOM     19  C   UNL     1       6.060   4.278  15.928  0.00  0.00    +0.000 A 
ATOM     20  C   UNL     1       7.311   4.633  16.433  0.00  0.00    +0.000 A 
ATOM     21  C   UNL     1       7.453   4.711  17.812  0.00  0.00    +0.000 A 
ATOM     22  N   UNL     1       6.455   4.480  18.696  0.00  0.00    +0.000 NA
ATOM     23  C   UNL     1       5.235   4.197  18.193  0.00  0.00    +0.000 A 
ATOM     24  N   UNL     1       4.226   4.011  19.151  0.00  0.00    +0.000 N 
ATOM     25  C   UNL     1       5.023   4.048  16.833  0.00  0.00    +0.000 A 
ATOM     26  H   UNL     1       4.608   3.993  20.088  0.00  0.00    +0.000 HD
ENDBRANCH  16  24
ENDBRANCH   1  16
TORSDOF 4
ENDMDL
MODEL 2
REMARK VINA RESULT:      -7.6      1.189      2.106
REMARK  Name = 
REMARK  7 active torsions:
REMARK  status: ('A' for Active; 'I' for Inactive)
REMARK    1  A    between atoms: C_1  and  C_2
REMARK    2  A    between atoms: N_7  and  C_8
REMARK    3  A    between atoms: C_8  and  N_10
REMARK    4  A    between atoms: N_13  and  C_14
REMARK    5  A    between atoms: C_18  and  N_19
REMARK    6  A    between atoms: N_19  and  C_20
REMARK    7  A    between atoms: N_19  and  C_21
REMARK                            x       y       z     vdW  Elec       q    Type
REMARK                         _______ _______ _______ _____ _____    ______ ____
ROOT
ATOM      1  N   UNL     1       2.457   5.788  19.211  0.00  0.00    +0.000 N 
ATOM      2  C   UNL     1       1.697   6.192  20.405  0.00  0.00    +0.000 C 
ATOM      3  C   UNL     1       1.916   7.667  20.781  0.00  0.00    +0.000 C 
ATOM      4  N   UNL     1       1.632   8.529  19.622  0.00  0.00    +0.000 N 
ATOM      5  C   UNL     1       2.380   8.180  18.401  0.00  0.00    +0.000 C 
ATOM      6  C   UNL     1       2.224   6.686  18.058  0.00  0.00    +0.000 C 
ENDROOT
BRANCH   4   7
ATOM      7  C   UNL     1       0.691   9.542  19.677  0.00  0.00    +0.000 A 
ATOM      8  C   UNL     1       0.701  10.499  20.696  0.00  0.00    +0.000 A 
ATOM      9  C   UNL     1      -0.240  11.526  20.735  0.00  0.00    +0.000 A 
ATOM     10  C   UNL     1      -1.216  11.618  19.745  0.00  0.00    +0.000 A 
ATOM     11  C   UNL     1      -1.298  10.697  18.694  0.00  0.00    +0.000 A 
ATOM     12  C   UNL     1      -0.326   9.673  18.700  0.00  0.00    +0.000 A 
BRANCH  11  13
ATOM     13  N   UNL     1      -2.260  10.819  17.697  0.00  0.00    +0.000 N 
ATOM     14  C   UNL     1      -3.513  11.532  17.938  0.00  0.00    +0.000 C 
ATOM     15  C   UNL     1      -2.254  10.009  16.482  0.00  0.00    +0.000 C 
ENDBRANCH  11  13
ENDBRANCH   4   7
BRANCH   1  16
ATOM     16  C   UNL     1       2.707   4.407  19.015  0.00  0.00    +0.000 C 
ATOM     17  S   UNL     1       1.482   3.321  18.622  0.00  0.00    +0.000 S 
BRANCH  16  24
ATOM     18  C   UNL     1       5.740   4.180  14.470  0.00  0.00    +0.000 C 
ATOM     19  C   UNL     1       5.979   4.318  15.938  0.00  0.00    +0.000 A 
ATOM     20  C   UNL     1       7.228   4.642  16.470  0.00  0.00    +0.000 A 
ATOM     21  C   UNL     1       7.339   4.723  17.852  0.00  0.00    +0.000 A 
ATOM     22  N   UNL     1       6.315   4.525  18.713  0.00  0.00    +0.000 NA
ATOM     23  C   UNL     1       5.100   4.273  18.182  0.00  0.00    +0.000 A 
ATOM     24  N   UNL     1       4.065   4.120  19.118  0.00  0.00    +0.000 N 
ATOM     25  C   UNL     1       4.916   4.121  16.818  0.00  0.00    +0.000 A 
ATOM     26  H   UNL     1       4.424   4.097  20.064  0.00  0.00    +0.000 HD
ENDBRANCH  16  24
ENDBRANCH   1  16
TORSDOF 4
ENDMDL
MODEL 3
REMARK VINA RESULT:      -7.6      1.783      2.491
REMARK  Name = 
REMARK  7 active torsions:
REMARK  status: ('A' for Active; 'I' for Inactive)
REMARK    1  A    between atoms: C_1  and  C_2
REMARK    2  A    between atoms: N_7  and  C_8
REMARK    3  A    between atoms: C_8  and  N_10
REMARK    4  A    between atoms: N_13  and  C_14
REMARK    5  A    between atoms: C_18  and  N_19
REMARK    6  A    between atoms: N_19  and  C_20
REMARK    7  A    between atoms: N_19  and  C_21
REMARK                            x       y       z     vdW  Elec       q    Type
REMARK                         _______ _______ _______ _____ _____    ______ ____
ROOT
ATOM      1  N   UNL     1       2.415   6.513  19.409  0.00  0.00    +0.000 N 
ATOM      2  C   UNL     1       1.519   7.151  20.387  0.00  0.00    +0.000 C 
ATOM      3  C   UNL     1       1.672   8.680  20.429  0.00  0.00    +0.000 C 
ATOM      4  N   UNL     1       1.508   9.239  19.077  0.00  0.00    +0.000 N 
ATOM      5  C   UNL     1       2.395   8.648  18.058  0.00  0.00    +0.000 C 
ATOM      6  C   UNL     1       2.301   7.111  18.059  0.00  0.00    +0.000 C 
ENDROOT
BRANCH   4   7
ATOM      7  C   UNL     1       0.554  10.199  18.792  0.00  0.00    +0.000 A 
ATOM      8  C   UNL     1       0.722  11.535  19.167  0.00  0.00    +0.000 A 
ATOM      9  C   UNL     1      -0.238  12.499  18.861  0.00  0.00    +0.000 A 
ATOM     10  C   UNL     1      -1.393  12.141  18.168  0.00  0.00    +0.000 A 
ATOM     11  C   UNL     1      -1.639  10.824  17.764  0.00  0.00    +0.000 A 
ATOM     12  C   UNL     1      -0.640   9.884  18.098  0.00  0.00    +0.000 A 
BRANCH  11  13
ATOM     13  N   UNL     1      -2.783  10.488  17.047  0.00  0.00    +0.000 N 
ATOM     14  C   UNL     1      -2.723  10.219  15.611  0.00  0.00    +0.000 C 
ATOM     15  C   UNL     1      -4.133  10.685  17.565  0.00  0.00    +0.000 C 
ENDBRANCH  11  13
ENDBRANCH   4   7
BRANCH   1  16
ATOM     16  C   UNL     1       2.705   5.136  19.569  0.00  0.00    +0.000 C 
ATOM     17  S   UNL     1       1.535   3.942  19.363  0.00  0.00    +0.000 S 
BRANCH  16  24
ATOM     18  C   UNL     1       6.079   3.910  15.444  0.00  0.00    +0.000 C 
ATOM     19  C   UNL     1       6.204   4.412  16.844  0.00  0.00    +0.000 A 
ATOM     20  C   UNL     1       7.402   4.902  17.365  0.00  0.00    +0.000 A 
ATOM     21  C   UNL     1       7.406   5.324  18.688  0.00  0.00    +0.000 A 
ATOM     22  N   UNL     1       6.323   5.306  19.498  0.00  0.00    +0.000 NA
ATOM     23  C   UNL     1       5.157   4.888  18.964  0.00  0.00    +0.000 A 
ATOM     24  N   UNL     1       4.056   4.932  19.834  0.00  0.00    +0.000 N 
ATOM     25  C   UNL     1       5.080   4.400  17.670  0.00  0.00    +0.000 A 
ATOM     26  H   UNL     1       4.342   5.155  20.779  0.00  0.00    +0.000 HD
ENDBRANCH  16  24
ENDBRANCH   1  16
TORSDOF 4
ENDMDL
MODEL 4
REMARK VINA RESULT:      -7.5      3.114      9.096
REMARK  Name = 
REMARK  7 active torsions:
REMARK  status: ('A' for Active; 'I' for Inactive)
REMARK    1  A    between atoms: C_1  and  C_2
REMARK    2  A    between atoms: N_7  and  C_8
REMARK    3  A    between atoms: C_8  and  N_10
REMARK    4  A    between atoms: N_13  and  C_14
REMARK    5  A    between atoms: C_18  and  N_19
REMARK    6  A    between atoms: N_19  and  C_20
REMARK    7  A    between atoms: N_19  and  C_21
REMARK                            x       y       z     vdW  Elec       q    Type
REMARK                         _______ _______ _______ _____ _____    ______ ____
ROOT
ATOM      1  N   UNL     1       0.810   9.892  18.893  0.00  0.00    +0.000 N 
ATOM      2  C   UNL     1       1.340   8.951  17.892  0.00  0.00    +0.000 C 
ATOM      3  C   UNL     1       2.528   8.128  18.416  0.00  0.00    +0.000 C 
ATOM      4  N   UNL     1       2.157   7.454  19.671  0.00  0.00    +0.000 N 
ATOM      5  C   UNL     1       1.635   8.352  20.718  0.00  0.00    +0.000 C 
ATOM      6  C   UNL     1       0.491   9.232  20.179  0.00  0.00    +0.000 C 
ENDROOT
BRANCH   4   7
ATOM      7  C   UNL     1       2.243   6.081  19.818  0.00  0.00    +0.000 A 
ATOM      8  C   UNL     1       1.687   5.424  20.919  0.00  0.00    +0.000 A 
ATOM      9  C   UNL     1       1.764   4.039  21.051  0.00  0.00    +0.000 A 
ATOM     10  C   UNL     1       2.404   3.277  20.075  0.00  0.00    +0.000 A 
ATOM     11  C   UNL     1       2.993   3.859  18.946  0.00  0.00    +0.000 A 
ATOM     12  C   UNL     1       2.891   5.265  18.858  0.00  0.00    +0.000 A 
BRANCH  11  13
ATOM     13  N   UNL     1       3.601   3.084  17.965  0.00  0.00    +0.000 N 
ATOM     14  C   UNL     1       3.593   1.624  18.042  0.00  0.00    +0.000 C 
ATOM     15  C   UNL     1       4.541   3.628  16.990  0.00  0.00    +0.000 C 
ENDBRANCH  11  13
ENDBRANCH   4   7
BRANCH   1  16
ATOM     16  C   UNL     1       0.045  10.992  18.434  0.00  0.00    +0.000 C 
ATOM     17  S   UNL     1       0.364  12.572  18.921  0.00  0.00    +0.000 S 
BRANCH  16  24
ATOM     18  C   UNL     1      -5.231  12.059  19.403  0.00  0.00    +0.000 C 
ATOM     19  C   UNL     1      -4.389  11.688  18.226  0.00  0.00    +0.000 A 
ATOM     20  C   UNL     1      -4.868  11.728  16.915  0.00  0.00    +0.000 A 
ATOM     21  C   UNL     1      -4.002  11.341  15.901  0.00  0.00    +0.000 A 
ATOM     22  N   UNL     1      -2.724  10.944  16.098  0.00  0.00    +0.000 NA
ATOM     23  C   UNL     1      -2.256  10.969  17.363  0.00  0.00    +0.000 A 
ATOM     24  N   UNL     1      -0.911  10.591  17.506  0.00  0.00    +0.000 N 
ATOM     25  C   UNL     1      -3.070  11.289  18.436  0.00  0.00    +0.000 A 
ATOM     26  H   UNL     1      -0.536  10.232  16.637  0.00  0.00    +0.000 HD
ENDBRANCH  16  24
ENDBRANCH   1  16
TORSDOF 4
ENDMDL
MODEL 5
REMARK VINA RESULT:      -7.5      1.053      1.955
REMARK  Name = 
REMARK  7 active torsions:
REMARK  status: ('A' for Active; 'I' for Inactive)
REMARK    1  A    between atoms: C_1  and  C_2
REMARK    2  A    between atoms: N_7  and  C_8
REMARK    3  A    between atoms: C_8  and  N_10
REMARK    4  A    between atoms: N_13  and  C_14
REMARK    5  A    between atoms: C_18  and  N_19
REMARK    6  A    between atoms: N_19  and  C_20
REMARK    7  A    between atoms: N_19  and  C_21
REMARK                            x       y       z     vdW  Elec       q    Type
REMARK                         _______ _______ _______ _____ _____    ______ ____
ROOT
ATOM      1  N   UNL     1       2.508   5.546  19.239  0.00  0.00    +0.000 N 
ATOM      2  C   UNL     1       1.808   5.806  20.508  0.00  0.00    +0.000 C 
ATOM      3  C   UNL     1       2.052   7.226  21.045  0.00  0.00    +0.000 C 
ATOM      4  N   UNL     1       1.718   8.219  20.012  0.00  0.00    +0.000 N 
ATOM      5  C   UNL     1       2.405   8.018  18.722  0.00  0.00    +0.000 C 
ATOM      6  C   UNL     1       2.224   6.575  18.213  0.00  0.00    +0.000 C 
ENDROOT
BRANCH   4   7
ATOM      7  C   UNL     1       0.787   9.219  20.231  0.00  0.00    +0.000 A 
ATOM      8  C   UNL     1       0.276   9.479  21.506  0.00  0.00    +0.000 A 
ATOM      9  C   UNL     1      -0.649  10.499  21.721  0.00  0.00    +0.000 A 
ATOM     10  C   UNL     1      -1.083  11.286  20.656  0.00  0.00    +0.000 A 
ATOM     11  C   UNL     1      -0.625  11.085  19.349  0.00  0.00    +0.000 A 
ATOM     12  C   UNL     1       0.309  10.040  19.181  0.00  0.00    +0.000 A 
BRANCH  11  13
ATOM     13  N   UNL     1      -1.045  11.899  18.302  0.00  0.00    +0.000 N 
ATOM     14  C   UNL     1      -0.571  13.276  18.177  0.00  0.00    +0.000 C 
ATOM     15  C   UNL     1      -2.192  11.580  17.457  0.00  0.00    +0.000 C 
ENDBRANCH  11  13
ENDBRANCH   4   7
BRANCH   1  16
ATOM     16  C   UNL     1       2.739   4.199  18.869  0.00  0.00    +0.000 C 
ATOM     17  S   UNL     1       1.496   3.178  18.372  0.00  0.00    +0.000 S 
BRANCH  16  24
ATOM     18  C   UNL     1       5.629   4.309  14.227  0.00  0.00    +0.000 C 
ATOM     19  C   UNL     1       5.915   4.327  15.692  0.00  0.00    +0.000 A 
ATOM     20  C   UNL     1       7.183   4.595  16.209  0.00  0.00    +0.000 A 
ATOM     21  C   UNL     1       7.338   4.564  17.589  0.00  0.00    +0.000 A 
ATOM     22  N   UNL     1       6.338   4.307  18.463  0.00  0.00    +0.000 NA
ATOM     23  C   UNL     1       5.104   4.109  17.953  0.00  0.00    +0.000 A 
ATOM     24  N   UNL     1       4.097   3.892  18.906  0.00  0.00    +0.000 N 
ATOM     25  C   UNL     1       4.877   4.070  16.588  0.00  0.00    +0.000 A 
ATOM     26  H   UNL     1       4.484   3.790  19.835  0.00  0.00    +0.000 HD
ENDBRANCH  16  24
ENDBRANCH   1  16
TORSDOF 4
ENDMDL
MODEL 6
REMARK VINA RESULT:      -7.4      2.021      3.178
REMARK  Name = 
REMARK  7 active torsions:
REMARK  status: ('A' for Active; 'I' for Inactive)
REMARK    1  A    between atoms: C_1  and  C_2
REMARK    2  A    between atoms: N_7  and  C_8
REMARK    3  A    between atoms: C_8  and  N_10
REMARK    4  A    between atoms: N_13  and  C_14
REMARK    5  A    between atoms: C_18  and  N_19
REMARK    6  A    between atoms: N_19  and  C_20
REMARK    7  A    between atoms: N_19  and  C_21
REMARK                            x       y       z     vdW  Elec       q    Type
REMARK                         _______ _______ _______ _____ _____    ______ ____
ROOT
ATOM      1  N   UNL     1       2.241   7.327  19.282  0.00  0.00    +0.000 N 
ATOM      2  C   UNL     1       1.322   7.603  20.398  0.00  0.00    +0.000 C 
ATOM      3  C   UNL     1       1.154   9.106  20.677  0.00  0.00    +0.000 C 
ATOM      4  N   UNL     1       0.757   9.804  19.444  0.00  0.00    +0.000 N 
ATOM      5  C   UNL     1       1.653   9.578  18.295  0.00  0.00    +0.000 C 
ATOM      6  C   UNL     1       1.883   8.074  18.054  0.00  0.00    +0.000 C 
ENDROOT
BRANCH   4   7
ATOM      7  C   UNL     1      -0.399  10.561  19.372  0.00  0.00    +0.000 A 
ATOM      8  C   UNL     1      -0.793  11.402  20.416  0.00  0.00    +0.000 A 
ATOM      9  C   UNL     1      -1.951  12.173  20.328  0.00  0.00    +0.000 A 
ATOM     10  C   UNL     1      -2.743  12.117  19.183  0.00  0.00    +0.000 A 
ATOM     11  C   UNL     1      -2.422  11.295  18.097  0.00  0.00    +0.000 A 
ATOM     12  C   UNL     1      -1.242  10.532  18.234  0.00  0.00    +0.000 A 
BRANCH  11  13
ATOM     13  N   UNL     1      -3.206  11.273  16.948  0.00  0.00    +0.000 N 
ATOM     14  C   UNL     1      -4.651  11.489  17.015  0.00  0.00    +0.000 C 
ATOM     15  C   UNL     1      -2.738  10.734  15.675  0.00  0.00    +0.000 C 
ENDBRANCH  11  13
ENDBRANCH   4   7
BRANCH   1  16
ATOM     16  C   UNL     1       2.826   6.040  19.202  0.00  0.00    +0.000 C 
ATOM     17  S   UNL     1       2.583   4.868  20.387  0.00  0.00    +0.000 S 
BRANCH  16  24
ATOM     18  C   UNL     1       8.277   5.629  19.366  0.00  0.00    +0.000 C 
ATOM     19  C   UNL     1       7.187   5.318  18.394  0.00  0.00    +0.000 A 
ATOM     20  C   UNL     1       7.404   4.582  17.228  0.00  0.00    +0.000 A 
ATOM     21  C   UNL     1       6.320   4.372  16.386  0.00  0.00    +0.000 A 
ATOM     22  N   UNL     1       5.067   4.819  16.630  0.00  0.00    +0.000 NA
ATOM     23  C   UNL     1       4.858   5.476  17.790  0.00  0.00    +0.000 A 
ATOM     24  N   UNL     1       3.531   5.879  18.013  0.00  0.00    +0.000 N 
ATOM     25  C   UNL     1       5.895   5.774  18.657  0.00  0.00    +0.000 A 
ATOM     26  H   UNL     1       2.956   5.720  17.196  0.00  0.00    +0.000 HD
ENDBRANCH  16  24
ENDBRANCH   1  16
TORSDOF 4
ENDMDL
MODEL 7
REMARK VINA RESULT:      -7.4      3.919      8.732
REMARK  Name = 
REMARK  7 active torsions:
REMARK  status: ('A' for Active; 'I' for Inactive)
REMARK    1  A    between atoms: C_1  and  C_2
REMARK    2  A    between atoms: N_7  and  C_8
REMARK    3  A    between atoms: C_8  and  N_10
REMARK    4  A    between atoms: N_13  and  C_14
REMARK    5  A    between atoms: C_18  and  N_19
REMARK    6  A    between atoms: N_19  and  C_20
REMARK    7  A    between atoms: N_19  and  C_21
REMARK                            x       y       z     vdW  Elec       q    Type
REMARK                         _______ _______ _______ _____ _____    ______ ____
ROOT
ATOM      1  N   UNL     1       3.854   6.289  17.889  0.00  0.00    +0.000 N 
ATOM      2  C   UNL     1       4.883   7.061  17.175  0.00  0.00    +0.000 C 
ATOM      3  C   UNL     1       6.110   6.215  16.796  0.00  0.00    +0.000 C 
ATOM      4  N   UNL     1       5.685   5.024  16.042  0.00  0.00    +0.000 N 
ATOM      5  C   UNL     1       4.665   4.202  16.718  0.00  0.00    +0.000 C 
ATOM      6  C   UNL     1       3.464   5.057  17.166  0.00  0.00    +0.000 C 
ENDROOT
BRANCH   4   7
ATOM      7  C   UNL     1       6.170   4.747  14.776  0.00  0.00    +0.000 A 
ATOM      8  C   UNL     1       7.367   5.300  14.312  0.00  0.00    +0.000 A 
ATOM      9  C   UNL     1       7.858   5.003  13.042  0.00  0.00    +0.000 A 
ATOM     10  C   UNL     1       7.154   4.139  12.205  0.00  0.00    +0.000 A 
ATOM     11  C   UNL     1       5.945   3.550  12.592  0.00  0.00    +0.000 A 
ATOM     12  C   UNL     1       5.488   3.883  13.886  0.00  0.00    +0.000 A 
BRANCH  11  13
ATOM     13  N   UNL     1       5.270   2.665  11.757  0.00  0.00    +0.000 N 
ATOM     14  C   UNL     1       5.923   1.461  11.245  0.00  0.00    +0.000 C 
ATOM     15  C   UNL     1       4.021   3.004  11.083  0.00  0.00    +0.000 C 
ENDBRANCH  11  13
ENDBRANCH   4   7
BRANCH   1  16
ATOM     16  C   UNL     1       2.910   6.999  18.671  0.00  0.00    +0.000 C 
ATOM     17  S   UNL     1       2.125   8.375  18.099  0.00  0.00    +0.000 S 
BRANCH  16  24
ATOM     18  C   UNL     1       0.309   2.189  18.759  0.00  0.00    +0.000 C 
ATOM     19  C   UNL     1       1.179   2.978  19.681  0.00  0.00    +0.000 A 
ATOM     20  C   UNL     1       1.705   2.445  20.860  0.00  0.00    +0.000 A 
ATOM     21  C   UNL     1       2.485   3.278  21.652  0.00  0.00    +0.000 A 
ATOM     22  N   UNL     1       2.780   4.562  21.349  0.00  0.00    +0.000 NA
ATOM     23  C   UNL     1       2.316   5.046  20.177  0.00  0.00    +0.000 A 
ATOM     24  N   UNL     1       2.689   6.368  19.892  0.00  0.00    +0.000 N 
ATOM     25  C   UNL     1       1.487   4.299  19.358  0.00  0.00    +0.000 A 
ATOM     26  H   UNL     1       3.149   6.800  20.682  0.00  0.00    +0.000 HD
ENDBRANCH  16  24
ENDBRANCH   1  16
TORSDOF 4
ENDMDL
MODEL 8
REMARK VINA RESULT:      -7.3      1.671      1.940
REMARK  Name = 
REMARK  7 active torsions:
REMARK  status: ('A' for Active; 'I' for Inactive)
REMARK    1  A    between atoms: C_1  and  C_2
REMARK    2  A    between atoms: N_7  and  C_8
REMARK    3  A    between atoms: C_8  and  N_10
REMARK    4  A    between atoms: N_13  and  C_14
REMARK    5  A    between atoms: C_18  and  N_19
REMARK    6  A    between atoms: N_19  and  C_20
REMARK    7  A    between atoms: N_19  and  C_21
REMARK                            x       y       z     vdW  Elec       q    Type
REMARK                         _______ _______ _______ _____ _____    ______ ____
ROOT
ATOM      1  N   UNL     1       2.456   6.479  19.454  0.00  0.00    +0.000 N 
ATOM      2  C   UNL     1       1.537   7.130  20.402  0.00  0.00    +0.000 C 
ATOM      3  C   UNL     1       1.669   8.662  20.407  0.00  0.00    +0.000 C 
ATOM      4  N   UNL     1       1.518   9.183  19.040  0.00  0.00    +0.000 N 
ATOM      5  C   UNL     1       2.428   8.579  18.048  0.00  0.00    +0.000 C 
ATOM      6  C   UNL     1       2.354   7.041  18.087  0.00  0.00    +0.000 C 
ENDROOT
BRANCH   4   7
ATOM      7  C   UNL     1       0.555  10.123  18.717  0.00  0.00    +0.000 A 
ATOM      8  C   UNL     1      -0.633   9.765  18.074  0.00  0.00    +0.000 A 
ATOM      9  C   UNL     1      -1.605  10.716  17.767  0.00  0.00    +0.000 A 
ATOM     10  C   UNL     1      -1.406  12.054  18.101  0.00  0.00    +0.000 A 
ATOM     11  C   UNL     1      -0.241  12.494  18.740  0.00  0.00    +0.000 A 
ATOM     12  C   UNL     1       0.715  11.496  19.028  0.00  0.00    +0.000 A 
BRANCH  11  13
ATOM     13  N   UNL     1      -0.069  13.828  19.095  0.00  0.00    +0.000 N 
ATOM     14  C   UNL     1       1.192  14.522  18.842  0.00  0.00    +0.000 C 
ATOM     15  C   UNL     1      -0.970  14.531  20.004  0.00  0.00    +0.000 C 
ENDBRANCH  11  13
ENDBRANCH   4   7
BRANCH   1  16
ATOM     16  C   UNL     1       2.761   5.110  19.653  0.00  0.00    +0.000 C 
ATOM     17  S   UNL     1       1.598   3.901  19.514  0.00  0.00    +0.000 S 
BRANCH  16  24
ATOM     18  C   UNL     1       6.076   3.921  15.469  0.00  0.00    +0.000 C 
ATOM     19  C   UNL     1       6.219   4.429  16.866  0.00  0.00    +0.000 A 
ATOM     20  C   UNL     1       7.420   4.937  17.363  0.00  0.00    +0.000 A 
ATOM     21  C   UNL     1       7.443   5.363  18.685  0.00  0.00    +0.000 A 
ATOM     22  N   UNL     1       6.375   5.332  19.515  0.00  0.00    +0.000 NA
ATOM     23  C   UNL     1       5.205   4.895  19.003  0.00  0.00    +0.000 A 
ATOM     24  N   UNL     1       4.120   4.926  19.893  0.00  0.00    +0.000 N 
ATOM     25  C   UNL     1       5.111   4.403  17.713  0.00  0.00    +0.000 A 
ATOM     26  H   UNL     1       4.420   5.156  20.832  0.00  0.00    +0.000 HD
ENDBRANCH  16  24
ENDBRANCH   1  16
TORSDOF 4
ENDMDL
MODEL 9
REMARK VINA RESULT:      -7.1      2.513      9.260
REMARK  Name = 
REMARK  7 active torsions:
REMARK  status: ('A' for Active; 'I' for Inactive)
REMARK    1  A    between atoms: C_1  and  C_2
REMARK    2  A    between atoms: N_7  and  C_8
REMARK    3  A    between atoms: C_8  and  N_10
REMARK    4  A    between atoms: N_13  and  C_14
REMARK    5  A    between atoms: C_18  and  N_19
REMARK    6  A    between atoms: N_19  and  C_20
REMARK    7  A    between atoms: N_19  and  C_21
REMARK                            x       y       z     vdW  Elec       q    Type
REMARK                         _______ _______ _______ _____ _____    ______ ____
ROOT
ATOM      1  N   UNL     1       3.951   5.689  18.037  0.00  0.00    +0.000 N 
ATOM      2  C   UNL     1       4.433   6.693  17.075  0.00  0.00    +0.000 C 
ATOM      3  C   UNL     1       5.851   6.395  16.560  0.00  0.00    +0.000 C 
ATOM      4  N   UNL     1       5.912   5.029  16.016  0.00  0.00    +0.000 N 
ATOM      5  C   UNL     1       5.456   3.978  16.945  0.00  0.00    +0.000 C 
ATOM      6  C   UNL     1       4.065   4.306  17.521  0.00  0.00    +0.000 C 
ENDROOT
BRANCH   4   7
ATOM      7  C   UNL     1       6.310   4.776  14.716  0.00  0.00    +0.000 A 
ATOM      8  C   UNL     1       7.455   5.366  14.171  0.00  0.00    +0.000 A 
ATOM      9  C   UNL     1       7.858   5.093  12.865  0.00  0.00    +0.000 A 
ATOM     10  C   UNL     1       7.119   4.216  12.073  0.00  0.00    +0.000 A 
ATOM     11  C   UNL     1       5.958   3.591  12.541  0.00  0.00    +0.000 A 
ATOM     12  C   UNL     1       5.589   3.900  13.868  0.00  0.00    +0.000 A 
BRANCH  11  13
ATOM     13  N   UNL     1       5.248   2.695  11.749  0.00  0.00    +0.000 N 
ATOM     14  C   UNL     1       5.857   1.450  11.283  0.00  0.00    +0.000 C 
ATOM     15  C   UNL     1       4.005   3.046  11.069  0.00  0.00    +0.000 C 
ENDBRANCH  11  13
ENDBRANCH   4   7
BRANCH   1  16
ATOM     16  C   UNL     1       2.894   6.052  18.907  0.00  0.00    +0.000 C 
ATOM     17  S   UNL     1       2.615   5.255  20.364  0.00  0.00    +0.000 S 
BRANCH  16  24
ATOM     18  C   UNL     1       0.443   9.411  22.460  0.00  0.00    +0.000 C 
ATOM     19  C   UNL     1       0.883   9.462  21.034  0.00  0.00    +0.000 A 
ATOM     20  C   UNL     1       0.900  10.644  20.292  0.00  0.00    +0.000 A 
ATOM     21  C   UNL     1       1.309  10.569  18.967  0.00  0.00    +0.000 A 
ATOM     22  N   UNL     1       1.707   9.431  18.355  0.00  0.00    +0.000 NA
ATOM     23  C   UNL     1       1.744   8.306  19.100  0.00  0.00    +0.000 A 
ATOM     24  N   UNL     1       2.206   7.164  18.428  0.00  0.00    +0.000 N 
ATOM     25  C   UNL     1       1.301   8.286  20.412  0.00  0.00    +0.000 A 
ATOM     26  H   UNL     1       2.321   7.340  17.438  0.00  0.00    +0.000 HD
ENDBRANCH  16  24
ENDBRANCH   1  16
TORSDOF 4
ENDMDL
