MODEL 1
REMARK VINA RESULT:      -9.6      0.000      0.000
REMARK  Name = 
REMARK  7 active torsions:
REMARK  status: ('A' for Active; 'I' for Inactive)
REMARK    1  A    between atoms: C_1  and  O_2
REMARK    2  A    between atoms: O_2  and  C_3
REMARK    3  A    between atoms: N_10  and  C_11
REMARK    4  A    between atoms: C_14  and  N_15
REMARK    5  A    between atoms: C_16  and  C_18
REMARK    6  A    between atoms: C_30  and  O_31
REMARK    7  A    between atoms: O_31  and  C_32
REMARK                            x       y       z     vdW  Elec       q    Type
REMARK                         _______ _______ _______ _____ _____    ______ ____
ROOT
ATOM      1  C   UNL     1       1.989   7.796  19.612  0.00  0.00    +0.000 A 
ATOM      2  C   UNL     1       1.399   7.595  20.857  0.00  0.00    +0.000 A 
ATOM      3  C   UNL     1       0.471   8.502  21.369  0.00  0.00    +0.000 A 
ATOM      4  C   UNL     1       0.126   9.657  20.666  0.00  0.00    +0.000 A 
ATOM      5  C   UNL     1       0.664   9.834  19.387  0.00  0.00    +0.000 A 
ATOM      6  C   UNL     1       1.582   8.907  18.862  0.00  0.00    +0.000 A 
ENDROOT
BRANCH   1  14
ATOM      7  C   UNL     1       6.033   4.657  15.798  0.00  0.00    +0.000 A 
ATOM      8  C   UNL     1       4.914   3.845  16.070  0.00  0.00    +0.000 A 
ATOM      9  C   UNL     1       3.917   4.202  16.968  0.00  0.00    +0.000 A 
ATOM     10  N   UNL     1       2.854   3.402  17.106  0.00  0.00    +0.000 NA
ATOM     11  C   UNL     1       1.883   3.829  17.922  0.00  0.00    +0.000 A 
ATOM     12  N   UNL     1       1.876   4.975  18.604  0.00  0.00    +0.000 NA
ATOM     13  C   UNL     1       2.970   5.747  18.486  0.00  0.00    +0.000 A 
ATOM     14  N   UNL     1       3.037   6.950  19.218  0.00  0.00    +0.000 N 
ATOM     15  C   UNL     1       4.055   5.397  17.664  0.00  0.00    +0.000 A 
ATOM     16  C   UNL     1       5.217   6.181  17.465  0.00  0.00    +0.000 A 
ATOM     17  C   UNL     1       6.205   5.834  16.532  0.00  0.00    +0.000 A 
ATOM     18  H   UNL     1       3.815   6.928  19.866  0.00  0.00    +0.000 HD
BRANCH   7  20
ATOM     19  C   UNL     1       6.399   3.978  13.559  0.00  0.00    +0.000 C 
ATOM     20  O   UNL     1       6.948   4.303  14.840  0.00  0.00    +0.000 OA
ENDBRANCH   7  20
BRANCH  17  21
ATOM     21  O   UNL     1       7.180   6.785  16.482  0.00  0.00    +0.000 OA
ATOM     22  C   UNL     1       7.573   7.532  17.617  0.00  0.00    +0.000 C 
ENDBRANCH  17  21
ENDBRANCH   1  14
BRANCH   4  23
ATOM     23  N   UNL     1      -0.705  10.670  21.205  0.00  0.00    +0.000 N 
ATOM     24  C   UNL     1      -0.747  11.054  22.534  0.00  0.00    +0.000 C 
ATOM     25  O   UNL     1      -0.126  10.530  23.454  0.00  0.00    +0.000 OA
ATOM     26  H   UNL     1      -1.282  11.177  20.544  0.00  0.00    +0.000 HD
BRANCH  24  27
ATOM     27  C   UNL     1      -1.574  12.232  22.916  0.00  0.00    +0.000 A 
ATOM     28  C   UNL     1      -2.816  11.907  23.502  0.00  0.00    +0.000 A 
ATOM     29  C   UNL     1      -3.744  12.896  23.789  0.00  0.00    +0.000 A 
ATOM     30  F   UNL     1      -4.928  12.558  24.316  0.00  0.00    +0.000 F 
ATOM     31  C   UNL     1      -3.467  14.225  23.517  0.00  0.00    +0.000 A 
ATOM     32  C   UNL     1      -2.233  14.567  22.958  0.00  0.00    +0.000 A 
ATOM     33  C   UNL     1      -1.282  13.576  22.655  0.00  0.00    +0.000 A 
ATOM     34 BR   UNL     1       0.320  14.178  21.835  0.00  0.00    +0.000 Br
ENDBRANCH  24  27
ENDBRANCH   4  23
TORSDOF 5
ENDMDL
MODEL 2
REMARK VINA RESULT:      -9.1      1.077      1.106
REMARK  Name = 
REMARK  7 active torsions:
REMARK  status: ('A' for Active; 'I' for Inactive)
REMARK    1  A    between atoms: C_1  and  O_2
REMARK    2  A    between atoms: O_2  and  C_3
REMARK    3  A    between atoms: N_10  and  C_11
REMARK    4  A    between atoms: C_14  and  N_15
REMARK    5  A    between atoms: C_16  and  C_18
REMARK    6  A    between atoms: C_30  and  O_31
REMARK    7  A    between atoms: O_31  and  C_32
REMARK                            x       y       z     vdW  Elec       q    Type
REMARK                         _______ _______ _______ _____ _____    ______ ____
ROOT
ATOM      1  C   UNL     1       2.102   7.926  19.329  0.00  0.00    +0.000 A 
ATOM      2  C   UNL     1       1.542   7.856  20.602  0.00  0.00    +0.000 A 
ATOM      3  C   UNL     1       0.564   8.764  21.008  0.00  0.00    +0.000 A 
ATOM      4  C   UNL     1       0.136   9.791  20.166  0.00  0.00    +0.000 A 
ATOM      5  C   UNL     1       0.645   9.828  18.863  0.00  0.00    +0.000 A 
ATOM      6  C   UNL     1       1.615   8.898  18.447  0.00  0.00    +0.000 A 
ENDROOT
BRANCH   1  14
ATOM      7  C   UNL     1       6.502   4.839  15.883  0.00  0.00    +0.000 A 
ATOM      8  C   UNL     1       5.386   4.002  16.084  0.00  0.00    +0.000 A 
ATOM      9  C   UNL     1       4.314   4.345  16.898  0.00  0.00    +0.000 A 
ATOM     10  N   UNL     1       3.265   3.520  16.968  0.00  0.00    +0.000 NA
ATOM     11  C   UNL     1       2.224   3.933  17.701  0.00  0.00    +0.000 A 
ATOM     12  N   UNL     1       2.137   5.089  18.362  0.00  0.00    +0.000 NA
ATOM     13  C   UNL     1       3.217   5.887  18.314  0.00  0.00    +0.000 A 
ATOM     14  N   UNL     1       3.197   7.102  19.030  0.00  0.00    +0.000 N 
ATOM     15  C   UNL     1       4.370   5.554  17.582  0.00  0.00    +0.000 A 
ATOM     16  C   UNL     1       5.523   6.365  17.459  0.00  0.00    +0.000 A 
ATOM     17  C   UNL     1       6.588   6.030  16.610  0.00  0.00    +0.000 A 
ATOM     18  H   UNL     1       3.925   7.109  19.735  0.00  0.00    +0.000 HD
BRANCH   7  20
ATOM     19  C   UNL     1       7.258   4.857  13.639  0.00  0.00    +0.000 C 
ATOM     20  O   UNL     1       7.495   4.496  15.003  0.00  0.00    +0.000 OA
ENDBRANCH   7  20
BRANCH  17  21
ATOM     21  O   UNL     1       7.539   7.006  16.617  0.00  0.00    +0.000 OA
ATOM     22  C   UNL     1       7.765   7.839  17.738  0.00  0.00    +0.000 C 
ENDBRANCH  17  21
ENDBRANCH   1  14
BRANCH   4  23
ATOM     23  N   UNL     1      -0.753  10.812  20.583  0.00  0.00    +0.000 N 
ATOM     24  C   UNL     1      -0.394  11.962  21.266  0.00  0.00    +0.000 C 
ATOM     25  O   UNL     1       0.731  12.234  21.674  0.00  0.00    +0.000 OA
ATOM     26  H   UNL     1      -1.724  10.700  20.315  0.00  0.00    +0.000 HD
BRANCH  24  27
ATOM     27  C   UNL     1      -1.428  13.005  21.508  0.00  0.00    +0.000 A 
ATOM     28  C   UNL     1      -2.386  12.661  22.485  0.00  0.00    +0.000 A 
ATOM     29  C   UNL     1      -3.480  13.478  22.724  0.00  0.00    +0.000 A 
ATOM     30  F   UNL     1      -4.391  13.114  23.635  0.00  0.00    +0.000 F 
ATOM     31  C   UNL     1      -3.650  14.656  22.015  0.00  0.00    +0.000 A 
ATOM     32  C   UNL     1      -2.699  15.024  21.060  0.00  0.00    +0.000 A 
ATOM     33  C   UNL     1      -1.586  14.204  20.801  0.00  0.00    +0.000 A 
ATOM     34 BR   UNL     1      -0.415  14.792  19.429  0.00  0.00    +0.000 Br
ENDBRANCH  24  27
ENDBRANCH   4  23
TORSDOF 5
ENDMDL
MODEL 3
REMARK VINA RESULT:      -8.8      2.685      2.877
REMARK  Name = 
REMARK  7 active torsions:
REMARK  status: ('A' for Active; 'I' for Inactive)
REMARK    1  A    between atoms: C_1  and  O_2
REMARK    2  A    between atoms: O_2  and  C_3
REMARK    3  A    between atoms: N_10  and  C_11
REMARK    4  A    between atoms: C_14  and  N_15
REMARK    5  A    between atoms: C_16  and  C_18
REMARK    6  A    between atoms: C_30  and  O_31
REMARK    7  A    between atoms: O_31  and  C_32
REMARK                            x       y       z     vdW  Elec       q    Type
REMARK                         _______ _______ _______ _____ _____    ______ ____
ROOT
ATOM      1  C   UNL     1       2.085   8.330  19.083  0.00  0.00    +0.000 A 
ATOM      2  C   UNL     1       1.521   8.981  17.989  0.00  0.00    +0.000 A 
ATOM      3  C   UNL     1       0.349   9.726  18.121  0.00  0.00    +0.000 A 
ATOM      4  C   UNL     1      -0.314   9.820  19.346  0.00  0.00    +0.000 A 
ATOM      5  C   UNL     1       0.282   9.225  20.463  0.00  0.00    +0.000 A 
ATOM      6  C   UNL     1       1.476   8.492  20.333  0.00  0.00    +0.000 A 
ENDROOT
BRANCH   1  14
ATOM      7  C   UNL     1       6.468   4.899  15.957  0.00  0.00    +0.000 A 
ATOM      8  C   UNL     1       5.326   4.107  16.189  0.00  0.00    +0.000 A 
ATOM      9  C   UNL     1       4.248   4.533  16.953  0.00  0.00    +0.000 A 
ATOM     10  N   UNL     1       3.174   3.743  17.056  0.00  0.00    +0.000 NA
ATOM     11  C   UNL     1       2.130   4.233  17.735  0.00  0.00    +0.000 A 
ATOM     12  N   UNL     1       2.061   5.433  18.313  0.00  0.00    +0.000 NA
ATOM     13  C   UNL     1       3.164   6.198  18.235  0.00  0.00    +0.000 A 
ATOM     14  N   UNL     1       3.163   7.459  18.865  0.00  0.00    +0.000 N 
ATOM     15  C   UNL     1       4.322   5.785  17.554  0.00  0.00    +0.000 A 
ATOM     16  C   UNL     1       5.500   6.555  17.402  0.00  0.00    +0.000 A 
ATOM     17  C   UNL     1       6.573   6.134  16.602  0.00  0.00    +0.000 A 
ATOM     18  H   UNL     1       3.876   7.496  19.584  0.00  0.00    +0.000 HD
BRANCH   7  20
ATOM     19  C   UNL     1       7.265   4.730  13.733  0.00  0.00    +0.000 C 
ATOM     20  O   UNL     1       7.470   4.469  15.125  0.00  0.00    +0.000 OA
ENDBRANCH   7  20
BRANCH  17  21
ATOM     21  O   UNL     1       7.550   7.083  16.564  0.00  0.00    +0.000 OA
ATOM     22  C   UNL     1       7.840   7.920  17.667  0.00  0.00    +0.000 C 
ENDBRANCH  17  21
ENDBRANCH   1  14
BRANCH   4  23
ATOM     23  N   UNL     1      -1.573  10.451  19.496  0.00  0.00    +0.000 N 
ATOM     24  C   UNL     1      -1.857  11.768  19.177  0.00  0.00    +0.000 C 
ATOM     25  O   UNL     1      -1.047  12.603  18.787  0.00  0.00    +0.000 OA
ATOM     26  H   UNL     1      -2.333   9.866  19.824  0.00  0.00    +0.000 HD
BRANCH  24  27
ATOM     27  C   UNL     1      -3.267  12.240  19.262  0.00  0.00    +0.000 A 
ATOM     28  C   UNL     1      -3.578  12.937  20.448  0.00  0.00    +0.000 A 
ATOM     29  C   UNL     1      -4.881  13.323  20.723  0.00  0.00    +0.000 A 
ATOM     30  F   UNL     1      -5.155  13.956  21.870  0.00  0.00    +0.000 F 
ATOM     31  C   UNL     1      -5.903  13.041  19.832  0.00  0.00    +0.000 A 
ATOM     32  C   UNL     1      -5.609  12.371  18.641  0.00  0.00    +0.000 A 
ATOM     33  C   UNL     1      -4.294  11.968  18.350  0.00  0.00    +0.000 A 
ATOM     34 BR   UNL     1      -4.053  11.006  16.732  0.00  0.00    +0.000 Br
ENDBRANCH  24  27
ENDBRANCH   4  23
TORSDOF 5
ENDMDL
MODEL 4
REMARK VINA RESULT:      -8.8      1.865      2.128
REMARK  Name = 
REMARK  7 active torsions:
REMARK  status: ('A' for Active; 'I' for Inactive)
REMARK    1  A    between atoms: C_1  and  O_2
REMARK    2  A    between atoms: O_2  and  C_3
REMARK    3  A    between atoms: N_10  and  C_11
REMARK    4  A    between atoms: C_14  and  N_15
REMARK    5  A    between atoms: C_16  and  C_18
REMARK    6  A    between atoms: C_30  and  O_31
REMARK    7  A    between atoms: O_31  and  C_32
REMARK                            x       y       z     vdW  Elec       q    Type
REMARK                         _______ _______ _______ _____ _____    ______ ____
ROOT
ATOM      1  C   UNL     1       1.962   8.227  19.184  0.00  0.00    +0.000 A 
ATOM      2  C   UNL     1       1.416   8.292  20.464  0.00  0.00    +0.000 A 
ATOM      3  C   UNL     1       0.461   9.255  20.791  0.00  0.00    +0.000 A 
ATOM      4  C   UNL     1       0.042  10.204  19.857  0.00  0.00    +0.000 A 
ATOM      5  C   UNL     1       0.535  10.105  18.552  0.00  0.00    +0.000 A 
ATOM      6  C   UNL     1       1.482   9.119  18.217  0.00  0.00    +0.000 A 
ENDROOT
BRANCH   1  14
ATOM      7  C   UNL     1       6.367   4.867  16.012  0.00  0.00    +0.000 A 
ATOM      8  C   UNL     1       5.216   4.077  16.202  0.00  0.00    +0.000 A 
ATOM      9  C   UNL     1       4.130   4.486  16.964  0.00  0.00    +0.000 A 
ATOM     10  N   UNL     1       3.050   3.700  17.026  0.00  0.00    +0.000 NA
ATOM     11  C   UNL     1       1.999   4.175  17.705  0.00  0.00    +0.000 A 
ATOM     12  N   UNL     1       1.930   5.357  18.321  0.00  0.00    +0.000 NA
ATOM     13  C   UNL     1       3.039   6.116  18.284  0.00  0.00    +0.000 A 
ATOM     14  N   UNL     1       3.037   7.356  18.954  0.00  0.00    +0.000 N 
ATOM     15  C   UNL     1       4.204   5.716  17.606  0.00  0.00    +0.000 A 
ATOM     16  C   UNL     1       5.389   6.483  17.496  0.00  0.00    +0.000 A 
ATOM     17  C   UNL     1       6.470   6.081  16.698  0.00  0.00    +0.000 A 
ATOM     18  H   UNL     1       3.739   7.365  19.684  0.00  0.00    +0.000 HD
BRANCH   7  20
ATOM     19  C   UNL     1       7.217   4.806  13.802  0.00  0.00    +0.000 C 
ATOM     20  O   UNL     1       7.378   4.458  15.181  0.00  0.00    +0.000 OA
ENDBRANCH   7  20
BRANCH  17  21
ATOM     21  O   UNL     1       7.454   7.023  16.705  0.00  0.00    +0.000 OA
ATOM     22  C   UNL     1       7.864   7.686  17.886  0.00  0.00    +0.000 C 
ENDBRANCH  17  21
ENDBRANCH   1  14
BRANCH   4  23
ATOM     23  N   UNL     1      -0.821  11.279  20.183  0.00  0.00    +0.000 N 
ATOM     24  C   UNL     1      -0.524  12.315  21.051  0.00  0.00    +0.000 C 
ATOM     25  O   UNL     1       0.499  12.420  21.722  0.00  0.00    +0.000 OA
ATOM     26  H   UNL     1      -1.712  11.302  19.700  0.00  0.00    +0.000 HD
BRANCH  24  27
ATOM     27  C   UNL     1      -1.487  13.444  21.179  0.00  0.00    +0.000 A 
ATOM     28  C   UNL     1      -1.234  14.527  20.311  0.00  0.00    +0.000 A 
ATOM     29  C   UNL     1      -1.969  15.699  20.407  0.00  0.00    +0.000 A 
ATOM     30  F   UNL     1      -1.688  16.724  19.593  0.00  0.00    +0.000 F 
ATOM     31  C   UNL     1      -2.975  15.826  21.350  0.00  0.00    +0.000 A 
ATOM     32  C   UNL     1      -3.255  14.754  22.202  0.00  0.00    +0.000 A 
ATOM     33  C   UNL     1      -2.515  13.561  22.122  0.00  0.00    +0.000 A 
ATOM     34 BR   UNL     1      -2.956  12.217  23.388  0.00  0.00    +0.000 Br
ENDBRANCH  24  27
ENDBRANCH   4  23
TORSDOF 5
ENDMDL
MODEL 5
REMARK VINA RESULT:      -8.7      2.782      2.957
REMARK  Name = 
REMARK  7 active torsions:
REMARK  status: ('A' for Active; 'I' for Inactive)
REMARK    1  A    between atoms: C_1  and  O_2
REMARK    2  A    between atoms: O_2  and  C_3
REMARK    3  A    between atoms: N_10  and  C_11
REMARK    4  A    between atoms: C_14  and  N_15
REMARK    5  A    between atoms: C_16  and  C_18
REMARK    6  A    between atoms: C_30  and  O_31
REMARK    7  A    between atoms: O_31  and  C_32
REMARK                            x       y       z     vdW  Elec       q    Type
REMARK                         _______ _______ _______ _____ _____    ______ ____
ROOT
ATOM      1  C   UNL     1       2.142   8.252  19.157  0.00  0.00    +0.000 A 
ATOM      2  C   UNL     1       1.601   8.968  18.093  0.00  0.00    +0.000 A 
ATOM      3  C   UNL     1       0.439   9.723  18.252  0.00  0.00    +0.000 A 
ATOM      4  C   UNL     1      -0.237   9.763  19.472  0.00  0.00    +0.000 A 
ATOM      5  C   UNL     1       0.336   9.101  20.563  0.00  0.00    +0.000 A 
ATOM      6  C   UNL     1       1.520   8.357  20.407  0.00  0.00    +0.000 A 
ENDROOT
BRANCH   1  14
ATOM      7  C   UNL     1       6.468   4.871  15.899  0.00  0.00    +0.000 A 
ATOM      8  C   UNL     1       5.318   4.085  16.114  0.00  0.00    +0.000 A 
ATOM      9  C   UNL     1       4.250   4.499  16.898  0.00  0.00    +0.000 A 
ATOM     10  N   UNL     1       3.168   3.717  16.983  0.00  0.00    +0.000 NA
ATOM     11  C   UNL     1       2.134   4.197  17.684  0.00  0.00    +0.000 A 
ATOM     12  N   UNL     1       2.082   5.380  18.299  0.00  0.00    +0.000 NA
ATOM     13  C   UNL     1       3.192   6.135  18.238  0.00  0.00    +0.000 A 
ATOM     14  N   UNL     1       3.209   7.376  18.906  0.00  0.00    +0.000 N 
ATOM     15  C   UNL     1       4.342   5.730  17.536  0.00  0.00    +0.000 A 
ATOM     16  C   UNL     1       5.527   6.493  17.400  0.00  0.00    +0.000 A 
ATOM     17  C   UNL     1       6.590   6.085  16.581  0.00  0.00    +0.000 A 
ATOM     18  H   UNL     1       3.926   7.383  19.621  0.00  0.00    +0.000 HD
BRANCH   7  20
ATOM     19  C   UNL     1       7.197   4.658  13.655  0.00  0.00    +0.000 C 
ATOM     20  O   UNL     1       7.460   4.457  15.048  0.00  0.00    +0.000 OA
ENDBRANCH   7  20
BRANCH  17  21
ATOM     21  O   UNL     1       7.577   7.024  16.566  0.00  0.00    +0.000 OA
ATOM     22  C   UNL     1       7.706   8.009  17.573  0.00  0.00    +0.000 C 
ENDBRANCH  17  21
ENDBRANCH   1  14
BRANCH   4  23
ATOM     23  N   UNL     1      -1.488  10.405  19.641  0.00  0.00    +0.000 N 
ATOM     24  C   UNL     1      -1.854  11.617  19.080  0.00  0.00    +0.000 C 
ATOM     25  O   UNL     1      -1.128  12.348  18.414  0.00  0.00    +0.000 OA
ATOM     26  H   UNL     1      -2.181   9.904  20.186  0.00  0.00    +0.000 HD
BRANCH  24  27
ATOM     27  C   UNL     1      -3.257  12.088  19.240  0.00  0.00    +0.000 A 
ATOM     28  C   UNL     1      -4.118  11.729  18.182  0.00  0.00    +0.000 A 
ATOM     29  C   UNL     1      -5.418  12.207  18.132  0.00  0.00    +0.000 A 
ATOM     30  F   UNL     1      -6.205  11.876  17.101  0.00  0.00    +0.000 F 
ATOM     31  C   UNL     1      -5.903  13.039  19.127  0.00  0.00    +0.000 A 
ATOM     32  C   UNL     1      -5.071  13.386  20.195  0.00  0.00    +0.000 A 
ATOM     33  C   UNL     1      -3.748  12.915  20.258  0.00  0.00    +0.000 A 
ATOM     34 BR   UNL     1      -2.712  13.524  21.727  0.00  0.00    +0.000 Br
ENDBRANCH  24  27
ENDBRANCH   4  23
TORSDOF 5
ENDMDL
MODEL 6
REMARK VINA RESULT:      -8.5      1.075      1.399
REMARK  Name = 
REMARK  7 active torsions:
REMARK  status: ('A' for Active; 'I' for Inactive)
REMARK    1  A    between atoms: C_1  and  O_2
REMARK    2  A    between atoms: O_2  and  C_3
REMARK    3  A    between atoms: N_10  and  C_11
REMARK    4  A    between atoms: C_14  and  N_15
REMARK    5  A    between atoms: C_16  and  C_18
REMARK    6  A    between atoms: C_30  and  O_31
REMARK    7  A    between atoms: O_31  and  C_32
REMARK                            x       y       z     vdW  Elec       q    Type
REMARK                         _______ _______ _______ _____ _____    ______ ____
ROOT
ATOM      1  C   UNL     1       2.280   7.558  19.989  0.00  0.00    +0.000 A 
ATOM      2  C   UNL     1       1.916   8.597  19.137  0.00  0.00    +0.000 A 
ATOM      3  C   UNL     1       0.904   9.492  19.486  0.00  0.00    +0.000 A 
ATOM      4  C   UNL     1       0.202   9.358  20.684  0.00  0.00    +0.000 A 
ATOM      5  C   UNL     1       0.605   8.357  21.574  0.00  0.00    +0.000 A 
ATOM      6  C   UNL     1       1.641   7.469  21.231  0.00  0.00    +0.000 A 
ENDROOT
BRANCH   1  14
ATOM      7  C   UNL     1       5.874   4.195  15.922  0.00  0.00    +0.000 A 
ATOM      8  C   UNL     1       4.621   3.568  16.076  0.00  0.00    +0.000 A 
ATOM      9  C   UNL     1       3.665   3.993  16.988  0.00  0.00    +0.000 A 
ATOM     10  N   UNL     1       2.475   3.383  17.011  0.00  0.00    +0.000 NA
ATOM     11  C   UNL     1       1.560   3.882  17.850  0.00  0.00    +0.000 A 
ATOM     12  N   UNL     1       1.724   4.929  18.660  0.00  0.00    +0.000 NA
ATOM     13  C   UNL     1       2.938   5.505  18.654  0.00  0.00    +0.000 A 
ATOM     14  N   UNL     1       3.181   6.589  19.522  0.00  0.00    +0.000 N 
ATOM     15  C   UNL     1       3.979   5.062  17.820  0.00  0.00    +0.000 A 
ATOM     16  C   UNL     1       5.266   5.646  17.737  0.00  0.00    +0.000 A 
ATOM     17  C   UNL     1       6.217   5.235  16.791  0.00  0.00    +0.000 A 
ATOM     18  H   UNL     1       3.917   6.359  20.178  0.00  0.00    +0.000 HD
BRANCH   7  20
ATOM     19  C   UNL     1       6.269   3.899  13.606  0.00  0.00    +0.000 C 
ATOM     20  O   UNL     1       6.752   3.794  14.949  0.00  0.00    +0.000 OA
ENDBRANCH   7  20
BRANCH  17  21
ATOM     21  O   UNL     1       7.342   6.000  16.871  0.00  0.00    +0.000 OA
ATOM     22  C   UNL     1       7.345   7.290  17.452  0.00  0.00    +0.000 C 
ENDBRANCH  17  21
ENDBRANCH   1  14
BRANCH   4  23
ATOM     23  N   UNL     1      -0.920  10.158  21.016  0.00  0.00    +0.000 N 
ATOM     24  C   UNL     1      -0.943  11.151  21.980  0.00  0.00    +0.000 C 
ATOM     25  O   UNL     1      -0.022  11.437  22.739  0.00  0.00    +0.000 OA
ATOM     26  H   UNL     1      -1.756  10.010  20.463  0.00  0.00    +0.000 HD
BRANCH  24  27
ATOM     27  C   UNL     1      -2.161  11.997  22.110  0.00  0.00    +0.000 A 
ATOM     28  C   UNL     1      -2.719  12.021  23.406  0.00  0.00    +0.000 A 
ATOM     29  C   UNL     1      -3.925  12.661  23.646  0.00  0.00    +0.000 A 
ATOM     30  F   UNL     1      -4.449  12.642  24.878  0.00  0.00    +0.000 F 
ATOM     31  C   UNL     1      -4.601  13.301  22.621  0.00  0.00    +0.000 A 
ATOM     32  C   UNL     1      -4.051  13.308  21.337  0.00  0.00    +0.000 A 
ATOM     33  C   UNL     1      -2.833  12.658  21.074  0.00  0.00    +0.000 A 
ATOM     34 BR   UNL     1      -2.241  12.687  19.271  0.00  0.00    +0.000 Br
ENDBRANCH  24  27
ENDBRANCH   4  23
TORSDOF 5
ENDMDL
MODEL 7
REMARK VINA RESULT:      -8.5      1.359      1.438
REMARK  Name = 
REMARK  7 active torsions:
REMARK  status: ('A' for Active; 'I' for Inactive)
REMARK    1  A    between atoms: C_1  and  O_2
REMARK    2  A    between atoms: O_2  and  C_3
REMARK    3  A    between atoms: N_10  and  C_11
REMARK    4  A    between atoms: C_14  and  N_15
REMARK    5  A    between atoms: C_16  and  C_18
REMARK    6  A    between atoms: C_30  and  O_31
REMARK    7  A    between atoms: O_31  and  C_32
REMARK                            x       y       z     vdW  Elec       q    Type
REMARK                         _______ _______ _______ _____ _____    ______ ____
ROOT
ATOM      1  C   UNL     1       1.969   8.082  19.473  0.00  0.00    +0.000 A 
ATOM      2  C   UNL     1       1.489   8.134  20.779  0.00  0.00    +0.000 A 
ATOM      3  C   UNL     1       0.618   9.144  21.186  0.00  0.00    +0.000 A 
ATOM      4  C   UNL     1       0.222  10.154  20.308  0.00  0.00    +0.000 A 
ATOM      5  C   UNL     1       0.646  10.073  18.978  0.00  0.00    +0.000 A 
ATOM      6  C   UNL     1       1.507   9.040  18.563  0.00  0.00    +0.000 A 
ENDROOT
BRANCH   1  14
ATOM      7  C   UNL     1       5.864   4.436  15.968  0.00  0.00    +0.000 A 
ATOM      8  C   UNL     1       4.698   3.711  16.286  0.00  0.00    +0.000 A 
ATOM      9  C   UNL     1       3.714   4.191  17.140  0.00  0.00    +0.000 A 
ATOM     10  N   UNL     1       2.606   3.465  17.325  0.00  0.00    +0.000 NA
ATOM     11  C   UNL     1       1.654   4.008  18.092  0.00  0.00    +0.000 A 
ATOM     12  N   UNL     1       1.705   5.202  18.684  0.00  0.00    +0.000 NA
ATOM     13  C   UNL     1       2.842   5.900  18.522  0.00  0.00    +0.000 A 
ATOM     14  N   UNL     1       2.970   7.150  19.160  0.00  0.00    +0.000 N 
ATOM     15  C   UNL     1       3.914   5.427  17.744  0.00  0.00    +0.000 A 
ATOM     16  C   UNL     1       5.120   6.127  17.502  0.00  0.00    +0.000 A 
ATOM     17  C   UNL     1       6.096   5.654  16.612  0.00  0.00    +0.000 A 
ATOM     18  H   UNL     1       3.740   7.135  19.818  0.00  0.00    +0.000 HD
BRANCH   7  20
ATOM     19  C   UNL     1       6.370   4.075  13.682  0.00  0.00    +0.000 C 
ATOM     20  O   UNL     1       6.766   3.958  15.052  0.00  0.00    +0.000 OA
ENDBRANCH   7  20
BRANCH  17  21
ATOM     21  O   UNL     1       7.123   6.542  16.502  0.00  0.00    +0.000 OA
ATOM     22  C   UNL     1       7.529   7.372  17.573  0.00  0.00    +0.000 C 
ENDBRANCH  17  21
ENDBRANCH   1  14
BRANCH   4  23
ATOM     23  N   UNL     1      -0.550  11.271  20.714  0.00  0.00    +0.000 N 
ATOM     24  C   UNL     1      -1.124  11.442  21.962  0.00  0.00    +0.000 C 
ATOM     25  O   UNL     1      -1.113  10.624  22.876  0.00  0.00    +0.000 OA
ATOM     26  H   UNL     1      -0.646  12.020  20.038  0.00  0.00    +0.000 HD
BRANCH  24  27
ATOM     27  C   UNL     1      -1.788  12.738  22.275  0.00  0.00    +0.000 A 
ATOM     28  C   UNL     1      -1.267  13.401  23.406  0.00  0.00    +0.000 A 
ATOM     29  C   UNL     1      -1.869  14.551  23.892  0.00  0.00    +0.000 A 
ATOM     30  F   UNL     1      -1.374  15.145  24.986  0.00  0.00    +0.000 F 
ATOM     31  C   UNL     1      -2.988  15.080  23.271  0.00  0.00    +0.000 A 
ATOM     32  C   UNL     1      -3.503  14.449  22.135  0.00  0.00    +0.000 A 
ATOM     33  C   UNL     1      -2.909  13.278  21.633  0.00  0.00    +0.000 A 
ATOM     34 BR   UNL     1      -3.757  12.489  20.129  0.00  0.00    +0.000 Br
ENDBRANCH  24  27
ENDBRANCH   4  23
TORSDOF 5
ENDMDL
MODEL 8
REMARK VINA RESULT:      -8.4      1.635      1.786
REMARK  Name = 
REMARK  7 active torsions:
REMARK  status: ('A' for Active; 'I' for Inactive)
REMARK    1  A    between atoms: C_1  and  O_2
REMARK    2  A    between atoms: O_2  and  C_3
REMARK    3  A    between atoms: N_10  and  C_11
REMARK    4  A    between atoms: C_14  and  N_15
REMARK    5  A    between atoms: C_16  and  C_18
REMARK    6  A    between atoms: C_30  and  O_31
REMARK    7  A    between atoms: O_31  and  C_32
REMARK                            x       y       z     vdW  Elec       q    Type
REMARK                         _______ _______ _______ _____ _____    ______ ____
ROOT
ATOM      1  C   UNL     1       1.547   8.183  20.430  0.00  0.00    +0.000 A 
ATOM      2  C   UNL     1       1.086   8.099  21.741  0.00  0.00    +0.000 A 
ATOM      3  C   UNL     1       0.186   9.036  22.249  0.00  0.00    +0.000 A 
ATOM      4  C   UNL     1      -0.259  10.106  21.471  0.00  0.00    +0.000 A 
ATOM      5  C   UNL     1       0.147  10.161  20.134  0.00  0.00    +0.000 A 
ATOM      6  C   UNL     1       1.037   9.202  19.616  0.00  0.00    +0.000 A 
ENDROOT
BRANCH   1  14
ATOM      7  C   UNL     1       5.114   4.511  16.615  0.00  0.00    +0.000 A 
ATOM      8  C   UNL     1       4.128   3.724  17.242  0.00  0.00    +0.000 A 
ATOM      9  C   UNL     1       3.274   4.212  18.222  0.00  0.00    +0.000 A 
ATOM     10  N   UNL     1       2.319   3.411  18.706  0.00  0.00    +0.000 NA
ATOM     11  C   UNL     1       1.471   3.953  19.588  0.00  0.00    +0.000 A 
ATOM     12  N   UNL     1       1.490   5.213  20.025  0.00  0.00    +0.000 NA
ATOM     13  C   UNL     1       2.481   5.992  19.560  0.00  0.00    +0.000 A 
ATOM     14  N   UNL     1       2.576   7.321  20.021  0.00  0.00    +0.000 N 
ATOM     15  C   UNL     1       3.434   5.529  18.635  0.00  0.00    +0.000 A 
ATOM     16  C   UNL     1       4.477   6.307  18.078  0.00  0.00    +0.000 A 
ATOM     17  C   UNL     1       5.315   5.820  17.064  0.00  0.00    +0.000 A 
ATOM     18  H   UNL     1       3.453   7.467  20.505  0.00  0.00    +0.000 HD
BRANCH   7  20
ATOM     19  C   UNL     1       5.452   4.376  14.275  0.00  0.00    +0.000 C 
ATOM     20  O   UNL     1       5.876   4.009  15.592  0.00  0.00    +0.000 OA
ENDBRANCH   7  20
BRANCH  17  21
ATOM     21  O   UNL     1       6.187   6.782  16.651  0.00  0.00    +0.000 OA
ATOM     22  C   UNL     1       7.371   7.090  17.360  0.00  0.00    +0.000 C 
ENDBRANCH  17  21
ENDBRANCH   1  14
BRANCH   4  23
ATOM     23  N   UNL     1      -1.064  11.152  21.986  0.00  0.00    +0.000 N 
ATOM     24  C   UNL     1      -0.668  12.470  22.140  0.00  0.00    +0.000 C 
ATOM     25  O   UNL     1       0.455  12.913  21.923  0.00  0.00    +0.000 OA
ATOM     26  H   UNL     1      -2.021  10.911  22.217  0.00  0.00    +0.000 HD
BRANCH  24  27
ATOM     27  C   UNL     1      -1.679  13.478  22.565  0.00  0.00    +0.000 A 
ATOM     28  C   UNL     1      -1.373  14.137  23.774  0.00  0.00    +0.000 A 
ATOM     29  C   UNL     1      -2.283  15.006  24.357  0.00  0.00    +0.000 A 
ATOM     30  F   UNL     1      -1.982  15.595  25.521  0.00  0.00    +0.000 F 
ATOM     31  C   UNL     1      -3.507  15.253  23.758  0.00  0.00    +0.000 A 
ATOM     32  C   UNL     1      -3.817  14.627  22.548  0.00  0.00    +0.000 A 
ATOM     33  C   UNL     1      -2.909  13.738  21.946  0.00  0.00    +0.000 A 
ATOM     34 BR   UNL     1      -3.490  12.906  20.343  0.00  0.00    +0.000 Br
ENDBRANCH  24  27
ENDBRANCH   4  23
TORSDOF 5
ENDMDL
MODEL 9
REMARK VINA RESULT:      -8.4      2.388      2.517
REMARK  Name = 
REMARK  7 active torsions:
REMARK  status: ('A' for Active; 'I' for Inactive)
REMARK    1  A    between atoms: C_1  and  O_2
REMARK    2  A    between atoms: O_2  and  C_3
REMARK    3  A    between atoms: N_10  and  C_11
REMARK    4  A    between atoms: C_14  and  N_15
REMARK    5  A    between atoms: C_16  and  C_18
REMARK    6  A    between atoms: C_30  and  O_31
REMARK    7  A    between atoms: O_31  and  C_32
REMARK                            x       y       z     vdW  Elec       q    Type
REMARK                         _______ _______ _______ _____ _____    ______ ____
ROOT
ATOM      1  C   UNL     1       1.994   8.216  19.035  0.00  0.00    +0.000 A 
ATOM      2  C   UNL     1       1.437   8.304  20.307  0.00  0.00    +0.000 A 
ATOM      3  C   UNL     1       0.451   9.247  20.598  0.00  0.00    +0.000 A 
ATOM      4  C   UNL     1       0.012  10.154  19.632  0.00  0.00    +0.000 A 
ATOM      5  C   UNL     1       0.518  10.030  18.334  0.00  0.00    +0.000 A 
ATOM      6  C   UNL     1       1.497   9.063  18.037  0.00  0.00    +0.000 A 
ENDROOT
BRANCH   1  14
ATOM      7  C   UNL     1       6.509   4.876  15.998  0.00  0.00    +0.000 A 
ATOM      8  C   UNL     1       5.383   4.058  16.218  0.00  0.00    +0.000 A 
ATOM      9  C   UNL     1       4.283   4.462  16.962  0.00  0.00    +0.000 A 
ATOM     10  N   UNL     1       3.228   3.645  17.054  0.00  0.00    +0.000 NA
ATOM     11  C   UNL     1       2.162   4.113  17.714  0.00  0.00    +0.000 A 
ATOM     12  N   UNL     1       2.055   5.315  18.283  0.00  0.00    +0.000 NA
ATOM     13  C   UNL     1       3.139   6.106  18.217  0.00  0.00    +0.000 A 
ATOM     14  N   UNL     1       3.097   7.370  18.839  0.00  0.00    +0.000 N 
ATOM     15  C   UNL     1       4.317   5.718  17.557  0.00  0.00    +0.000 A 
ATOM     16  C   UNL     1       5.478   6.517  17.417  0.00  0.00    +0.000 A 
ATOM     17  C   UNL     1       6.573   6.118  16.637  0.00  0.00    +0.000 A 
ATOM     18  H   UNL     1       3.797   7.430  19.569  0.00  0.00    +0.000 HD
BRANCH   7  20
ATOM     19  C   UNL     1       7.379   4.784  13.797  0.00  0.00    +0.000 C 
ATOM     20  O   UNL     1       7.534   4.467  15.184  0.00  0.00    +0.000 OA
ENDBRANCH   7  20
BRANCH  17  21
ATOM     21  O   UNL     1       7.527   7.090  16.608  0.00  0.00    +0.000 OA
ATOM     22  C   UNL     1       7.704   8.013  17.665  0.00  0.00    +0.000 C 
ENDBRANCH  17  21
ENDBRANCH   1  14
BRANCH   4  23
ATOM     23  N   UNL     1      -0.886  11.212  19.919  0.00  0.00    +0.000 N 
ATOM     24  C   UNL     1      -2.090  11.441  19.276  0.00  0.00    +0.000 C 
ATOM     25  O   UNL     1      -2.526  10.810  18.318  0.00  0.00    +0.000 OA
ATOM     26  H   UNL     1      -0.634  11.819  20.690  0.00  0.00    +0.000 HD
BRANCH  24  27
ATOM     27  C   UNL     1      -2.985  12.515  19.790  0.00  0.00    +0.000 A 
ATOM     28  C   UNL     1      -2.341  13.472  20.602  0.00  0.00    +0.000 A 
ATOM     29  C   UNL     1      -3.071  14.454  21.254  0.00  0.00    +0.000 A 
ATOM     30  F   UNL     1      -2.439  15.332  22.044  0.00  0.00    +0.000 F 
ATOM     31  C   UNL     1      -4.446  14.523  21.113  0.00  0.00    +0.000 A 
ATOM     32  C   UNL     1      -5.098  13.597  20.294  0.00  0.00    +0.000 A 
ATOM     33  C   UNL     1      -4.375  12.591  19.631  0.00  0.00    +0.000 A 
ATOM     34 BR   UNL     1      -5.397  11.360  18.610  0.00  0.00    +0.000 Br
ENDBRANCH  24  27
ENDBRANCH   4  23
TORSDOF 5
ENDMDL
