MODEL 1
REMARK VINA RESULT:      -6.8      0.000      0.000
REMARK  Name = 
REMARK  10 active torsions:
REMARK  status: ('A' for Active; 'I' for Inactive)
REMARK    1  A    between atoms: C_1  and  O_2
REMARK    2  A    between atoms: O_2  and  C_3
REMARK    3  A    between atoms: C_3  and  C_5
REMARK    4  A    between atoms: C_7  and  O_8
REMARK    5  A    between atoms: O_8  and  C_9
REMARK    6  A    between atoms: C_10  and  O_11
REMARK    7  A    between atoms: O_11  and  C_12
REMARK    8  A    between atoms: C_14  and  N_15
REMARK    9  A    between atoms: C_19  and  C_20
REMARK   10  A    between atoms: C_19  and  C_21
REMARK                            x       y       z     vdW  Elec       q    Type
REMARK                         _______ _______ _______ _____ _____    ______ ____
ROOT
ATOM      1  C   UNL     1       6.475   5.635  16.759  0.00  0.00    +0.000 A 
ATOM      2  C   UNL     1       7.406   5.588  15.710  0.00  0.00    +0.000 A 
ATOM      3  C   UNL     1       7.188   4.811  14.561  0.00  0.00    +0.000 A 
ATOM      4  C   UNL     1       6.028   4.032  14.451  0.00  0.00    +0.000 A 
ATOM      5  C   UNL     1       5.087   4.098  15.483  0.00  0.00    +0.000 A 
ATOM      6  C   UNL     1       5.305   4.880  16.642  0.00  0.00    +0.000 A 
ENDROOT
BRANCH   6   7
ATOM      7  N   UNL     1       4.333   4.695  17.657  0.00  0.00    +0.000 N 
ATOM      8  C   UNL     1       3.362   5.672  17.806  0.00  0.00    +0.000 C 
ATOM      9  O   UNL     1       3.477   6.855  17.498  0.00  0.00    +0.000 OA
ATOM     10  C   UNL     1       2.046   5.116  18.281  0.00  0.00    +0.000 C 
ATOM     11  C   UNL     1       2.178   4.181  19.485  0.00  0.00    +0.000 C 
ATOM     12  C   UNL     1       0.865   3.384  19.599  0.00  0.00    +0.000 C 
ATOM     13  C   UNL     1       2.393   4.987  20.776  0.00  0.00    +0.000 C 
ATOM     14  C   UNL     1       3.339   3.197  19.292  0.00  0.00    +0.000 C 
ATOM     15  C   UNL     1       4.589   3.802  18.688  0.00  0.00    +0.000 C 
ATOM     16  O   UNL     1       5.701   3.401  19.020  0.00  0.00    +0.000 OA
ENDBRANCH   6   7
BRANCH   1  17
ATOM     17  C   UNL     1       6.828   6.497  17.920  0.00  0.00    +0.000 C 
ATOM     18  O   UNL     1       7.209   6.046  18.983  0.00  0.00    +0.000 OA
BRANCH  17  20
ATOM     19  C   UNL     1       7.981   8.524  17.798  0.00  0.00    +0.000 C 
ATOM     20  O   UNL     1       6.758   7.812  17.598  0.00  0.00    +0.000 OA
ENDBRANCH  17  20
ENDBRANCH   1  17
BRANCH   3  21
ATOM     21  O   UNL     1       8.224   4.867  13.662  0.00  0.00    +0.000 OA
ATOM     22  C   UNL     1       8.091   5.798  12.594  0.00  0.00    +0.000 C 
ENDBRANCH   3  21
BRANCH   4  23
ATOM     23  O   UNL     1       5.909   3.209  13.367  0.00  0.00    +0.000 OA
ATOM     24  C   UNL     1       5.059   3.587  12.293  0.00  0.00    +0.000 C 
ENDBRANCH   4  23
TORSDOF 5
ENDMDL
MODEL 2
REMARK VINA RESULT:      -6.1      1.079      1.209
REMARK  Name = 
REMARK  10 active torsions:
REMARK  status: ('A' for Active; 'I' for Inactive)
REMARK    1  A    between atoms: C_1  and  O_2
REMARK    2  A    between atoms: O_2  and  C_3
REMARK    3  A    between atoms: C_3  and  C_5
REMARK    4  A    between atoms: C_7  and  O_8
REMARK    5  A    between atoms: O_8  and  C_9
REMARK    6  A    between atoms: C_10  and  O_11
REMARK    7  A    between atoms: O_11  and  C_12
REMARK    8  A    between atoms: C_14  and  N_15
REMARK    9  A    between atoms: C_19  and  C_20
REMARK   10  A    between atoms: C_19  and  C_21
REMARK                            x       y       z     vdW  Elec       q    Type
REMARK                         _______ _______ _______ _____ _____    ______ ____
ROOT
ATOM      1  C   UNL     1       6.061   5.287  17.164  0.00  0.00    +0.000 A 
ATOM      2  C   UNL     1       7.100   5.484  16.240  0.00  0.00    +0.000 A 
ATOM      3  C   UNL     1       7.063   4.923  14.953  0.00  0.00    +0.000 A 
ATOM      4  C   UNL     1       5.981   4.118  14.570  0.00  0.00    +0.000 A 
ATOM      5  C   UNL     1       4.933   3.941  15.479  0.00  0.00    +0.000 A 
ATOM      6  C   UNL     1       4.969   4.505  16.776  0.00  0.00    +0.000 A 
ENDROOT
BRANCH   6   7
ATOM      7  N   UNL     1       3.911   4.084  17.620  0.00  0.00    +0.000 N 
ATOM      8  C   UNL     1       2.804   4.912  17.730  0.00  0.00    +0.000 C 
ATOM      9  O   UNL     1       2.795   6.128  17.562  0.00  0.00    +0.000 OA
ATOM     10  C   UNL     1       1.528   4.147  17.956  0.00  0.00    +0.000 C 
ATOM     11  C   UNL     1       1.633   3.099  19.066  0.00  0.00    +0.000 C 
ATOM     12  C   UNL     1       0.437   2.141  18.913  0.00  0.00    +0.000 C 
ATOM     13  C   UNL     1       1.570   3.767  20.449  0.00  0.00    +0.000 C 
ATOM     14  C   UNL     1       2.932   2.294  18.940  0.00  0.00    +0.000 C 
ATOM     15  C   UNL     1       4.154   3.114  18.582  0.00  0.00    +0.000 C 
ATOM     16  O   UNL     1       5.260   2.815  19.026  0.00  0.00    +0.000 OA
ENDBRANCH   6   7
BRANCH   1  17
ATOM     17  C   UNL     1       6.225   5.936  18.492  0.00  0.00    +0.000 C 
ATOM     18  O   UNL     1       5.321   6.011  19.304  0.00  0.00    +0.000 OA
BRANCH  17  20
ATOM     19  C   UNL     1       8.157   5.652  19.772  0.00  0.00    +0.000 C 
ATOM     20  O   UNL     1       7.506   6.330  18.696  0.00  0.00    +0.000 OA
ENDBRANCH  17  20
ENDBRANCH   1  17
BRANCH   3  21
ATOM     21  O   UNL     1       8.181   5.199  14.207  0.00  0.00    +0.000 OA
ATOM     22  C   UNL     1       7.964   5.610  12.863  0.00  0.00    +0.000 C 
ENDBRANCH   3  21
BRANCH   4  23
ATOM     23  O   UNL     1       6.039   3.505  13.351  0.00  0.00    +0.000 OA
ATOM     24  C   UNL     1       4.907   3.547  12.494  0.00  0.00    +0.000 C 
ENDBRANCH   4  23
TORSDOF 5
ENDMDL
MODEL 3
REMARK VINA RESULT:      -5.9      0.682      1.019
REMARK  Name = 
REMARK  10 active torsions:
REMARK  status: ('A' for Active; 'I' for Inactive)
REMARK    1  A    between atoms: C_1  and  O_2
REMARK    2  A    between atoms: O_2  and  C_3
REMARK    3  A    between atoms: C_3  and  C_5
REMARK    4  A    between atoms: C_7  and  O_8
REMARK    5  A    between atoms: O_8  and  C_9
REMARK    6  A    between atoms: C_10  and  O_11
REMARK    7  A    between atoms: O_11  and  C_12
REMARK    8  A    between atoms: C_14  and  N_15
REMARK    9  A    between atoms: C_19  and  C_20
REMARK   10  A    between atoms: C_19  and  C_21
REMARK                            x       y       z     vdW  Elec       q    Type
REMARK                         _______ _______ _______ _____ _____    ______ ____
ROOT
ATOM      1  C   UNL     1       6.555   5.480  16.310  0.00  0.00    +0.000 A 
ATOM      2  C   UNL     1       7.418   5.404  15.206  0.00  0.00    +0.000 A 
ATOM      3  C   UNL     1       7.084   4.674  14.053  0.00  0.00    +0.000 A 
ATOM      4  C   UNL     1       5.872   3.973  13.995  0.00  0.00    +0.000 A 
ATOM      5  C   UNL     1       4.998   4.069  15.083  0.00  0.00    +0.000 A 
ATOM      6  C   UNL     1       5.334   4.803  16.244  0.00  0.00    +0.000 A 
ENDROOT
BRANCH   6   7
ATOM      7  N   UNL     1       4.413   4.651  17.312  0.00  0.00    +0.000 N 
ATOM      8  C   UNL     1       3.490   5.665  17.517  0.00  0.00    +0.000 C 
ATOM      9  O   UNL     1       3.634   6.844  17.205  0.00  0.00    +0.000 OA
ATOM     10  C   UNL     1       2.183   5.157  18.063  0.00  0.00    +0.000 C 
ATOM     11  C   UNL     1       2.345   4.213  19.256  0.00  0.00    +0.000 C 
ATOM     12  C   UNL     1       1.010   3.467  19.441  0.00  0.00    +0.000 C 
ATOM     13  C   UNL     1       2.662   5.005  20.535  0.00  0.00    +0.000 C 
ATOM     14  C   UNL     1       3.454   3.186  18.997  0.00  0.00    +0.000 C 
ATOM     15  C   UNL     1       4.691   3.745  18.325  0.00  0.00    +0.000 C 
ATOM     16  O   UNL     1       5.804   3.301  18.594  0.00  0.00    +0.000 OA
ENDBRANCH   6   7
BRANCH   1  17
ATOM     17  C   UNL     1       7.030   6.286  17.467  0.00  0.00    +0.000 C 
ATOM     18  O   UNL     1       6.646   7.421  17.681  0.00  0.00    +0.000 OA
BRANCH  17  20
ATOM     19  C   UNL     1       7.728   5.883  19.658  0.00  0.00    +0.000 C 
ATOM     20  O   UNL     1       7.847   5.562  18.271  0.00  0.00    +0.000 OA
ENDBRANCH  17  20
ENDBRANCH   1  17
BRANCH   3  21
ATOM     21  O   UNL     1       8.066   4.690  13.095  0.00  0.00    +0.000 OA
ATOM     22  C   UNL     1       8.198   5.887  12.338  0.00  0.00    +0.000 C 
ENDBRANCH   3  21
BRANCH   4  23
ATOM     23  O   UNL     1       5.637   3.190  12.900  0.00  0.00    +0.000 OA
ATOM     24  C   UNL     1       4.727   3.636  11.904  0.00  0.00    +0.000 C 
ENDBRANCH   4  23
TORSDOF 5
ENDMDL
MODEL 4
REMARK VINA RESULT:      -5.8      1.087      1.962
REMARK  Name = 
REMARK  10 active torsions:
REMARK  status: ('A' for Active; 'I' for Inactive)
REMARK    1  A    between atoms: C_1  and  O_2
REMARK    2  A    between atoms: O_2  and  C_3
REMARK    3  A    between atoms: C_3  and  C_5
REMARK    4  A    between atoms: C_7  and  O_8
REMARK    5  A    between atoms: O_8  and  C_9
REMARK    6  A    between atoms: C_10  and  O_11
REMARK    7  A    between atoms: O_11  and  C_12
REMARK    8  A    between atoms: C_14  and  N_15
REMARK    9  A    between atoms: C_19  and  C_20
REMARK   10  A    between atoms: C_19  and  C_21
REMARK                            x       y       z     vdW  Elec       q    Type
REMARK                         _______ _______ _______ _____ _____    ______ ____
ROOT
ATOM      1  C   UNL     1       6.528   4.880  16.699  0.00  0.00    +0.000 A 
ATOM      2  C   UNL     1       7.329   4.855  15.547  0.00  0.00    +0.000 A 
ATOM      3  C   UNL     1       6.793   4.586  14.277  0.00  0.00    +0.000 A 
ATOM      4  C   UNL     1       5.426   4.304  14.139  0.00  0.00    +0.000 A 
ATOM      5  C   UNL     1       4.621   4.354  15.281  0.00  0.00    +0.000 A 
ATOM      6  C   UNL     1       5.161   4.625  16.561  0.00  0.00    +0.000 A 
ENDROOT
BRANCH   6   7
ATOM      7  N   UNL     1       4.236   4.466  17.624  0.00  0.00    +0.000 N 
ATOM      8  C   UNL     1       3.827   3.179  17.937  0.00  0.00    +0.000 C 
ATOM      9  O   UNL     1       3.800   2.224  17.165  0.00  0.00    +0.000 OA
ATOM     10  C   UNL     1       3.524   3.007  19.401  0.00  0.00    +0.000 C 
ATOM     11  C   UNL     1       2.620   4.102  19.971  0.00  0.00    +0.000 C 
ATOM     12  C   UNL     1       2.730   4.041  21.506  0.00  0.00    +0.000 C 
ATOM     13  C   UNL     1       1.158   3.867  19.560  0.00  0.00    +0.000 C 
ATOM     14  C   UNL     1       3.073   5.489  19.497  0.00  0.00    +0.000 C 
ATOM     15  C   UNL     1       3.487   5.557  18.042  0.00  0.00    +0.000 C 
ATOM     16  O   UNL     1       3.276   6.569  17.378  0.00  0.00    +0.000 OA
ENDBRANCH   6   7
BRANCH   1  17
ATOM     17  C   UNL     1       7.221   5.177  17.982  0.00  0.00    +0.000 C 
ATOM     18  O   UNL     1       7.987   4.395  18.513  0.00  0.00    +0.000 OA
BRANCH  17  20
ATOM     19  C   UNL     1       8.103   7.294  18.421  0.00  0.00    +0.000 C 
ATOM     20  O   UNL     1       6.959   6.438  18.405  0.00  0.00    +0.000 OA
ENDBRANCH  17  20
ENDBRANCH   1  17
BRANCH   3  21
ATOM     21  O   UNL     1       7.735   4.573  13.281  0.00  0.00    +0.000 OA
ATOM     22  C   UNL     1       8.284   5.831  12.906  0.00  0.00    +0.000 C 
ENDBRANCH   3  21
BRANCH   4  23
ATOM     23  O   UNL     1       4.969   3.942  12.904  0.00  0.00    +0.000 OA
ATOM     24  C   UNL     1       5.556   2.831  12.241  0.00  0.00    +0.000 C 
ENDBRANCH   4  23
TORSDOF 5
ENDMDL
MODEL 5
REMARK VINA RESULT:      -5.7      2.515      4.944
REMARK  Name = 
REMARK  10 active torsions:
REMARK  status: ('A' for Active; 'I' for Inactive)
REMARK    1  A    between atoms: C_1  and  O_2
REMARK    2  A    between atoms: O_2  and  C_3
REMARK    3  A    between atoms: C_3  and  C_5
REMARK    4  A    between atoms: C_7  and  O_8
REMARK    5  A    between atoms: O_8  and  C_9
REMARK    6  A    between atoms: C_10  and  O_11
REMARK    7  A    between atoms: O_11  and  C_12
REMARK    8  A    between atoms: C_14  and  N_15
REMARK    9  A    between atoms: C_19  and  C_20
REMARK   10  A    between atoms: C_19  and  C_21
REMARK                            x       y       z     vdW  Elec       q    Type
REMARK                         _______ _______ _______ _____ _____    ______ ____
ROOT
ATOM      1  C   UNL     1       3.232   4.560  17.646  0.00  0.00    +0.000 A 
ATOM      2  C   UNL     1       4.192   3.967  16.810  0.00  0.00    +0.000 A 
ATOM      3  C   UNL     1       5.503   4.463  16.721  0.00  0.00    +0.000 A 
ATOM      4  C   UNL     1       5.876   5.595  17.458  0.00  0.00    +0.000 A 
ATOM      5  C   UNL     1       4.929   6.171  18.311  0.00  0.00    +0.000 A 
ATOM      6  C   UNL     1       3.608   5.673  18.401  0.00  0.00    +0.000 A 
ENDROOT
BRANCH   6   7
ATOM      7  N   UNL     1       2.738   6.478  19.179  0.00  0.00    +0.000 N 
ATOM      8  C   UNL     1       2.266   5.953  20.372  0.00  0.00    +0.000 C 
ATOM      9  O   UNL     1       2.134   4.759  20.631  0.00  0.00    +0.000 OA
ATOM     10  C   UNL     1       2.038   7.007  21.421  0.00  0.00    +0.000 C 
ATOM     11  C   UNL     1       1.240   8.211  20.914  0.00  0.00    +0.000 C 
ATOM     12  C   UNL     1       1.435   9.355  21.926  0.00  0.00    +0.000 C 
ATOM     13  C   UNL     1      -0.255   7.869  20.819  0.00  0.00    +0.000 C 
ATOM     14  C   UNL     1       1.752   8.670  19.543  0.00  0.00    +0.000 C 
ATOM     15  C   UNL     1       2.086   7.547  18.582  0.00  0.00    +0.000 C 
ATOM     16  O   UNL     1       1.901   7.682  17.375  0.00  0.00    +0.000 OA
ENDBRANCH   6   7
BRANCH   1  17
ATOM     17  C   UNL     1       1.880   3.937  17.646  0.00  0.00    +0.000 C 
ATOM     18  O   UNL     1       0.899   4.495  17.193  0.00  0.00    +0.000 OA
BRANCH  17  20
ATOM     19  C   UNL     1       0.732   2.264  18.801  0.00  0.00    +0.000 C 
ATOM     20  O   UNL     1       1.921   2.667  18.120  0.00  0.00    +0.000 OA
ENDBRANCH  17  20
ENDBRANCH   1  17
BRANCH   3  21
ATOM     21  O   UNL     1       6.285   3.774  15.829  0.00  0.00    +0.000 OA
ATOM     22  C   UNL     1       6.134   4.113  14.455  0.00  0.00    +0.000 C 
ENDBRANCH   3  21
BRANCH   4  23
ATOM     23  O   UNL     1       7.127   6.106  17.258  0.00  0.00    +0.000 OA
ATOM     24  C   UNL     1       7.377   7.475  17.548  0.00  0.00    +0.000 C 
ENDBRANCH   4  23
TORSDOF 5
ENDMDL
MODEL 6
REMARK VINA RESULT:      -5.7      1.475      2.313
REMARK  Name = 
REMARK  10 active torsions:
REMARK  status: ('A' for Active; 'I' for Inactive)
REMARK    1  A    between atoms: C_1  and  O_2
REMARK    2  A    between atoms: O_2  and  C_3
REMARK    3  A    between atoms: C_3  and  C_5
REMARK    4  A    between atoms: C_7  and  O_8
REMARK    5  A    between atoms: O_8  and  C_9
REMARK    6  A    between atoms: C_10  and  O_11
REMARK    7  A    between atoms: O_11  and  C_12
REMARK    8  A    between atoms: C_14  and  N_15
REMARK    9  A    between atoms: C_19  and  C_20
REMARK   10  A    between atoms: C_19  and  C_21
REMARK                            x       y       z     vdW  Elec       q    Type
REMARK                         _______ _______ _______ _____ _____    ______ ____
ROOT
ATOM      1  C   UNL     1       6.205   4.797  17.496  0.00  0.00    +0.000 A 
ATOM      2  C   UNL     1       7.170   4.930  16.485  0.00  0.00    +0.000 A 
ATOM      3  C   UNL     1       6.861   4.707  15.133  0.00  0.00    +0.000 A 
ATOM      4  C   UNL     1       5.567   4.313  14.765  0.00  0.00    +0.000 A 
ATOM      5  C   UNL     1       4.598   4.205  15.767  0.00  0.00    +0.000 A 
ATOM      6  C   UNL     1       4.907   4.429  17.129  0.00  0.00    +0.000 A 
ENDROOT
BRANCH   6   7
ATOM      7  N   UNL     1       3.853   4.109  18.022  0.00  0.00    +0.000 N 
ATOM      8  C   UNL     1       3.583   2.768  18.248  0.00  0.00    +0.000 C 
ATOM      9  O   UNL     1       3.817   1.846  17.472  0.00  0.00    +0.000 OA
ATOM     10  C   UNL     1       3.073   2.506  19.640  0.00  0.00    +0.000 C 
ATOM     11  C   UNL     1       1.944   3.448  20.064  0.00  0.00    +0.000 C 
ATOM     12  C   UNL     1       1.810   3.350  21.595  0.00  0.00    +0.000 C 
ATOM     13  C   UNL     1       0.616   3.029  19.413  0.00  0.00    +0.000 C 
ATOM     14  C   UNL     1       2.268   4.898  19.687  0.00  0.00    +0.000 C 
ATOM     15  C   UNL     1       2.901   5.073  18.322  0.00  0.00    +0.000 C 
ATOM     16  O   UNL     1       2.660   6.068  17.643  0.00  0.00    +0.000 OA
ENDBRANCH   6   7
BRANCH   1  17
ATOM     17  C   UNL     1       6.662   5.061  18.887  0.00  0.00    +0.000 C 
ATOM     18  O   UNL     1       5.894   5.315  19.795  0.00  0.00    +0.000 OA
BRANCH  17  20
ATOM     19  C   UNL     1       8.535   5.348  20.250  0.00  0.00    +0.000 C 
ATOM     20  O   UNL     1       8.001   4.888  19.008  0.00  0.00    +0.000 OA
ENDBRANCH  17  20
ENDBRANCH   1  17
BRANCH   3  21
ATOM     21  O   UNL     1       7.940   4.853  14.298  0.00  0.00    +0.000 OA
ATOM     22  C   UNL     1       7.823   5.830  13.271  0.00  0.00    +0.000 C 
ENDBRANCH   3  21
BRANCH   4  23
ATOM     23  O   UNL     1       5.341   4.002  13.454  0.00  0.00    +0.000 OA
ATOM     24  C   UNL     1       6.076   2.946  12.850  0.00  0.00    +0.000 C 
ENDBRANCH   4  23
TORSDOF 5
ENDMDL
MODEL 7
REMARK VINA RESULT:      -5.5      1.173      1.242
REMARK  Name = 
REMARK  10 active torsions:
REMARK  status: ('A' for Active; 'I' for Inactive)
REMARK    1  A    between atoms: C_1  and  O_2
REMARK    2  A    between atoms: O_2  and  C_3
REMARK    3  A    between atoms: C_3  and  C_5
REMARK    4  A    between atoms: C_7  and  O_8
REMARK    5  A    between atoms: O_8  and  C_9
REMARK    6  A    between atoms: C_10  and  O_11
REMARK    7  A    between atoms: O_11  and  C_12
REMARK    8  A    between atoms: C_14  and  N_15
REMARK    9  A    between atoms: C_19  and  C_20
REMARK   10  A    between atoms: C_19  and  C_21
REMARK                            x       y       z     vdW  Elec       q    Type
REMARK                         _______ _______ _______ _____ _____    ______ ____
ROOT
ATOM      1  C   UNL     1       6.318   4.780  16.161  0.00  0.00    +0.000 A 
ATOM      2  C   UNL     1       7.159   4.850  15.039  0.00  0.00    +0.000 A 
ATOM      3  C   UNL     1       6.704   4.525  13.751  0.00  0.00    +0.000 A 
ATOM      4  C   UNL     1       5.385   4.090  13.562  0.00  0.00    +0.000 A 
ATOM      5  C   UNL     1       4.538   4.045  14.673  0.00  0.00    +0.000 A 
ATOM      6  C   UNL     1       4.995   4.372  15.972  0.00  0.00    +0.000 A 
ENDROOT
BRANCH   6   7
ATOM      7  N   UNL     1       4.055   4.106  17.000  0.00  0.00    +0.000 N 
ATOM      8  C   UNL     1       3.486   5.189  17.650  0.00  0.00    +0.000 C 
ATOM      9  O   UNL     1       3.990   6.302  17.772  0.00  0.00    +0.000 OA
ATOM     10  C   UNL     1       2.077   4.918  18.106  0.00  0.00    +0.000 C 
ATOM     11  C   UNL     1       1.922   3.592  18.855  0.00  0.00    +0.000 C 
ATOM     12  C   UNL     1       0.421   3.254  18.892  0.00  0.00    +0.000 C 
ATOM     13  C   UNL     1       2.448   3.718  20.294  0.00  0.00    +0.000 C 
ATOM     14  C   UNL     1       2.666   2.463  18.131  0.00  0.00    +0.000 C 
ATOM     15  C   UNL     1       4.026   2.847  17.584  0.00  0.00    +0.000 C 
ATOM     16  O   UNL     1       4.943   2.032  17.560  0.00  0.00    +0.000 OA
ENDBRANCH   6   7
BRANCH   1  17
ATOM     17  C   UNL     1       6.924   5.151  17.468  0.00  0.00    +0.000 C 
ATOM     18  O   UNL     1       7.089   4.350  18.368  0.00  0.00    +0.000 OA
BRANCH  17  20
ATOM     19  C   UNL     1       8.045   6.820  18.655  0.00  0.00    +0.000 C 
ATOM     20  O   UNL     1       7.340   6.442  17.472  0.00  0.00    +0.000 OA
ENDBRANCH  17  20
ENDBRANCH   1  17
BRANCH   3  21
ATOM     21  O   UNL     1       7.679   4.622  12.790  0.00  0.00    +0.000 OA
ATOM     22  C   UNL     1       8.440   5.824  12.774  0.00  0.00    +0.000 C 
ENDBRANCH   3  21
BRANCH   4  23
ATOM     23  O   UNL     1       5.019   3.681  12.311  0.00  0.00    +0.000 OA
ATOM     24  C   UNL     1       5.480   2.429  11.823  0.00  0.00    +0.000 C 
ENDBRANCH   4  23
TORSDOF 5
ENDMDL
MODEL 8
REMARK VINA RESULT:      -5.4      0.868      2.049
REMARK  Name = 
REMARK  10 active torsions:
REMARK  status: ('A' for Active; 'I' for Inactive)
REMARK    1  A    between atoms: C_1  and  O_2
REMARK    2  A    between atoms: O_2  and  C_3
REMARK    3  A    between atoms: C_3  and  C_5
REMARK    4  A    between atoms: C_7  and  O_8
REMARK    5  A    between atoms: O_8  and  C_9
REMARK    6  A    between atoms: C_10  and  O_11
REMARK    7  A    between atoms: O_11  and  C_12
REMARK    8  A    between atoms: C_14  and  N_15
REMARK    9  A    between atoms: C_19  and  C_20
REMARK   10  A    between atoms: C_19  and  C_21
REMARK                            x       y       z     vdW  Elec       q    Type
REMARK                         _______ _______ _______ _____ _____    ______ ____
ROOT
ATOM      1  C   UNL     1       6.388   5.696  16.813  0.00  0.00    +0.000 A 
ATOM      2  C   UNL     1       7.333   5.692  15.775  0.00  0.00    +0.000 A 
ATOM      3  C   UNL     1       7.148   4.931  14.608  0.00  0.00    +0.000 A 
ATOM      4  C   UNL     1       6.008   4.127  14.470  0.00  0.00    +0.000 A 
ATOM      5  C   UNL     1       5.053   4.149  15.491  0.00  0.00    +0.000 A 
ATOM      6  C   UNL     1       5.239   4.915  16.667  0.00  0.00    +0.000 A 
ENDROOT
BRANCH   6   7
ATOM      7  N   UNL     1       4.259   4.687  17.666  0.00  0.00    +0.000 N 
ATOM      8  C   UNL     1       3.970   3.373  17.999  0.00  0.00    +0.000 C 
ATOM      9  O   UNL     1       4.105   2.398  17.265  0.00  0.00    +0.000 OA
ATOM     10  C   UNL     1       3.578   3.212  19.443  0.00  0.00    +0.000 C 
ATOM     11  C   UNL     1       2.520   4.218  19.904  0.00  0.00    +0.000 C 
ATOM     12  C   UNL     1       2.520   4.216  21.444  0.00  0.00    +0.000 C 
ATOM     13  C   UNL     1       1.127   3.809  19.399  0.00  0.00    +0.000 C 
ATOM     14  C   UNL     1       2.854   5.631  19.410  0.00  0.00    +0.000 C 
ATOM     15  C   UNL     1       3.367   5.700  17.986  0.00  0.00    +0.000 C 
ATOM     16  O   UNL     1       3.097   6.661  17.271  0.00  0.00    +0.000 OA
ENDBRANCH   6   7
BRANCH   1  17
ATOM     17  C   UNL     1       6.706   6.545  17.993  0.00  0.00    +0.000 C 
ATOM     18  O   UNL     1       6.863   7.749  17.915  0.00  0.00    +0.000 OA
BRANCH  17  20
ATOM     19  C   UNL     1       8.002   5.513  19.639  0.00  0.00    +0.000 C 
ATOM     20  O   UNL     1       6.699   5.820  19.139  0.00  0.00    +0.000 OA
ENDBRANCH  17  20
ENDBRANCH   1  17
BRANCH   3  21
ATOM     21  O   UNL     1       8.192   5.030  13.724  0.00  0.00    +0.000 OA
ATOM     22  C   UNL     1       7.943   5.749  12.522  0.00  0.00    +0.000 C 
ENDBRANCH   3  21
BRANCH   4  23
ATOM     23  O   UNL     1       5.923   3.322  13.369  0.00  0.00    +0.000 OA
ATOM     24  C   UNL     1       4.929   3.584  12.388  0.00  0.00    +0.000 C 
ENDBRANCH   4  23
TORSDOF 5
ENDMDL
MODEL 9
REMARK VINA RESULT:      -5.4     10.848     13.512
REMARK  Name = 
REMARK  10 active torsions:
REMARK  status: ('A' for Active; 'I' for Inactive)
REMARK    1  A    between atoms: C_1  and  O_2
REMARK    2  A    between atoms: O_2  and  C_3
REMARK    3  A    between atoms: C_3  and  C_5
REMARK    4  A    between atoms: C_7  and  O_8
REMARK    5  A    between atoms: O_8  and  C_9
REMARK    6  A    between atoms: C_10  and  O_11
REMARK    7  A    between atoms: O_11  and  C_12
REMARK    8  A    between atoms: C_14  and  N_15
REMARK    9  A    between atoms: C_19  and  C_20
REMARK   10  A    between atoms: C_19  and  C_21
REMARK                            x       y       z     vdW  Elec       q    Type
REMARK                         _______ _______ _______ _____ _____    ______ ____
ROOT
ATOM      1  C   UNL     1      -5.135  11.712  19.103  0.00  0.00    +0.000 A 
ATOM      2  C   UNL     1      -4.396  11.227  18.013  0.00  0.00    +0.000 A 
ATOM      3  C   UNL     1      -3.009  11.427  17.910  0.00  0.00    +0.000 A 
ATOM      4  C   UNL     1      -2.331  12.152  18.900  0.00  0.00    +0.000 A 
ATOM      5  C   UNL     1      -3.060  12.614  20.000  0.00  0.00    +0.000 A 
ATOM      6  C   UNL     1      -4.457  12.413  20.104  0.00  0.00    +0.000 A 
ENDROOT
BRANCH   6   7
ATOM      7  N   UNL     1      -5.060  13.093  21.192  0.00  0.00    +0.000 N 
ATOM      8  C   UNL     1      -5.661  14.315  20.937  0.00  0.00    +0.000 C 
ATOM      9  O   UNL     1      -5.368  15.085  20.026  0.00  0.00    +0.000 OA
ATOM     10  C   UNL     1      -6.843  14.579  21.830  0.00  0.00    +0.000 C 
ATOM     11  C   UNL     1      -6.558  14.324  23.312  0.00  0.00    +0.000 C 
ATOM     12  C   UNL     1      -7.914  14.229  24.035  0.00  0.00    +0.000 C 
ATOM     13  C   UNL     1      -5.745  15.482  23.914  0.00  0.00    +0.000 C 
ATOM     14  C   UNL     1      -5.799  13.005  23.506  0.00  0.00    +0.000 C 
ATOM     15  C   UNL     1      -4.707  12.746  22.489  0.00  0.00    +0.000 C 
ATOM     16  O   UNL     1      -3.680  12.155  22.811  0.00  0.00    +0.000 OA
ENDBRANCH   6   7
BRANCH   1  17
ATOM     17  C   UNL     1      -6.596  11.431  19.090  0.00  0.00    +0.000 C 
ATOM     18  O   UNL     1      -7.357  11.944  18.291  0.00  0.00    +0.000 OA
BRANCH  17  20
ATOM     19  C   UNL     1      -7.915  10.904  20.943  0.00  0.00    +0.000 C 
ATOM     20  O   UNL     1      -6.926  10.483  20.001  0.00  0.00    +0.000 OA
ENDBRANCH  17  20
ENDBRANCH   1  17
BRANCH   3  21
ATOM     21  O   UNL     1      -2.469  10.910  16.760  0.00  0.00    +0.000 OA
ATOM     22  C   UNL     1      -3.294  10.935  15.601  0.00  0.00    +0.000 C 
ENDBRANCH   3  21
BRANCH   4  23
ATOM     23  O   UNL     1      -1.005  12.416  18.704  0.00  0.00    +0.000 OA
ATOM     24  C   UNL     1      -0.109  12.341  19.804  0.00  0.00    +0.000 C 
ENDBRANCH   4  23
TORSDOF 5
ENDMDL
