MODEL 1
REMARK VINA RESULT:      -8.4      0.000      0.000
REMARK  Name = 
REMARK  8 active torsions:
REMARK  status: ('A' for Active; 'I' for Inactive)
REMARK    1  A    between atoms: C_1  and  C_2
REMARK    2  A    between atoms: C_4  and  C_5
REMARK    3  A    between atoms: C_5  and  O_7
REMARK    4  A    between atoms: O_7  and  C_8
REMARK    5  A    between atoms: C_8  and  C_9
REMARK    6  A    between atoms: C_15  and  C_16
REMARK    7  A    between atoms: C_16  and  C_17
REMARK    8  A    between atoms: C_16  and  C_18
REMARK                            x       y       z     vdW  Elec       q    Type
REMARK                         _______ _______ _______ _____ _____    ______ ____
ROOT
ATOM      1  O   UNL     1       6.554   6.307  18.400  0.00  0.00    +0.000 OA
ENDROOT
BRANCH   1   2
ATOM      2  C   UNL     1       5.804   5.490  19.180  0.00  0.00    +0.000 C 
ATOM      3  O   UNL     1       6.259   4.762  20.048  0.00  0.00    +0.000 OA
BRANCH   2   7
ATOM      4  C   UNL     1       1.890   8.304  17.866  0.00  0.00    +0.000 C 
ATOM      5  C   UNL     1       2.518   6.977  18.165  0.00  0.00    +0.000 A 
ATOM      6  C   UNL     1       3.839   6.874  18.557  0.00  0.00    +0.000 A 
ATOM      7  C   UNL     1       4.364   5.600  18.813  0.00  0.00    +0.000 A 
ATOM      8  C   UNL     1       3.551   4.446  18.675  0.00  0.00    +0.000 A 
ATOM      9  C   UNL     1       3.958   3.108  18.919  0.00  0.00    +0.000 A 
ATOM     10  C   UNL     1       3.082   2.034  18.746  0.00  0.00    +0.000 A 
ATOM     11  C   UNL     1       1.783   2.277  18.329  0.00  0.00    +0.000 A 
ATOM     12  C   UNL     1       1.370   3.589  18.096  0.00  0.00    +0.000 A 
ATOM     13  C   UNL     1       2.223   4.671  18.262  0.00  0.00    +0.000 A 
ATOM     14  N   UNL     1       1.727   5.894  18.021  0.00  0.00    +0.000 NA
ENDBRANCH   2   7
ENDBRANCH   1   2
BRANCH   1  15
ATOM     15  C   UNL     1       7.613   5.653  17.698  0.00  0.00    +0.000 C 
BRANCH  15  16
ATOM     16  C   UNL     1       7.126   4.847  16.489  0.00  0.00    +0.000 C 
ATOM     17  O   UNL     1       6.488   3.812  16.660  0.00  0.00    +0.000 OA
ATOM     18  N   UNL     1       7.506   5.389  15.280  0.00  0.00    +0.000 N 
ATOM     19  C   UNL     1       7.205   4.878  14.040  0.00  0.00    +0.000 A 
ATOM     20  N   UNL     1       7.804   5.264  12.936  0.00  0.00    +0.000 NA
ATOM     21  N   UNL     1       7.338   4.587  11.821  0.00  0.00    +0.000 NA
ATOM     22  C   UNL     1       6.367   3.747  12.124  0.00  0.00    +0.000 A 
ATOM     23  S   UNL     1       5.967   3.732  13.794  0.00  0.00    +0.000 S 
ATOM     24  H   UNL     1       8.233   6.105  15.272  0.00  0.00    +0.000 HD
BRANCH  22  25
ATOM     25  C   UNL     1       5.628   2.872  11.152  0.00  0.00    +0.000 C 
ATOM     26  C   UNL     1       6.010   1.405  11.347  0.00  0.00    +0.000 C 
ATOM     27  C   UNL     1       4.117   3.058  11.283  0.00  0.00    +0.000 C 
ENDBRANCH  22  25
ENDBRANCH  15  16
ENDBRANCH   1  15
TORSDOF 5
ENDMDL
MODEL 2
REMARK VINA RESULT:      -8.4      5.117      8.860
REMARK  Name = 
REMARK  8 active torsions:
REMARK  status: ('A' for Active; 'I' for Inactive)
REMARK    1  A    between atoms: C_1  and  C_2
REMARK    2  A    between atoms: C_4  and  C_5
REMARK    3  A    between atoms: C_5  and  O_7
REMARK    4  A    between atoms: O_7  and  C_8
REMARK    5  A    between atoms: C_8  and  C_9
REMARK    6  A    between atoms: C_15  and  C_16
REMARK    7  A    between atoms: C_16  and  C_17
REMARK    8  A    between atoms: C_16  and  C_18
REMARK                            x       y       z     vdW  Elec       q    Type
REMARK                         _______ _______ _______ _____ _____    ______ ____
ROOT
ATOM      1  O   UNL     1       1.776   8.086  17.805  0.00  0.00    +0.000 OA
ENDROOT
BRANCH   1   2
ATOM      2  C   UNL     1       2.383   7.284  18.717  0.00  0.00    +0.000 C 
ATOM      3  O   UNL     1       2.392   7.497  19.919  0.00  0.00    +0.000 OA
BRANCH   2   7
ATOM      4  C   UNL     1       6.029   5.496  15.808  0.00  0.00    +0.000 C 
ATOM      5  C   UNL     1       4.812   5.308  16.660  0.00  0.00    +0.000 A 
ATOM      6  C   UNL     1       4.168   6.380  17.248  0.00  0.00    +0.000 A 
ATOM      7  C   UNL     1       3.039   6.131  18.039  0.00  0.00    +0.000 A 
ATOM      8  C   UNL     1       2.569   4.806  18.227  0.00  0.00    +0.000 A 
ATOM      9  C   UNL     1       1.433   4.426  18.989  0.00  0.00    +0.000 A 
ATOM     10  C   UNL     1       1.056   3.088  19.120  0.00  0.00    +0.000 A 
ATOM     11  C   UNL     1       1.804   2.105  18.491  0.00  0.00    +0.000 A 
ATOM     12  C   UNL     1       2.916   2.469  17.732  0.00  0.00    +0.000 A 
ATOM     13  C   UNL     1       3.310   3.792  17.587  0.00  0.00    +0.000 A 
ATOM     14  N   UNL     1       4.389   4.039  16.829  0.00  0.00    +0.000 NA
ENDBRANCH   2   7
ENDBRANCH   1   2
BRANCH   1  15
ATOM     15  C   UNL     1       1.771   9.474  18.143  0.00  0.00    +0.000 C 
BRANCH  15  16
ATOM     16  C   UNL     1       0.372  10.012  18.461  0.00  0.00    +0.000 C 
ATOM     17  O   UNL     1       0.116  10.420  19.591  0.00  0.00    +0.000 OA
ATOM     18  N   UNL     1      -0.496   9.946  17.393  0.00  0.00    +0.000 N 
ATOM     19  C   UNL     1      -1.807  10.360  17.397  0.00  0.00    +0.000 A 
ATOM     20  N   UNL     1      -2.668  10.036  16.458  0.00  0.00    +0.000 NA
ATOM     21  N   UNL     1      -3.927  10.560  16.698  0.00  0.00    +0.000 NA
ATOM     22  C   UNL     1      -3.954  11.301  17.788  0.00  0.00    +0.000 A 
ATOM     23  S   UNL     1      -2.439  11.401  18.590  0.00  0.00    +0.000 S 
ATOM     24  H   UNL     1      -0.242   9.368  16.591  0.00  0.00    +0.000 HD
BRANCH  22  25
ATOM     25  C   UNL     1      -5.153  12.030  18.325  0.00  0.00    +0.000 C 
ATOM     26  C   UNL     1      -6.410  11.170  18.201  0.00  0.00    +0.000 C 
ATOM     27  C   UNL     1      -4.933  12.457  19.776  0.00  0.00    +0.000 C 
ENDBRANCH  22  25
ENDBRANCH  15  16
ENDBRANCH   1  15
TORSDOF 5
ENDMDL
MODEL 3
REMARK VINA RESULT:      -8.3      3.599      8.246
REMARK  Name = 
REMARK  8 active torsions:
REMARK  status: ('A' for Active; 'I' for Inactive)
REMARK    1  A    between atoms: C_1  and  C_2
REMARK    2  A    between atoms: C_4  and  C_5
REMARK    3  A    between atoms: C_5  and  O_7
REMARK    4  A    between atoms: O_7  and  C_8
REMARK    5  A    between atoms: C_8  and  C_9
REMARK    6  A    between atoms: C_15  and  C_16
REMARK    7  A    between atoms: C_16  and  C_17
REMARK    8  A    between atoms: C_16  and  C_18
REMARK                            x       y       z     vdW  Elec       q    Type
REMARK                         _______ _______ _______ _____ _____    ______ ____
ROOT
ATOM      1  O   UNL     1       3.591   4.645  18.598  0.00  0.00    +0.000 OA
ENDROOT
BRANCH   1   2
ATOM      2  C   UNL     1       4.876   4.235  18.746  0.00  0.00    +0.000 C 
ATOM      3  O   UNL     1       5.229   3.347  19.505  0.00  0.00    +0.000 OA
BRANCH   2   7
ATOM      4  C   UNL     1       8.182   7.938  18.185  0.00  0.00    +0.000 C 
ATOM      5  C   UNL     1       7.376   6.798  17.643  0.00  0.00    +0.000 A 
ATOM      6  C   UNL     1       6.496   6.091  18.440  0.00  0.00    +0.000 A 
ATOM      7  C   UNL     1       5.780   5.031  17.869  0.00  0.00    +0.000 A 
ATOM      8  C   UNL     1       5.955   4.698  16.501  0.00  0.00    +0.000 A 
ATOM      9  C   UNL     1       5.279   3.662  15.805  0.00  0.00    +0.000 A 
ATOM     10  C   UNL     1       5.528   3.406  14.455  0.00  0.00    +0.000 A 
ATOM     11  C   UNL     1       6.453   4.182  13.775  0.00  0.00    +0.000 A 
ATOM     12  C   UNL     1       7.115   5.209  14.448  0.00  0.00    +0.000 A 
ATOM     13  C   UNL     1       6.883   5.482  15.788  0.00  0.00    +0.000 A 
ATOM     14  N   UNL     1       7.564   6.497  16.342  0.00  0.00    +0.000 NA
ENDBRANCH   2   7
ENDBRANCH   1   2
BRANCH   1  15
ATOM     15  C   UNL     1       2.983   5.141  19.792  0.00  0.00    +0.000 C 
BRANCH  15  16
ATOM     16  C   UNL     1       2.496   6.588  19.663  0.00  0.00    +0.000 C 
ATOM     17  O   UNL     1       2.630   7.187  18.599  0.00  0.00    +0.000 OA
ATOM     18  N   UNL     1       1.960   7.092  20.829  0.00  0.00    +0.000 N 
ATOM     19  C   UNL     1       1.446   8.356  20.996  0.00  0.00    +0.000 A 
ATOM     20  N   UNL     1       1.198   8.884  22.174  0.00  0.00    +0.000 NA
ATOM     21  N   UNL     1       0.702  10.173  22.078  0.00  0.00    +0.000 NA
ATOM     22  C   UNL     1       0.551  10.552  20.824  0.00  0.00    +0.000 A 
ATOM     23  S   UNL     1       1.009   9.352  19.683  0.00  0.00    +0.000 S 
ATOM     24  H   UNL     1       2.126   6.590  21.701  0.00  0.00    +0.000 HD
BRANCH  22  25
ATOM     25  C   UNL     1       0.020  11.880  20.365  0.00  0.00    +0.000 C 
ATOM     26  C   UNL     1      -1.388  11.730  19.789  0.00  0.00    +0.000 C 
ATOM     27  C   UNL     1       0.032  12.900  21.503  0.00  0.00    +0.000 C 
ENDBRANCH  22  25
ENDBRANCH  15  16
ENDBRANCH   1  15
TORSDOF 5
ENDMDL
MODEL 4
REMARK VINA RESULT:      -8.2      5.107      9.334
REMARK  Name = 
REMARK  8 active torsions:
REMARK  status: ('A' for Active; 'I' for Inactive)
REMARK    1  A    between atoms: C_1  and  C_2
REMARK    2  A    between atoms: C_4  and  C_5
REMARK    3  A    between atoms: C_5  and  O_7
REMARK    4  A    between atoms: O_7  and  C_8
REMARK    5  A    between atoms: C_8  and  C_9
REMARK    6  A    between atoms: C_15  and  C_16
REMARK    7  A    between atoms: C_16  and  C_17
REMARK    8  A    between atoms: C_16  and  C_18
REMARK                            x       y       z     vdW  Elec       q    Type
REMARK                         _______ _______ _______ _____ _____    ______ ____
ROOT
ATOM      1  O   UNL     1       1.751   8.020  17.945  0.00  0.00    +0.000 OA
ENDROOT
BRANCH   1   2
ATOM      2  C   UNL     1       2.396   7.192  18.804  0.00  0.00    +0.000 C 
ATOM      3  O   UNL     1       2.456   7.368  20.011  0.00  0.00    +0.000 OA
BRANCH   2   7
ATOM      4  C   UNL     1       5.919   5.498  15.694  0.00  0.00    +0.000 C 
ATOM      5  C   UNL     1       4.738   5.284  16.589  0.00  0.00    +0.000 A 
ATOM      6  C   UNL     1       4.119   6.336  17.236  0.00  0.00    +0.000 A 
ATOM      7  C   UNL     1       3.023   6.061  18.065  0.00  0.00    +0.000 A 
ATOM      8  C   UNL     1       2.561   4.730  18.230  0.00  0.00    +0.000 A 
ATOM      9  C   UNL     1       1.457   4.326  19.025  0.00  0.00    +0.000 A 
ATOM     10  C   UNL     1       1.085   2.984  19.130  0.00  0.00    +0.000 A 
ATOM     11  C   UNL     1       1.806   2.022  18.440  0.00  0.00    +0.000 A 
ATOM     12  C   UNL     1       2.887   2.410  17.648  0.00  0.00    +0.000 A 
ATOM     13  C   UNL     1       3.274   3.737  17.528  0.00  0.00    +0.000 A 
ATOM     14  N   UNL     1       4.321   4.009  16.735  0.00  0.00    +0.000 NA
ENDBRANCH   2   7
ENDBRANCH   1   2
BRANCH   1  15
ATOM     15  C   UNL     1       2.127   9.394  18.047  0.00  0.00    +0.000 C 
BRANCH  15  16
ATOM     16  C   UNL     1       1.158  10.222  18.899  0.00  0.00    +0.000 C 
ATOM     17  O   UNL     1       0.555  11.166  18.396  0.00  0.00    +0.000 OA
ATOM     18  N   UNL     1       1.093   9.808  20.212  0.00  0.00    +0.000 N 
ATOM     19  C   UNL     1       0.307  10.366  21.192  0.00  0.00    +0.000 A 
ATOM     20  N   UNL     1       0.472  10.125  22.474  0.00  0.00    +0.000 NA
ATOM     21  N   UNL     1      -0.431  10.820  23.259  0.00  0.00    +0.000 NA
ATOM     22  C   UNL     1      -1.277  11.526  22.533  0.00  0.00    +0.000 A 
ATOM     23  S   UNL     1      -1.016  11.383  20.842  0.00  0.00    +0.000 S 
ATOM     24  H   UNL     1       1.815   9.179  20.563  0.00  0.00    +0.000 HD
BRANCH  22  25
ATOM     25  C   UNL     1      -2.393  12.378  23.065  0.00  0.00    +0.000 C 
ATOM     26  C   UNL     1      -1.851  13.697  23.618  0.00  0.00    +0.000 C 
ATOM     27  C   UNL     1      -3.448  12.637  21.991  0.00  0.00    +0.000 C 
ENDBRANCH  22  25
ENDBRANCH  15  16
ENDBRANCH   1  15
TORSDOF 5
ENDMDL
MODEL 5
REMARK VINA RESULT:      -8.2      5.088      9.042
REMARK  Name = 
REMARK  8 active torsions:
REMARK  status: ('A' for Active; 'I' for Inactive)
REMARK    1  A    between atoms: C_1  and  C_2
REMARK    2  A    between atoms: C_4  and  C_5
REMARK    3  A    between atoms: C_5  and  O_7
REMARK    4  A    between atoms: O_7  and  C_8
REMARK    5  A    between atoms: C_8  and  C_9
REMARK    6  A    between atoms: C_15  and  C_16
REMARK    7  A    between atoms: C_16  and  C_17
REMARK    8  A    between atoms: C_16  and  C_18
REMARK                            x       y       z     vdW  Elec       q    Type
REMARK                         _______ _______ _______ _____ _____    ______ ____
ROOT
ATOM      1  O   UNL     1       1.815   8.050  17.815  0.00  0.00    +0.000 OA
ENDROOT
BRANCH   1   2
ATOM      2  C   UNL     1       2.225   7.282  18.855  0.00  0.00    +0.000 C 
ATOM      3  O   UNL     1       2.296   7.672  20.010  0.00  0.00    +0.000 OA
BRANCH   2   7
ATOM      4  C   UNL     1       1.205   2.398  18.594  0.00  0.00    +0.000 C 
ATOM      5  C   UNL     1       2.053   3.587  18.261  0.00  0.00    +0.000 A 
ATOM      6  C   UNL     1       1.753   4.847  18.741  0.00  0.00    +0.000 A 
ATOM      7  C   UNL     1       2.586   5.916  18.382  0.00  0.00    +0.000 A 
ATOM      8  C   UNL     1       3.712   5.702  17.547  0.00  0.00    +0.000 A 
ATOM      9  C   UNL     1       4.637   6.694  17.128  0.00  0.00    +0.000 A 
ATOM     10  C   UNL     1       5.714   6.383  16.295  0.00  0.00    +0.000 A 
ATOM     11  C   UNL     1       5.890   5.076  15.869  0.00  0.00    +0.000 A 
ATOM     12  C   UNL     1       4.992   4.092  16.283  0.00  0.00    +0.000 A 
ATOM     13  C   UNL     1       3.915   4.377  17.111  0.00  0.00    +0.000 A 
ATOM     14  N   UNL     1       3.115   3.359  17.461  0.00  0.00    +0.000 NA
ENDBRANCH   2   7
ENDBRANCH   1   2
BRANCH   1  15
ATOM     15  C   UNL     1       1.850   9.457  18.064  0.00  0.00    +0.000 C 
BRANCH  15  16
ATOM     16  C   UNL     1       0.474  10.044  18.395  0.00  0.00    +0.000 C 
ATOM     17  O   UNL     1       0.290  10.598  19.476  0.00  0.00    +0.000 OA
ATOM     18  N   UNL     1      -0.459   9.847  17.401  0.00  0.00    +0.000 N 
ATOM     19  C   UNL     1      -1.767  10.271  17.431  0.00  0.00    +0.000 A 
ATOM     20  N   UNL     1      -2.686   9.835  16.598  0.00  0.00    +0.000 NA
ATOM     21  N   UNL     1      -3.926  10.398  16.845  0.00  0.00    +0.000 NA
ATOM     22  C   UNL     1      -3.884  11.275  17.828  0.00  0.00    +0.000 A 
ATOM     23  S   UNL     1      -2.322  11.465  18.515  0.00  0.00    +0.000 S 
ATOM     24  H   UNL     1      -0.257   9.168  16.667  0.00  0.00    +0.000 HD
BRANCH  22  25
ATOM     25  C   UNL     1      -5.046  12.079  18.339  0.00  0.00    +0.000 C 
ATOM     26  C   UNL     1      -6.363  11.343  18.094  0.00  0.00    +0.000 C 
ATOM     27  C   UNL     1      -4.878  12.408  19.822  0.00  0.00    +0.000 C 
ENDBRANCH  22  25
ENDBRANCH  15  16
ENDBRANCH   1  15
TORSDOF 5
ENDMDL
MODEL 6
REMARK VINA RESULT:      -8.1      3.067      7.345
REMARK  Name = 
REMARK  8 active torsions:
REMARK  status: ('A' for Active; 'I' for Inactive)
REMARK    1  A    between atoms: C_1  and  C_2
REMARK    2  A    between atoms: C_4  and  C_5
REMARK    3  A    between atoms: C_5  and  O_7
REMARK    4  A    between atoms: O_7  and  C_8
REMARK    5  A    between atoms: C_8  and  C_9
REMARK    6  A    between atoms: C_15  and  C_16
REMARK    7  A    between atoms: C_16  and  C_17
REMARK    8  A    between atoms: C_16  and  C_18
REMARK                            x       y       z     vdW  Elec       q    Type
REMARK                         _______ _______ _______ _____ _____    ______ ____
ROOT
ATOM      1  O   UNL     1       3.680   4.330  18.551  0.00  0.00    +0.000 OA
ENDROOT
BRANCH   1   2
ATOM      2  C   UNL     1       4.993   4.042  18.738  0.00  0.00    +0.000 C 
ATOM      3  O   UNL     1       5.405   3.201  19.522  0.00  0.00    +0.000 OA
BRANCH   2   7
ATOM      4  C   UNL     1       8.126   7.899  18.228  0.00  0.00    +0.000 C 
ATOM      5  C   UNL     1       7.357   6.743  17.667  0.00  0.00    +0.000 A 
ATOM      6  C   UNL     1       6.525   5.974  18.458  0.00  0.00    +0.000 A 
ATOM      7  C   UNL     1       5.843   4.902  17.868  0.00  0.00    +0.000 A 
ATOM      8  C   UNL     1       6.003   4.619  16.488  0.00  0.00    +0.000 A 
ATOM      9  C   UNL     1       5.357   3.576  15.773  0.00  0.00    +0.000 A 
ATOM     10  C   UNL     1       5.588   3.373  14.411  0.00  0.00    +0.000 A 
ATOM     11  C   UNL     1       6.465   4.209  13.737  0.00  0.00    +0.000 A 
ATOM     12  C   UNL     1       7.097   5.243  14.429  0.00  0.00    +0.000 A 
ATOM     13  C   UNL     1       6.882   5.464  15.782  0.00  0.00    +0.000 A 
ATOM     14  N   UNL     1       7.531   6.490  16.353  0.00  0.00    +0.000 NA
ENDBRANCH   2   7
ENDBRANCH   1   2
BRANCH   1  15
ATOM     15  C   UNL     1       2.935   4.521  19.755  0.00  0.00    +0.000 C 
BRANCH  15  16
ATOM     16  C   UNL     1       2.267   5.898  19.837  0.00  0.00    +0.000 C 
ATOM     17  O   UNL     1       1.472   6.139  20.742  0.00  0.00    +0.000 OA
ATOM     18  N   UNL     1       2.629   6.745  18.812  0.00  0.00    +0.000 N 
ATOM     19  C   UNL     1       2.186   8.035  18.641  0.00  0.00    +0.000 A 
ATOM     20  N   UNL     1       2.338   8.708  17.522  0.00  0.00    +0.000 NA
ATOM     21  N   UNL     1       1.790   9.977  17.595  0.00  0.00    +0.000 NA
ATOM     22  C   UNL     1       1.285  10.230  18.786  0.00  0.00    +0.000 A 
ATOM     23  S   UNL     1       1.447   8.927  19.893  0.00  0.00    +0.000 S 
ATOM     24  H   UNL     1       3.098   6.353  17.996  0.00  0.00    +0.000 HD
BRANCH  22  25
ATOM     25  C   UNL     1       0.632  11.515  19.209  0.00  0.00    +0.000 C 
ATOM     26  C   UNL     1       0.590  11.625  20.733  0.00  0.00    +0.000 C 
ATOM     27  C   UNL     1       1.346  12.721  18.600  0.00  0.00    +0.000 C 
ENDBRANCH  22  25
ENDBRANCH  15  16
ENDBRANCH   1  15
TORSDOF 5
ENDMDL
MODEL 7
REMARK VINA RESULT:      -7.8      4.451      6.504
REMARK  Name = 
REMARK  8 active torsions:
REMARK  status: ('A' for Active; 'I' for Inactive)
REMARK    1  A    between atoms: C_1  and  C_2
REMARK    2  A    between atoms: C_4  and  C_5
REMARK    3  A    between atoms: C_5  and  O_7
REMARK    4  A    between atoms: O_7  and  C_8
REMARK    5  A    between atoms: C_8  and  C_9
REMARK    6  A    between atoms: C_15  and  C_16
REMARK    7  A    between atoms: C_16  and  C_17
REMARK    8  A    between atoms: C_16  and  C_18
REMARK                            x       y       z     vdW  Elec       q    Type
REMARK                         _______ _______ _______ _____ _____    ______ ____
ROOT
ATOM      1  O   UNL     1       6.687   5.915  18.931  0.00  0.00    +0.000 OA
ENDROOT
BRANCH   1   2
ATOM      2  C   UNL     1       6.055   5.232  17.944  0.00  0.00    +0.000 C 
ATOM      3  O   UNL     1       6.625   4.544  17.112  0.00  0.00    +0.000 OA
BRANCH   2   7
ATOM      4  C   UNL     1       2.158   8.356  17.837  0.00  0.00    +0.000 C 
ATOM      5  C   UNL     1       2.741   6.981  17.940  0.00  0.00    +0.000 A 
ATOM      6  C   UNL     1       4.107   6.771  17.926  0.00  0.00    +0.000 A 
ATOM      7  C   UNL     1       4.584   5.457  18.017  0.00  0.00    +0.000 A 
ATOM      8  C   UNL     1       3.680   4.369  18.125  0.00  0.00    +0.000 A 
ATOM      9  C   UNL     1       4.036   3.000  18.240  0.00  0.00    +0.000 A 
ATOM     10  C   UNL     1       3.068   1.998  18.333  0.00  0.00    +0.000 A 
ATOM     11  C   UNL     1       1.726   2.345  18.317  0.00  0.00    +0.000 A 
ATOM     12  C   UNL     1       1.366   3.689  18.214  0.00  0.00    +0.000 A 
ATOM     13  C   UNL     1       2.310   4.701  18.121  0.00  0.00    +0.000 A 
ATOM     14  N   UNL     1       1.862   5.963  18.035  0.00  0.00    +0.000 NA
ENDBRANCH   2   7
ENDBRANCH   1   2
BRANCH   1  15
ATOM     15  C   UNL     1       8.019   6.323  18.613  0.00  0.00    +0.000 C 
BRANCH  15  16
ATOM     16  C   UNL     1       8.112   7.791  18.180  0.00  0.00    +0.000 C 
ATOM     17  O   UNL     1       7.604   8.149  17.121  0.00  0.00    +0.000 OA
ATOM     18  N   UNL     1       8.820   8.578  19.062  0.00  0.00    +0.000 N 
ATOM     19  C   UNL     1       9.054   9.926  18.926  0.00  0.00    +0.000 A 
ATOM     20  N   UNL     1       9.949  10.578  19.634  0.00  0.00    +0.000 NA
ATOM     21  N   UNL     1      10.009  11.919  19.298  0.00  0.00    +0.000 NA
ATOM     22  C   UNL     1       9.120  12.238  18.378  0.00  0.00    +0.000 A 
ATOM     23  S   UNL     1       8.156  10.913  17.864  0.00  0.00    +0.000 S 
ATOM     24  H   UNL     1       9.395   8.123  19.771  0.00  0.00    +0.000 HD
BRANCH  22  25
ATOM     25  C   UNL     1       8.905  13.608  17.801  0.00  0.00    +0.000 C 
ATOM     26  C   UNL     1       7.414  13.899  17.637  0.00  0.00    +0.000 C 
ATOM     27  C   UNL     1       9.572  14.679  18.664  0.00  0.00    +0.000 C 
ENDBRANCH  22  25
ENDBRANCH  15  16
ENDBRANCH   1  15
TORSDOF 5
ENDMDL
MODEL 8
REMARK VINA RESULT:      -7.8      5.157      9.581
REMARK  Name = 
REMARK  8 active torsions:
REMARK  status: ('A' for Active; 'I' for Inactive)
REMARK    1  A    between atoms: C_1  and  C_2
REMARK    2  A    between atoms: C_4  and  C_5
REMARK    3  A    between atoms: C_5  and  O_7
REMARK    4  A    between atoms: O_7  and  C_8
REMARK    5  A    between atoms: C_8  and  C_9
REMARK    6  A    between atoms: C_15  and  C_16
REMARK    7  A    between atoms: C_16  and  C_17
REMARK    8  A    between atoms: C_16  and  C_18
REMARK                            x       y       z     vdW  Elec       q    Type
REMARK                         _______ _______ _______ _____ _____    ______ ____
ROOT
ATOM      1  O   UNL     1       1.640   7.804  18.115  0.00  0.00    +0.000 OA
ENDROOT
BRANCH   1   2
ATOM      2  C   UNL     1       2.246   7.029  19.050  0.00  0.00    +0.000 C 
ATOM      3  O   UNL     1       2.490   7.394  20.189  0.00  0.00    +0.000 OA
BRANCH   2   7
ATOM      4  C   UNL     1       1.210   2.165  18.574  0.00  0.00    +0.000 C 
ATOM      5  C   UNL     1       2.038   3.373  18.260  0.00  0.00    +0.000 A 
ATOM      6  C   UNL     1       1.767   4.604  18.826  0.00  0.00    +0.000 A 
ATOM      7  C   UNL     1       2.578   5.693  18.481  0.00  0.00    +0.000 A 
ATOM      8  C   UNL     1       3.655   5.529  17.573  0.00  0.00    +0.000 A 
ATOM      9  C   UNL     1       4.555   6.545  17.158  0.00  0.00    +0.000 A 
ATOM     10  C   UNL     1       5.583   6.284  16.250  0.00  0.00    +0.000 A 
ATOM     11  C   UNL     1       5.734   5.004  15.742  0.00  0.00    +0.000 A 
ATOM     12  C   UNL     1       4.860   3.996  16.151  0.00  0.00    +0.000 A 
ATOM     13  C   UNL     1       3.833   4.231  17.053  0.00  0.00    +0.000 A 
ATOM     14  N   UNL     1       3.053   3.193  17.390  0.00  0.00    +0.000 NA
ENDBRANCH   2   7
ENDBRANCH   1   2
BRANCH   1  15
ATOM     15  C   UNL     1       2.095   9.158  18.078  0.00  0.00    +0.000 C 
BRANCH  15  16
ATOM     16  C   UNL     1       1.189  10.119  18.856  0.00  0.00    +0.000 C 
ATOM     17  O   UNL     1       0.704  11.095  18.290  0.00  0.00    +0.000 OA
ATOM     18  N   UNL     1       1.038   9.777  20.183  0.00  0.00    +0.000 N 
ATOM     19  C   UNL     1       0.282  10.458  21.107  0.00  0.00    +0.000 A 
ATOM     20  N   UNL     1       0.378  10.262  22.403  0.00  0.00    +0.000 NA
ATOM     21  N   UNL     1      -0.474  11.082  23.122  0.00  0.00    +0.000 NA
ATOM     22  C   UNL     1      -1.217  11.835  22.334  0.00  0.00    +0.000 A 
ATOM     23  S   UNL     1      -0.916  11.586  20.662  0.00  0.00    +0.000 S 
ATOM     24  H   UNL     1       1.679   9.095  20.588  0.00  0.00    +0.000 HD
BRANCH  22  25
ATOM     25  C   UNL     1      -2.256  12.821  22.786  0.00  0.00    +0.000 C 
ATOM     26  C   UNL     1      -3.264  12.155  23.722  0.00  0.00    +0.000 C 
ATOM     27  C   UNL     1      -1.610  14.031  23.461  0.00  0.00    +0.000 C 
ENDBRANCH  22  25
ENDBRANCH  15  16
ENDBRANCH   1  15
TORSDOF 5
ENDMDL
MODEL 9
REMARK VINA RESULT:      -7.8      5.163      9.197
REMARK  Name = 
REMARK  8 active torsions:
REMARK  status: ('A' for Active; 'I' for Inactive)
REMARK    1  A    between atoms: C_1  and  C_2
REMARK    2  A    between atoms: C_4  and  C_5
REMARK    3  A    between atoms: C_5  and  O_7
REMARK    4  A    between atoms: O_7  and  C_8
REMARK    5  A    between atoms: C_8  and  C_9
REMARK    6  A    between atoms: C_15  and  C_16
REMARK    7  A    between atoms: C_16  and  C_17
REMARK    8  A    between atoms: C_16  and  C_18
REMARK                            x       y       z     vdW  Elec       q    Type
REMARK                         _______ _______ _______ _____ _____    ______ ____
ROOT
ATOM      1  O   UNL     1       1.805   7.963  17.732  0.00  0.00    +0.000 OA
ENDROOT
BRANCH   1   2
ATOM      2  C   UNL     1       2.473   7.201  18.635  0.00  0.00    +0.000 C 
ATOM      3  O   UNL     1       2.535   7.449  19.829  0.00  0.00    +0.000 OA
BRANCH   2   7
ATOM      4  C   UNL     1       6.129   5.383  15.756  0.00  0.00    +0.000 C 
ATOM      5  C   UNL     1       4.900   5.207  16.594  0.00  0.00    +0.000 A 
ATOM      6  C   UNL     1       4.263   6.283  17.181  0.00  0.00    +0.000 A 
ATOM      7  C   UNL     1       3.122   6.044  17.959  0.00  0.00    +0.000 A 
ATOM      8  C   UNL     1       2.635   4.723  18.134  0.00  0.00    +0.000 A 
ATOM      9  C   UNL     1       1.486   4.353  18.882  0.00  0.00    +0.000 A 
ATOM     10  C   UNL     1       1.092   3.019  19.003  0.00  0.00    +0.000 A 
ATOM     11  C   UNL     1       1.835   2.031  18.377  0.00  0.00    +0.000 A 
ATOM     12  C   UNL     1       2.960   2.385  17.632  0.00  0.00    +0.000 A 
ATOM     13  C   UNL     1       3.370   3.703  17.497  0.00  0.00    +0.000 A 
ATOM     14  N   UNL     1       4.460   3.941  16.752  0.00  0.00    +0.000 NA
ENDBRANCH   2   7
ENDBRANCH   1   2
BRANCH   1  15
ATOM     15  C   UNL     1       1.973   9.371  17.902  0.00  0.00    +0.000 C 
BRANCH  15  16
ATOM     16  C   UNL     1       0.840  10.021  18.703  0.00  0.00    +0.000 C 
ATOM     17  O   UNL     1       0.935  10.125  19.923  0.00  0.00    +0.000 OA
ATOM     18  N   UNL     1      -0.229  10.410  17.924  0.00  0.00    +0.000 N 
ATOM     19  C   UNL     1      -1.374  11.019  18.378  0.00  0.00    +0.000 A 
ATOM     20  N   UNL     1      -2.468  11.126  17.658  0.00  0.00    +0.000 NA
ATOM     21  N   UNL     1      -3.488  11.763  18.344  0.00  0.00    +0.000 NA
ATOM     22  C   UNL     1      -3.107  12.154  19.544  0.00  0.00    +0.000 A 
ATOM     23  S   UNL     1      -1.475  11.765  19.908  0.00  0.00    +0.000 S 
ATOM     24  H   UNL     1      -0.294  10.053  16.970  0.00  0.00    +0.000 HD
BRANCH  22  25
ATOM     25  C   UNL     1      -3.958  12.888  20.541  0.00  0.00    +0.000 C 
ATOM     26  C   UNL     1      -3.390  14.279  20.819  0.00  0.00    +0.000 C 
ATOM     27  C   UNL     1      -5.407  12.982  20.063  0.00  0.00    +0.000 C 
ENDBRANCH  22  25
ENDBRANCH  15  16
ENDBRANCH   1  15
TORSDOF 5
ENDMDL
