MODEL 1
REMARK VINA RESULT:      -7.4      0.000      0.000
REMARK  Name = 
REMARK  3 active torsions:
REMARK  status: ('A' for Active; 'I' for Inactive)
REMARK    1  A    between atoms: C_1  and  C_2
REMARK    2  A    between atoms: C_5  and  N_6
REMARK    3  A    between atoms: C_7  and  C_9
REMARK                            x       y       z     vdW  Elec       q    Type
REMARK                         _______ _______ _______ _____ _____    ______ ____
ROOT
ATOM      1  N   UNL     1       4.469   4.092  17.580  0.00  0.00    +0.000 N 
ATOM      2  C   UNL     1       5.821   4.271  17.394  0.00  0.00    +0.000 C 
ATOM      3  O   UNL     1       6.615   4.413  18.319  0.00  0.00    +0.000 OA
ATOM      4  H   UNL     1       3.909   3.835  16.780  0.00  0.00    +0.000 HD
ENDROOT
BRANCH   2   5
ATOM      5  C   UNL     1       6.234   4.297  16.004  0.00  0.00    +0.000 A 
ATOM      6  C   UNL     1       5.815   3.559  14.911  0.00  0.00    +0.000 A 
ATOM      7  C   UNL     1       6.469   4.048  13.746  0.00  0.00    +0.000 A 
ATOM      8  C   UNL     1       6.419   3.750  12.371  0.00  0.00    +0.000 A 
ATOM      9 CL   UNL     1       5.351   2.503  11.893  0.00  0.00    +0.000 Cl
ATOM     10  C   UNL     1       7.190   4.455  11.451  0.00  0.00    +0.000 A 
ATOM     11  C   UNL     1       8.038   5.465  11.901  0.00  0.00    +0.000 A 
ATOM     12  C   UNL     1       8.129   5.785  13.263  0.00  0.00    +0.000 A 
ATOM     13  C   UNL     1       7.326   5.067  14.163  0.00  0.00    +0.000 A 
ATOM     14  N   UNL     1       7.186   5.180  15.530  0.00  0.00    +0.000 N 
ATOM     15  H   UNL     1       7.674   5.844  16.116  0.00  0.00    +0.000 HD
ENDBRANCH   2   5
BRANCH   1  20
ATOM     16  C   UNL     1       1.191   2.619  22.087  0.00  0.00    +0.000 C 
ATOM     17  C   UNL     1       1.882   2.724  20.728  0.00  0.00    +0.000 C 
ATOM     18  C   UNL     1       1.589   4.080  20.074  0.00  0.00    +0.000 C 
ATOM     19  C   UNL     1       2.322   4.235  18.743  0.00  0.00    +0.000 C 
ATOM     20  C   UNL     1       3.833   4.008  18.885  0.00  0.00    +0.000 C 
ATOM     21  C   UNL     1       4.114   2.648  19.533  0.00  0.00    +0.000 C 
ATOM     22  C   UNL     1       3.393   2.502  20.871  0.00  0.00    +0.000 C 
ENDBRANCH   1  20
TORSDOF 2
ENDMDL
MODEL 2
REMARK VINA RESULT:      -7.4      4.730      6.280
REMARK  Name = 
REMARK  3 active torsions:
REMARK  status: ('A' for Active; 'I' for Inactive)
REMARK    1  A    between atoms: C_1  and  C_2
REMARK    2  A    between atoms: C_5  and  N_6
REMARK    3  A    between atoms: C_7  and  C_9
REMARK                            x       y       z     vdW  Elec       q    Type
REMARK                         _______ _______ _______ _____ _____    ______ ____
ROOT
ATOM      1  N   UNL     1       1.833   8.047  20.014  0.00  0.00    +0.000 N 
ATOM      2  C   UNL     1       2.101   6.698  20.048  0.00  0.00    +0.000 C 
ATOM      3  O   UNL     1       1.452   5.900  20.717  0.00  0.00    +0.000 OA
ATOM      4  H   UNL     1       2.315   8.611  19.327  0.00  0.00    +0.000 HD
ENDROOT
BRANCH   2   5
ATOM      5  C   UNL     1       3.232   6.294  19.235  0.00  0.00    +0.000 A 
ATOM      6  C   UNL     1       3.541   6.541  17.909  0.00  0.00    +0.000 A 
ATOM      7  C   UNL     1       4.827   6.000  17.626  0.00  0.00    +0.000 A 
ATOM      8  C   UNL     1       5.679   5.979  16.506  0.00  0.00    +0.000 A 
ATOM      9 CL   UNL     1       5.111   6.756  15.094  0.00  0.00    +0.000 Cl
ATOM     10  C   UNL     1       6.930   5.371  16.563  0.00  0.00    +0.000 A 
ATOM     11  C   UNL     1       7.340   4.758  17.745  0.00  0.00    +0.000 A 
ATOM     12  C   UNL     1       6.517   4.743  18.880  0.00  0.00    +0.000 A 
ATOM     13  C   UNL     1       5.268   5.380  18.796  0.00  0.00    +0.000 A 
ATOM     14  N   UNL     1       4.279   5.547  19.742  0.00  0.00    +0.000 N 
ATOM     15  H   UNL     1       4.319   5.214  20.695  0.00  0.00    +0.000 HD
ENDBRANCH   2   5
BRANCH   1  20
ATOM     16  C   UNL     1      -1.503  11.650  23.034  0.00  0.00    +0.000 C 
ATOM     17  C   UNL     1      -0.367  10.970  22.270  0.00  0.00    +0.000 C 
ATOM     18  C   UNL     1       0.051   9.668  22.966  0.00  0.00    +0.000 C 
ATOM     19  C   UNL     1       1.141   8.936  22.186  0.00  0.00    +0.000 C 
ATOM     20  C   UNL     1       0.733   8.676  20.729  0.00  0.00    +0.000 C 
ATOM     21  C   UNL     1       0.325   9.983  20.042  0.00  0.00    +0.000 C 
ATOM     22  C   UNL     1      -0.776  10.705  20.817  0.00  0.00    +0.000 C 
ENDBRANCH   1  20
TORSDOF 2
ENDMDL
MODEL 3
REMARK VINA RESULT:      -7.2      5.363      9.082
REMARK  Name = 
REMARK  3 active torsions:
REMARK  status: ('A' for Active; 'I' for Inactive)
REMARK    1  A    between atoms: C_1  and  C_2
REMARK    2  A    between atoms: C_5  and  N_6
REMARK    3  A    between atoms: C_7  and  C_9
REMARK                            x       y       z     vdW  Elec       q    Type
REMARK                         _______ _______ _______ _____ _____    ______ ____
ROOT
ATOM      1  N   UNL     1       3.393   7.035  18.709  0.00  0.00    +0.000 N 
ATOM      2  C   UNL     1       2.574   6.707  19.764  0.00  0.00    +0.000 C 
ATOM      3  O   UNL     1       2.493   5.574  20.227  0.00  0.00    +0.000 OA
ATOM      4  H   UNL     1       3.513   8.014  18.486  0.00  0.00    +0.000 HD
ENDROOT
BRANCH   2   5
ATOM      5  C   UNL     1       1.791   7.815  20.279  0.00  0.00    +0.000 A 
ATOM      6  C   UNL     1       1.197   8.890  19.641  0.00  0.00    +0.000 A 
ATOM      7  C   UNL     1       0.454   9.640  20.596  0.00  0.00    +0.000 A 
ATOM      8  C   UNL     1      -0.381  10.772  20.549  0.00  0.00    +0.000 A 
ATOM      9 CL   UNL     1      -0.607  11.497  19.018  0.00  0.00    +0.000 Cl
ATOM     10  C   UNL     1      -1.004  11.257  21.696  0.00  0.00    +0.000 A 
ATOM     11  C   UNL     1      -0.785  10.620  22.915  0.00  0.00    +0.000 A 
ATOM     12  C   UNL     1       0.050   9.498  23.010  0.00  0.00    +0.000 A 
ATOM     13  C   UNL     1       0.650   9.023  21.833  0.00  0.00    +0.000 A 
ATOM     14  N   UNL     1       1.480   7.943  21.620  0.00  0.00    +0.000 N 
ATOM     15  H   UNL     1       1.792   7.295  22.331  0.00  0.00    +0.000 HD
ENDBRANCH   2   5
BRANCH   1  20
ATOM     16  C   UNL     1       6.170   3.766  14.858  0.00  0.00    +0.000 C 
ATOM     17  C   UNL     1       5.251   4.755  15.575  0.00  0.00    +0.000 C 
ATOM     18  C   UNL     1       4.346   4.026  16.577  0.00  0.00    +0.000 C 
ATOM     19  C   UNL     1       3.463   5.000  17.354  0.00  0.00    +0.000 C 
ATOM     20  C   UNL     1       4.285   6.094  18.050  0.00  0.00    +0.000 C 
ATOM     21  C   UNL     1       5.179   6.821  17.040  0.00  0.00    +0.000 C 
ATOM     22  C   UNL     1       6.072   5.845  16.275  0.00  0.00    +0.000 C 
ENDBRANCH   1  20
TORSDOF 2
ENDMDL
MODEL 4
REMARK VINA RESULT:      -7.1      4.627      5.998
REMARK  Name = 
REMARK  3 active torsions:
REMARK  status: ('A' for Active; 'I' for Inactive)
REMARK    1  A    between atoms: C_1  and  C_2
REMARK    2  A    between atoms: C_5  and  N_6
REMARK    3  A    between atoms: C_7  and  C_9
REMARK                            x       y       z     vdW  Elec       q    Type
REMARK                         _______ _______ _______ _____ _____    ______ ____
ROOT
ATOM      1  N   UNL     1       1.993   7.890  19.616  0.00  0.00    +0.000 N 
ATOM      2  C   UNL     1       2.290   6.548  19.585  0.00  0.00    +0.000 C 
ATOM      3  O   UNL     1       1.716   5.715  20.280  0.00  0.00    +0.000 OA
ATOM      4  H   UNL     1       2.404   8.485  18.909  0.00  0.00    +0.000 HD
ENDROOT
BRANCH   2   5
ATOM      5  C   UNL     1       3.357   6.193  18.669  0.00  0.00    +0.000 A 
ATOM      6  C   UNL     1       4.590   6.775  18.432  0.00  0.00    +0.000 A 
ATOM      7  C   UNL     1       5.307   5.973  17.499  0.00  0.00    +0.000 A 
ATOM      8  C   UNL     1       6.591   6.014  16.925  0.00  0.00    +0.000 A 
ATOM      9 CL   UNL     1       7.601   7.312  17.391  0.00  0.00    +0.000 Cl
ATOM     10  C   UNL     1       7.016   5.029  16.037  0.00  0.00    +0.000 A 
ATOM     11  C   UNL     1       6.149   3.992  15.700  0.00  0.00    +0.000 A 
ATOM     12  C   UNL     1       4.856   3.921  16.238  0.00  0.00    +0.000 A 
ATOM     13  C   UNL     1       4.464   4.920  17.142  0.00  0.00    +0.000 A 
ATOM     14  N   UNL     1       3.286   5.090  17.840  0.00  0.00    +0.000 N 
ATOM     15  H   UNL     1       2.486   4.473  17.796  0.00  0.00    +0.000 HD
ENDBRANCH   2   5
BRANCH   1  20
ATOM     16  C   UNL     1      -1.165  11.342  22.984  0.00  0.00    +0.000 C 
ATOM     17  C   UNL     1      -0.084  10.710  22.108  0.00  0.00    +0.000 C 
ATOM     18  C   UNL     1       0.442   9.416  22.743  0.00  0.00    +0.000 C 
ATOM     19  C   UNL     1       1.478   8.731  21.855  0.00  0.00    +0.000 C 
ATOM     20  C   UNL     1       0.944   8.472  20.439  0.00  0.00    +0.000 C 
ATOM     21  C   UNL     1       0.429   9.772  19.811  0.00  0.00    +0.000 C 
ATOM     22  C   UNL     1      -0.618  10.446  20.695  0.00  0.00    +0.000 C 
ENDBRANCH   1  20
TORSDOF 2
ENDMDL
MODEL 5
REMARK VINA RESULT:      -7.0      6.143      9.562
REMARK  Name = 
REMARK  3 active torsions:
REMARK  status: ('A' for Active; 'I' for Inactive)
REMARK    1  A    between atoms: C_1  and  C_2
REMARK    2  A    between atoms: C_5  and  N_6
REMARK    3  A    between atoms: C_7  and  C_9
REMARK                            x       y       z     vdW  Elec       q    Type
REMARK                         _______ _______ _______ _____ _____    ______ ____
ROOT
ATOM      1  N   UNL     1       2.370   7.387  18.549  0.00  0.00    +0.000 N 
ATOM      2  C   UNL     1       1.948   8.665  18.268  0.00  0.00    +0.000 C 
ATOM      3  O   UNL     1       2.128   9.211  17.183  0.00  0.00    +0.000 OA
ATOM      4  H   UNL     1       2.054   6.959  19.408  0.00  0.00    +0.000 HD
ENDROOT
BRANCH   2   5
ATOM      5  C   UNL     1       1.282   9.330  19.371  0.00  0.00    +0.000 A 
ATOM      6  C   UNL     1       0.720  10.591  19.475  0.00  0.00    +0.000 A 
ATOM      7  C   UNL     1       0.099  10.715  20.750  0.00  0.00    +0.000 A 
ATOM      8  C   UNL     1      -0.657  11.708  21.401  0.00  0.00    +0.000 A 
ATOM      9 CL   UNL     1      -0.937  13.154  20.534  0.00  0.00    +0.000 Cl
ATOM     10  C   UNL     1      -1.165  11.504  22.682  0.00  0.00    +0.000 A 
ATOM     11  C   UNL     1      -0.908  10.301  23.336  0.00  0.00    +0.000 A 
ATOM     12  C   UNL     1      -0.147   9.291  22.729  0.00  0.00    +0.000 A 
ATOM     13  C   UNL     1       0.336   9.521  21.432  0.00  0.00    +0.000 A 
ATOM     14  N   UNL     1       1.073   8.714  20.591  0.00  0.00    +0.000 N 
ATOM     15  H   UNL     1       1.387   7.777  20.805  0.00  0.00    +0.000 HD
ENDBRANCH   2   5
BRANCH   1  20
ATOM     16  C   UNL     1       5.968   3.734  15.913  0.00  0.00    +0.000 C 
ATOM     17  C   UNL     1       5.240   4.642  16.904  0.00  0.00    +0.000 C 
ATOM     18  C   UNL     1       5.251   6.096  16.415  0.00  0.00    +0.000 C 
ATOM     19  C   UNL     1       4.474   7.014  17.356  0.00  0.00    +0.000 C 
ATOM     20  C   UNL     1       3.039   6.522  17.589  0.00  0.00    +0.000 C 
ATOM     21  C   UNL     1       3.040   5.072  18.083  0.00  0.00    +0.000 C 
ATOM     22  C   UNL     1       3.805   4.154  17.131  0.00  0.00    +0.000 C 
ENDBRANCH   1  20
TORSDOF 2
ENDMDL
MODEL 6
REMARK VINA RESULT:      -7.0      6.052      9.312
REMARK  Name = 
REMARK  3 active torsions:
REMARK  status: ('A' for Active; 'I' for Inactive)
REMARK    1  A    between atoms: C_1  and  C_2
REMARK    2  A    between atoms: C_5  and  N_6
REMARK    3  A    between atoms: C_7  and  C_9
REMARK                            x       y       z     vdW  Elec       q    Type
REMARK                         _______ _______ _______ _____ _____    ______ ____
ROOT
ATOM      1  N   UNL     1       2.053   6.633  20.065  0.00  0.00    +0.000 N 
ATOM      2  C   UNL     1       2.029   7.863  19.450  0.00  0.00    +0.000 C 
ATOM      3  O   UNL     1       2.638   8.111  18.414  0.00  0.00    +0.000 OA
ATOM      4  H   UNL     1       1.410   6.469  20.827  0.00  0.00    +0.000 HD
ENDROOT
BRANCH   2   5
ATOM      5  C   UNL     1       1.232   8.860  20.140  0.00  0.00    +0.000 A 
ATOM      6  C   UNL     1       0.660  10.040  19.699  0.00  0.00    +0.000 A 
ATOM      7  C   UNL     1      -0.112  10.602  20.754  0.00  0.00    +0.000 A 
ATOM      8  C   UNL     1      -0.943  11.729  20.895  0.00  0.00    +0.000 A 
ATOM      9 CL   UNL     1      -1.118  12.732  19.522  0.00  0.00    +0.000 Cl
ATOM     10  C   UNL     1      -1.603  11.994  22.092  0.00  0.00    +0.000 A 
ATOM     11  C   UNL     1      -1.425  11.136  23.176  0.00  0.00    +0.000 A 
ATOM     12  C   UNL     1      -0.595  10.010  23.083  0.00  0.00    +0.000 A 
ATOM     13  C   UNL     1       0.043   9.761  21.857  0.00  0.00    +0.000 A 
ATOM     14  N   UNL     1       0.878   8.734  21.470  0.00  0.00    +0.000 N 
ATOM     15  H   UNL     1       1.165   7.961  22.055  0.00  0.00    +0.000 HD
ENDBRANCH   2   5
BRANCH   1  20
ATOM     16  C   UNL     1       3.536   1.369  18.243  0.00  0.00    +0.000 C 
ATOM     17  C   UNL     1       2.810   2.601  18.781  0.00  0.00    +0.000 C 
ATOM     18  C   UNL     1       3.468   3.096  20.076  0.00  0.00    +0.000 C 
ATOM     19  C   UNL     1       2.801   4.366  20.599  0.00  0.00    +0.000 C 
ATOM     20  C   UNL     1       2.765   5.477  19.541  0.00  0.00    +0.000 C 
ATOM     21  C   UNL     1       2.099   4.975  18.255  0.00  0.00    +0.000 C 
ATOM     22  C   UNL     1       2.779   3.714  17.726  0.00  0.00    +0.000 C 
ENDBRANCH   1  20
TORSDOF 2
ENDMDL
MODEL 7
REMARK VINA RESULT:      -7.0      5.687      7.751
REMARK  Name = 
REMARK  3 active torsions:
REMARK  status: ('A' for Active; 'I' for Inactive)
REMARK    1  A    between atoms: C_1  and  C_2
REMARK    2  A    between atoms: C_5  and  N_6
REMARK    3  A    between atoms: C_7  and  C_9
REMARK                            x       y       z     vdW  Elec       q    Type
REMARK                         _______ _______ _______ _____ _____    ______ ____
ROOT
ATOM      1  N   UNL     1       1.404   8.722  19.441  0.00  0.00    +0.000 N 
ATOM      2  C   UNL     1       2.164   8.170  18.436  0.00  0.00    +0.000 C 
ATOM      3  O   UNL     1       2.516   8.793  17.439  0.00  0.00    +0.000 OA
ATOM      4  H   UNL     1       1.283   8.192  20.292  0.00  0.00    +0.000 HD
ENDROOT
BRANCH   2   5
ATOM      5  C   UNL     1       2.504   6.775  18.642  0.00  0.00    +0.000 A 
ATOM      6  C   UNL     1       2.349   5.949  19.741  0.00  0.00    +0.000 A 
ATOM      7  C   UNL     1       2.754   4.631  19.388  0.00  0.00    +0.000 A 
ATOM      8  C   UNL     1       2.777   3.383  20.040  0.00  0.00    +0.000 A 
ATOM      9 CL   UNL     1       2.215   3.348  21.653  0.00  0.00    +0.000 Cl
ATOM     10  C   UNL     1       3.220   2.236  19.386  0.00  0.00    +0.000 A 
ATOM     11  C   UNL     1       3.662   2.327  18.069  0.00  0.00    +0.000 A 
ATOM     12  C   UNL     1       3.669   3.552  17.386  0.00  0.00    +0.000 A 
ATOM     13  C   UNL     1       3.200   4.687  18.067  0.00  0.00    +0.000 A 
ATOM     14  N   UNL     1       3.065   5.994  17.649  0.00  0.00    +0.000 N 
ATOM     15  H   UNL     1       3.297   6.342  16.729  0.00  0.00    +0.000 HD
ENDBRANCH   2   5
BRANCH   1  20
ATOM     16  C   UNL     1      -1.549  13.615  20.195  0.00  0.00    +0.000 C 
ATOM     17  C   UNL     1      -1.062  12.167  20.169  0.00  0.00    +0.000 C 
ATOM     18  C   UNL     1      -0.890  11.678  18.725  0.00  0.00    +0.000 C 
ATOM     19  C   UNL     1      -0.341  10.254  18.671  0.00  0.00    +0.000 C 
ATOM     20  C   UNL     1       0.968  10.110  19.460  0.00  0.00    +0.000 C 
ATOM     21  C   UNL     1       0.783  10.593  20.903  0.00  0.00    +0.000 C 
ATOM     22  C   UNL     1       0.249  12.023  20.952  0.00  0.00    +0.000 C 
ENDBRANCH   1  20
TORSDOF 2
ENDMDL
MODEL 8
REMARK VINA RESULT:      -6.9      5.634      7.934
REMARK  Name = 
REMARK  3 active torsions:
REMARK  status: ('A' for Active; 'I' for Inactive)
REMARK    1  A    between atoms: C_1  and  C_2
REMARK    2  A    between atoms: C_5  and  N_6
REMARK    3  A    between atoms: C_7  and  C_9
REMARK                            x       y       z     vdW  Elec       q    Type
REMARK                         _______ _______ _______ _____ _____    ______ ____
ROOT
ATOM      1  N   UNL     1       0.915   8.181  20.997  0.00  0.00    +0.000 N 
ATOM      2  C   UNL     1       1.709   7.922  19.904  0.00  0.00    +0.000 C 
ATOM      3  O   UNL     1       2.143   8.799  19.164  0.00  0.00    +0.000 OA
ATOM      4  H   UNL     1       0.723   7.423  21.636  0.00  0.00    +0.000 HD
ENDROOT
BRANCH   2   5
ATOM      5  C   UNL     1       1.980   6.514  19.684  0.00  0.00    +0.000 A 
ATOM      6  C   UNL     1       1.863   5.418  20.521  0.00  0.00    +0.000 A 
ATOM      7  C   UNL     1       2.161   4.239  19.781  0.00  0.00    +0.000 A 
ATOM      8  C   UNL     1       2.161   2.859  20.056  0.00  0.00    +0.000 A 
ATOM      9 CL   UNL     1       1.726   2.391  21.642  0.00  0.00    +0.000 Cl
ATOM     10  C   UNL     1       2.483   1.927  19.073  0.00  0.00    +0.000 A 
ATOM     11  C   UNL     1       2.824   2.369  17.797  0.00  0.00    +0.000 A 
ATOM     12  C   UNL     1       2.850   3.735  17.483  0.00  0.00    +0.000 A 
ATOM     13  C   UNL     1       2.504   4.649  18.492  0.00  0.00    +0.000 A 
ATOM     14  N   UNL     1       2.414   6.024  18.466  0.00  0.00    +0.000 N 
ATOM     15  H   UNL     1       2.594   6.608  17.660  0.00  0.00    +0.000 HD
ENDBRANCH   2   5
BRANCH   1  20
ATOM     16  C   UNL     1      -2.001  12.936  22.452  0.00  0.00    +0.000 C 
ATOM     17  C   UNL     1      -1.572  11.536  22.014  0.00  0.00    +0.000 C 
ATOM     18  C   UNL     1      -0.740  11.602  20.727  0.00  0.00    +0.000 C 
ATOM     19  C   UNL     1      -0.244  10.221  20.303  0.00  0.00    +0.000 C 
ATOM     20  C   UNL     1       0.533   9.518  21.425  0.00  0.00    +0.000 C 
ATOM     21  C   UNL     1      -0.309   9.451  22.704  0.00  0.00    +0.000 C 
ATOM     22  C   UNL     1      -0.790  10.836  23.132  0.00  0.00    +0.000 C 
ENDBRANCH   1  20
TORSDOF 2
ENDMDL
MODEL 9
REMARK VINA RESULT:      -6.9      6.349      8.741
REMARK  Name = 
REMARK  3 active torsions:
REMARK  status: ('A' for Active; 'I' for Inactive)
REMARK    1  A    between atoms: C_1  and  C_2
REMARK    2  A    between atoms: C_5  and  N_6
REMARK    3  A    between atoms: C_7  and  C_9
REMARK                            x       y       z     vdW  Elec       q    Type
REMARK                         _______ _______ _______ _____ _____    ______ ____
ROOT
ATOM      1  N   UNL     1       2.178   7.000  18.906  0.00  0.00    +0.000 N 
ATOM      2  C   UNL     1       2.227   8.161  18.170  0.00  0.00    +0.000 C 
ATOM      3  O   UNL     1       2.833   8.260  17.108  0.00  0.00    +0.000 OA
ATOM      4  H   UNL     1       1.539   6.959  19.688  0.00  0.00    +0.000 HD
ENDROOT
BRANCH   2   5
ATOM      5  C   UNL     1       1.511   9.275  18.764  0.00  0.00    +0.000 A 
ATOM      6  C   UNL     1       0.931   9.429  20.011  0.00  0.00    +0.000 A 
ATOM      7  C   UNL     1       0.441  10.760  20.130  0.00  0.00    +0.000 A 
ATOM      8  C   UNL     1      -0.180  11.510  21.146  0.00  0.00    +0.000 A 
ATOM      9 CL   UNL     1      -0.469  10.706  22.627  0.00  0.00    +0.000 Cl
ATOM     10  C   UNL     1      -0.520  12.846  20.952  0.00  0.00    +0.000 A 
ATOM     11  C   UNL     1      -0.254  13.448  19.725  0.00  0.00    +0.000 A 
ATOM     12  C   UNL     1       0.351  12.734  18.680  0.00  0.00    +0.000 A 
ATOM     13  C   UNL     1       0.697  11.394  18.913  0.00  0.00    +0.000 A 
ATOM     14  N   UNL     1       1.317  10.470  18.098  0.00  0.00    +0.000 N 
ATOM     15  H   UNL     1       1.635  10.643  17.154  0.00  0.00    +0.000 HD
ENDBRANCH   2   5
BRANCH   1  20
ATOM     16  C   UNL     1       3.697   1.470  18.322  0.00  0.00    +0.000 C 
ATOM     17  C   UNL     1       3.054   2.796  18.728  0.00  0.00    +0.000 C 
ATOM     18  C   UNL     1       4.096   3.738  19.344  0.00  0.00    +0.000 C 
ATOM     19  C   UNL     1       3.492   5.095  19.699  0.00  0.00    +0.000 C 
ATOM     20  C   UNL     1       2.800   5.751  18.496  0.00  0.00    +0.000 C 
ATOM     21  C   UNL     1       1.756   4.805  17.893  0.00  0.00    +0.000 C 
ATOM     22  C   UNL     1       2.368   3.455  17.525  0.00  0.00    +0.000 C 
ENDBRANCH   1  20
TORSDOF 2
ENDMDL
