MODEL 1
REMARK VINA RESULT:      -6.9      0.000      0.000
REMARK  Name = 
REMARK  11 active torsions:
REMARK  status: ('A' for Active; 'I' for Inactive)
REMARK    1  A    between atoms: C_1  and  O_2
REMARK    2  A    between atoms: O_2  and  C_3
REMARK    3  A    between atoms: C_5  and  O_6
REMARK    4  A    between atoms: O_6  and  C_7
REMARK    5  A    between atoms: C_8  and  O_9
REMARK    6  A    between atoms: O_9  and  C_10
REMARK    7  A    between atoms: C_12  and  C_13
REMARK    8  A    between atoms: C_13  and  N_14
REMARK    9  A    between atoms: N_14  and  C_15
REMARK   10  A    between atoms: C_15  and  C_16
REMARK   11  A    between atoms: C_16  and  C_17
REMARK                            x       y       z     vdW  Elec       q    Type
REMARK                         _______ _______ _______ _____ _____    ______ ____
ROOT
ATOM      1  C   UNL     1       6.067   5.245  16.522  0.00  0.00    +0.000 A 
ATOM      2  C   UNL     1       4.945   4.399  16.465  0.00  0.00    +0.000 A 
ATOM      3  C   UNL     1       4.300   3.922  17.617  0.00  0.00    +0.000 A 
ATOM      4  C   UNL     1       4.853   4.200  18.865  0.00  0.00    +0.000 A 
ATOM      5  C   UNL     1       5.954   5.062  18.930  0.00  0.00    +0.000 A 
ATOM      6  C   UNL     1       6.556   5.627  17.773  0.00  0.00    +0.000 A 
ENDROOT
BRANCH   1   8
ATOM      7  C   UNL     1       6.979   5.016  14.284  0.00  0.00    +0.000 C 
ATOM      8  O   UNL     1       6.376   5.799  15.309  0.00  0.00    +0.000 OA
ENDBRANCH   1   8
BRANCH   3   9
ATOM      9  O   UNL     1       3.182   3.170  17.358  0.00  0.00    +0.000 OA
ATOM     10  C   UNL     1       1.927   3.834  17.499  0.00  0.00    +0.000 C 
ENDBRANCH   3   9
BRANCH   4  11
ATOM     11  O   UNL     1       4.277   3.655  19.981  0.00  0.00    +0.000 OA
ATOM     12  C   UNL     1       4.465   2.254  20.155  0.00  0.00    +0.000 C 
ENDBRANCH   4  11
BRANCH   6  13
ATOM     13  C   UNL     1       7.552   6.731  18.036  0.00  0.00    +0.000 C 
BRANCH  13  14
ATOM     14  N   UNL     1       7.221   7.950  17.289  0.00  0.00    +0.000 NA
ATOM     15  H   UNL     1       6.303   8.285  17.580  0.00  0.00    +0.000 HD
BRANCH  14  16
ATOM     16  C   UNL     1       8.211   9.016  17.481  0.00  0.00    +0.000 C 
BRANCH  16  17
ATOM     17  C   UNL     1       8.764   9.072  18.909  0.00  0.00    +0.000 C 
BRANCH  17  18
ATOM     18  C   UNL     1       9.397  10.395  19.247  0.00  0.00    +0.000 A 
ATOM     19  C   UNL     1      10.104  11.120  18.277  0.00  0.00    +0.000 A 
ATOM     20  C   UNL     1      10.758  12.302  18.619  0.00  0.00    +0.000 A 
ATOM     21  C   UNL     1      10.707  12.776  19.932  0.00  0.00    +0.000 A 
ATOM     22  C   UNL     1       9.982  12.070  20.882  0.00  0.00    +0.000 A 
ATOM     23  F   UNL     1       9.930  12.525  22.143  0.00  0.00    +0.000 F 
ATOM     24  C   UNL     1       9.320  10.897  20.553  0.00  0.00    +0.000 A 
ENDBRANCH  17  18
ENDBRANCH  16  17
ENDBRANCH  14  16
ENDBRANCH  13  14
ENDBRANCH   6  13
TORSDOF 8
ENDMDL
MODEL 2
REMARK VINA RESULT:      -6.8      3.990      6.457
REMARK  Name = 
REMARK  11 active torsions:
REMARK  status: ('A' for Active; 'I' for Inactive)
REMARK    1  A    between atoms: C_1  and  O_2
REMARK    2  A    between atoms: O_2  and  C_3
REMARK    3  A    between atoms: C_5  and  O_6
REMARK    4  A    between atoms: O_6  and  C_7
REMARK    5  A    between atoms: C_8  and  O_9
REMARK    6  A    between atoms: O_9  and  C_10
REMARK    7  A    between atoms: C_12  and  C_13
REMARK    8  A    between atoms: C_13  and  N_14
REMARK    9  A    between atoms: N_14  and  C_15
REMARK   10  A    between atoms: C_15  and  C_16
REMARK   11  A    between atoms: C_16  and  C_17
REMARK                            x       y       z     vdW  Elec       q    Type
REMARK                         _______ _______ _______ _____ _____    ______ ____
ROOT
ATOM      1  C   UNL     1       1.673   4.796  20.104  0.00  0.00    +0.000 A 
ATOM      2  C   UNL     1       1.737   6.042  20.752  0.00  0.00    +0.000 A 
ATOM      3  C   UNL     1       2.026   7.234  20.071  0.00  0.00    +0.000 A 
ATOM      4  C   UNL     1       2.377   7.174  18.723  0.00  0.00    +0.000 A 
ATOM      5  C   UNL     1       2.290   5.942  18.066  0.00  0.00    +0.000 A 
ATOM      6  C   UNL     1       1.904   4.744  18.727  0.00  0.00    +0.000 A 
ENDROOT
BRANCH   1   8
ATOM      7  C   UNL     1       1.948   2.832  21.504  0.00  0.00    +0.000 C 
ATOM      8  O   UNL     1       1.125   3.817  20.887  0.00  0.00    +0.000 OA
ENDBRANCH   1   8
BRANCH   3   9
ATOM      9  O   UNL     1       1.971   8.355  20.860  0.00  0.00    +0.000 OA
ATOM     10  C   UNL     1       0.757   8.561  21.581  0.00  0.00    +0.000 C 
ENDBRANCH   3   9
BRANCH   4  11
ATOM     11  O   UNL     1       2.750   8.326  18.085  0.00  0.00    +0.000 OA
ATOM     12  C   UNL     1       1.692   9.215  17.741  0.00  0.00    +0.000 C 
ENDBRANCH   4  11
BRANCH   6  13
ATOM     13  C   UNL     1       1.609   3.572  17.822  0.00  0.00    +0.000 C 
BRANCH  13  14
ATOM     14  N   UNL     1       2.839   2.951  17.319  0.00  0.00    +0.000 NA
ATOM     15  H   UNL     1       2.874   3.045  16.305  0.00  0.00    +0.000 HD
BRANCH  14  16
ATOM     16  C   UNL     1       4.049   3.542  17.904  0.00  0.00    +0.000 C 
BRANCH  16  17
ATOM     17  C   UNL     1       5.035   4.058  16.849  0.00  0.00    +0.000 C 
BRANCH  17  18
ATOM     18  C   UNL     1       5.972   5.109  17.380  0.00  0.00    +0.000 A 
ATOM     19  C   UNL     1       6.016   6.387  16.804  0.00  0.00    +0.000 A 
ATOM     20  C   UNL     1       6.946   7.326  17.247  0.00  0.00    +0.000 A 
ATOM     21  C   UNL     1       7.836   7.002  18.273  0.00  0.00    +0.000 A 
ATOM     22  C   UNL     1       7.769   5.746  18.859  0.00  0.00    +0.000 A 
ATOM     23  F   UNL     1       8.621   5.433  19.847  0.00  0.00    +0.000 F 
ATOM     24  C   UNL     1       6.844   4.805  18.435  0.00  0.00    +0.000 A 
ENDBRANCH  17  18
ENDBRANCH  16  17
ENDBRANCH  14  16
ENDBRANCH  13  14
ENDBRANCH   6  13
TORSDOF 8
ENDMDL
MODEL 3
REMARK VINA RESULT:      -6.7      5.184      6.877
REMARK  Name = 
REMARK  11 active torsions:
REMARK  status: ('A' for Active; 'I' for Inactive)
REMARK    1  A    between atoms: C_1  and  O_2
REMARK    2  A    between atoms: O_2  and  C_3
REMARK    3  A    between atoms: C_5  and  O_6
REMARK    4  A    between atoms: O_6  and  C_7
REMARK    5  A    between atoms: C_8  and  O_9
REMARK    6  A    between atoms: O_9  and  C_10
REMARK    7  A    between atoms: C_12  and  C_13
REMARK    8  A    between atoms: C_13  and  N_14
REMARK    9  A    between atoms: N_14  and  C_15
REMARK   10  A    between atoms: C_15  and  C_16
REMARK   11  A    between atoms: C_16  and  C_17
REMARK                            x       y       z     vdW  Elec       q    Type
REMARK                         _______ _______ _______ _____ _____    ______ ____
ROOT
ATOM      1  C   UNL     1       2.758   6.310  18.560  0.00  0.00    +0.000 A 
ATOM      2  C   UNL     1       2.055   5.673  19.599  0.00  0.00    +0.000 A 
ATOM      3  C   UNL     1       2.004   4.277  19.730  0.00  0.00    +0.000 A 
ATOM      4  C   UNL     1       2.571   3.483  18.736  0.00  0.00    +0.000 A 
ATOM      5  C   UNL     1       3.295   4.110  17.714  0.00  0.00    +0.000 A 
ATOM      6  C   UNL     1       3.434   5.521  17.626  0.00  0.00    +0.000 A 
ENDROOT
BRANCH   1   8
ATOM      7  C   UNL     1       2.107   8.589  18.039  0.00  0.00    +0.000 C 
ATOM      8  O   UNL     1       2.901   7.655  18.764  0.00  0.00    +0.000 OA
ENDBRANCH   1   8
BRANCH   3   9
ATOM      9  O   UNL     1       1.331   3.847  20.846  0.00  0.00    +0.000 OA
ATOM     10  C   UNL     1       2.080   3.063  21.773  0.00  0.00    +0.000 C 
ENDBRANCH   3   9
BRANCH   4  11
ATOM     11  O   UNL     1       2.438   2.123  18.817  0.00  0.00    +0.000 OA
ATOM     12  C   UNL     1       3.608   1.367  18.523  0.00  0.00    +0.000 C 
ENDBRANCH   4  11
BRANCH   6  13
ATOM     13  C   UNL     1       4.455   6.009  16.628  0.00  0.00    +0.000 C 
BRANCH  13  14
ATOM     14  N   UNL     1       5.622   6.601  17.291  0.00  0.00    +0.000 NA
ATOM     15  H   UNL     1       5.550   6.452  18.297  0.00  0.00    +0.000 HD
BRANCH  14  16
ATOM     16  C   UNL     1       6.891   6.043  16.806  0.00  0.00    +0.000 C 
BRANCH  16  17
ATOM     17  C   UNL     1       6.756   4.606  16.291  0.00  0.00    +0.000 C 
BRANCH  17  18
ATOM     18  C   UNL     1       6.916   4.496  14.798  0.00  0.00    +0.000 A 
ATOM     19  C   UNL     1       7.818   5.322  14.112  0.00  0.00    +0.000 A 
ATOM     20  C   UNL     1       7.898   5.273  12.721  0.00  0.00    +0.000 A 
ATOM     21  C   UNL     1       7.084   4.394  12.003  0.00  0.00    +0.000 A 
ATOM     22  C   UNL     1       6.215   3.558  12.688  0.00  0.00    +0.000 A 
ATOM     23  F   UNL     1       5.435   2.710  12.001  0.00  0.00    +0.000 F 
ATOM     24  C   UNL     1       6.131   3.591  14.072  0.00  0.00    +0.000 A 
ENDBRANCH  17  18
ENDBRANCH  16  17
ENDBRANCH  14  16
ENDBRANCH  13  14
ENDBRANCH   6  13
TORSDOF 8
ENDMDL
MODEL 4
REMARK VINA RESULT:      -6.7      4.572      7.258
REMARK  Name = 
REMARK  11 active torsions:
REMARK  status: ('A' for Active; 'I' for Inactive)
REMARK    1  A    between atoms: C_1  and  O_2
REMARK    2  A    between atoms: O_2  and  C_3
REMARK    3  A    between atoms: C_5  and  O_6
REMARK    4  A    between atoms: O_6  and  C_7
REMARK    5  A    between atoms: C_8  and  O_9
REMARK    6  A    between atoms: O_9  and  C_10
REMARK    7  A    between atoms: C_12  and  C_13
REMARK    8  A    between atoms: C_13  and  N_14
REMARK    9  A    between atoms: N_14  and  C_15
REMARK   10  A    between atoms: C_15  and  C_16
REMARK   11  A    between atoms: C_16  and  C_17
REMARK                            x       y       z     vdW  Elec       q    Type
REMARK                         _______ _______ _______ _____ _____    ______ ____
ROOT
ATOM      1  C   UNL     1       4.524   2.970  19.060  0.00  0.00    +0.000 A 
ATOM      2  C   UNL     1       5.484   3.998  19.059  0.00  0.00    +0.000 A 
ATOM      3  C   UNL     1       5.736   4.795  17.933  0.00  0.00    +0.000 A 
ATOM      4  C   UNL     1       5.098   4.489  16.732  0.00  0.00    +0.000 A 
ATOM      5  C   UNL     1       4.123   3.485  16.732  0.00  0.00    +0.000 A 
ATOM      6  C   UNL     1       3.792   2.736  17.894  0.00  0.00    +0.000 A 
ENDROOT
BRANCH   1   8
ATOM      7  C   UNL     1       4.983   1.401  20.855  0.00  0.00    +0.000 C 
ATOM      8  O   UNL     1       4.252   2.499  20.316  0.00  0.00    +0.000 OA
ENDBRANCH   1   8
BRANCH   3   9
ATOM      9  O   UNL     1       6.654   5.791  18.149  0.00  0.00    +0.000 OA
ATOM     10  C   UNL     1       7.512   5.626  19.276  0.00  0.00    +0.000 C 
ENDBRANCH   3   9
BRANCH   4  11
ATOM     11  O   UNL     1       5.415   5.207  15.611  0.00  0.00    +0.000 OA
ATOM     12  C   UNL     1       5.076   6.590  15.645  0.00  0.00    +0.000 C 
ENDBRANCH   4  11
BRANCH   6  13
ATOM     13  C   UNL     1       2.548   1.887  17.784  0.00  0.00    +0.000 C 
BRANCH  13  14
ATOM     14  N   UNL     1       1.803   1.849  19.047  0.00  0.00    +0.000 NA
ATOM     15  H   UNL     1       2.458   1.902  19.826  0.00  0.00    +0.000 HD
BRANCH  14  16
ATOM     16  C   UNL     1       0.826   2.939  19.159  0.00  0.00    +0.000 C 
BRANCH  16  17
ATOM     17  C   UNL     1       1.111   3.882  20.333  0.00  0.00    +0.000 C 
BRANCH  17  18
ATOM     18  C   UNL     1       1.485   5.273  19.896  0.00  0.00    +0.000 A 
ATOM     19  C   UNL     1       1.975   5.511  18.605  0.00  0.00    +0.000 A 
ATOM     20  C   UNL     1       2.399   6.787  18.237  0.00  0.00    +0.000 A 
ATOM     21  C   UNL     1       2.330   7.839  19.152  0.00  0.00    +0.000 A 
ATOM     22  C   UNL     1       1.817   7.605  20.420  0.00  0.00    +0.000 A 
ATOM     23  F   UNL     1       1.747   8.615  21.300  0.00  0.00    +0.000 F 
ATOM     24  C   UNL     1       1.384   6.343  20.796  0.00  0.00    +0.000 A 
ENDBRANCH  17  18
ENDBRANCH  16  17
ENDBRANCH  14  16
ENDBRANCH  13  14
ENDBRANCH   6  13
TORSDOF 8
ENDMDL
MODEL 5
REMARK VINA RESULT:      -6.7      4.834      6.991
REMARK  Name = 
REMARK  11 active torsions:
REMARK  status: ('A' for Active; 'I' for Inactive)
REMARK    1  A    between atoms: C_1  and  O_2
REMARK    2  A    between atoms: O_2  and  C_3
REMARK    3  A    between atoms: C_5  and  O_6
REMARK    4  A    between atoms: O_6  and  C_7
REMARK    5  A    between atoms: C_8  and  O_9
REMARK    6  A    between atoms: O_9  and  C_10
REMARK    7  A    between atoms: C_12  and  C_13
REMARK    8  A    between atoms: C_13  and  N_14
REMARK    9  A    between atoms: N_14  and  C_15
REMARK   10  A    between atoms: C_15  and  C_16
REMARK   11  A    between atoms: C_16  and  C_17
REMARK                            x       y       z     vdW  Elec       q    Type
REMARK                         _______ _______ _______ _____ _____    ______ ____
ROOT
ATOM      1  C   UNL     1       4.147   4.498  17.117  0.00  0.00    +0.000 A 
ATOM      2  C   UNL     1       4.980   4.372  15.990  0.00  0.00    +0.000 A 
ATOM      3  C   UNL     1       6.180   5.085  15.856  0.00  0.00    +0.000 A 
ATOM      4  C   UNL     1       6.510   6.041  16.815  0.00  0.00    +0.000 A 
ATOM      5  C   UNL     1       5.700   6.152  17.951  0.00  0.00    +0.000 A 
ATOM      6  C   UNL     1       4.532   5.365  18.142  0.00  0.00    +0.000 A 
ENDROOT
BRANCH   1   8
ATOM      7  C   UNL     1       3.414   2.300  17.841  0.00  0.00    +0.000 C 
ATOM      8  O   UNL     1       3.177   3.534  17.171  0.00  0.00    +0.000 OA
ENDBRANCH   1   8
BRANCH   3   9
ATOM      9  O   UNL     1       6.889   4.774  14.723  0.00  0.00    +0.000 OA
ATOM     10  C   UNL     1       6.268   3.861  13.819  0.00  0.00    +0.000 C 
ENDBRANCH   3   9
BRANCH   4  11
ATOM     11  O   UNL     1       7.633   6.802  16.633  0.00  0.00    +0.000 OA
ATOM     12  C   UNL     1       7.764   7.929  17.494  0.00  0.00    +0.000 C 
ENDBRANCH   4  11
BRANCH   6  13
ATOM     13  C   UNL     1       3.932   5.423  19.526  0.00  0.00    +0.000 C 
BRANCH  13  14
ATOM     14  N   UNL     1       2.493   5.703  19.482  0.00  0.00    +0.000 NA
ATOM     15  H   UNL     1       2.016   5.128  20.176  0.00  0.00    +0.000 HD
BRANCH  14  16
ATOM     16  C   UNL     1       2.184   7.117  19.727  0.00  0.00    +0.000 C 
BRANCH  16  17
ATOM     17  C   UNL     1       1.366   7.339  21.004  0.00  0.00    +0.000 C 
BRANCH  17  18
ATOM     18  C   UNL     1       0.782   8.723  21.098  0.00  0.00    +0.000 A 
ATOM     19  C   UNL     1       0.170   9.164  22.279  0.00  0.00    +0.000 A 
ATOM     20  C   UNL     1      -0.443  10.415  22.330  0.00  0.00    +0.000 A 
ATOM     21  C   UNL     1      -0.444  11.242  21.204  0.00  0.00    +0.000 A 
ATOM     22  C   UNL     1       0.189  10.813  20.046  0.00  0.00    +0.000 A 
ATOM     23  F   UNL     1       0.192  11.606  18.964  0.00  0.00    +0.000 F 
ATOM     24  C   UNL     1       0.810   9.574  19.984  0.00  0.00    +0.000 A 
ENDBRANCH  17  18
ENDBRANCH  16  17
ENDBRANCH  14  16
ENDBRANCH  13  14
ENDBRANCH   6  13
TORSDOF 8
ENDMDL
MODEL 6
REMARK VINA RESULT:      -6.6      1.654      2.035
REMARK  Name = 
REMARK  11 active torsions:
REMARK  status: ('A' for Active; 'I' for Inactive)
REMARK    1  A    between atoms: C_1  and  O_2
REMARK    2  A    between atoms: O_2  and  C_3
REMARK    3  A    between atoms: C_5  and  O_6
REMARK    4  A    between atoms: O_6  and  C_7
REMARK    5  A    between atoms: C_8  and  O_9
REMARK    6  A    between atoms: O_9  and  C_10
REMARK    7  A    between atoms: C_12  and  C_13
REMARK    8  A    between atoms: C_13  and  N_14
REMARK    9  A    between atoms: N_14  and  C_15
REMARK   10  A    between atoms: C_15  and  C_16
REMARK   11  A    between atoms: C_16  and  C_17
REMARK                            x       y       z     vdW  Elec       q    Type
REMARK                         _______ _______ _______ _____ _____    ______ ____
ROOT
ATOM      1  C   UNL     1       5.151   5.000  16.529  0.00  0.00    +0.000 A 
ATOM      2  C   UNL     1       4.336   3.907  16.877  0.00  0.00    +0.000 A 
ATOM      3  C   UNL     1       3.634   3.846  18.090  0.00  0.00    +0.000 A 
ATOM      4  C   UNL     1       3.836   4.845  19.040  0.00  0.00    +0.000 A 
ATOM      5  C   UNL     1       4.624   5.948  18.690  0.00  0.00    +0.000 A 
ATOM      6  C   UNL     1       5.263   6.065  17.425  0.00  0.00    +0.000 A 
ENDROOT
BRANCH   1   8
ATOM      7  C   UNL     1       6.191   3.852  14.660  0.00  0.00    +0.000 C 
ATOM      8  O   UNL     1       5.527   4.984  15.213  0.00  0.00    +0.000 OA
ENDBRANCH   1   8
BRANCH   3   9
ATOM      9  O   UNL     1       2.838   2.736  18.216  0.00  0.00    +0.000 OA
ATOM     10  C   UNL     1       3.511   1.485  18.347  0.00  0.00    +0.000 C 
ENDBRANCH   3   9
BRANCH   4  11
ATOM     11  O   UNL     1       3.224   4.734  20.259  0.00  0.00    +0.000 OA
ATOM     12  C   UNL     1       1.978   5.411  20.390  0.00  0.00    +0.000 C 
ENDBRANCH   4  11
BRANCH   6  13
ATOM     13  C   UNL     1       5.847   7.423  17.120  0.00  0.00    +0.000 C 
BRANCH  13  14
ATOM     14  N   UNL     1       7.304   7.438  17.294  0.00  0.00    +0.000 NA
ATOM     15  H   UNL     1       7.747   7.049  16.463  0.00  0.00    +0.000 HD
BRANCH  14  16
ATOM     16  C   UNL     1       7.830   8.787  17.538  0.00  0.00    +0.000 C 
BRANCH  16  17
ATOM     17  C   UNL     1       8.733   8.864  18.773  0.00  0.00    +0.000 C 
BRANCH  17  18
ATOM     18  C   UNL     1       9.293  10.241  19.011  0.00  0.00    +0.000 A 
ATOM     19  C   UNL     1       9.487  10.721  20.314  0.00  0.00    +0.000 A 
ATOM     20  C   UNL     1       9.926  12.028  20.525  0.00  0.00    +0.000 A 
ATOM     21  C   UNL     1      10.182  12.865  19.436  0.00  0.00    +0.000 A 
ATOM     22  C   UNL     1      10.017  12.376  18.148  0.00  0.00    +0.000 A 
ATOM     23  F   UNL     1      10.266  13.177  17.102  0.00  0.00    +0.000 F 
ATOM     24  C   UNL     1       9.589  11.076  17.924  0.00  0.00    +0.000 A 
ENDBRANCH  17  18
ENDBRANCH  16  17
ENDBRANCH  14  16
ENDBRANCH  13  14
ENDBRANCH   6  13
TORSDOF 8
ENDMDL
MODEL 7
REMARK VINA RESULT:      -6.6      5.745      7.656
REMARK  Name = 
REMARK  11 active torsions:
REMARK  status: ('A' for Active; 'I' for Inactive)
REMARK    1  A    between atoms: C_1  and  O_2
REMARK    2  A    between atoms: O_2  and  C_3
REMARK    3  A    between atoms: C_5  and  O_6
REMARK    4  A    between atoms: O_6  and  C_7
REMARK    5  A    between atoms: C_8  and  O_9
REMARK    6  A    between atoms: O_9  and  C_10
REMARK    7  A    between atoms: C_12  and  C_13
REMARK    8  A    between atoms: C_13  and  N_14
REMARK    9  A    between atoms: N_14  and  C_15
REMARK   10  A    between atoms: C_15  and  C_16
REMARK   11  A    between atoms: C_16  and  C_17
REMARK                            x       y       z     vdW  Elec       q    Type
REMARK                         _______ _______ _______ _____ _____    ______ ____
ROOT
ATOM      1  C   UNL     1       4.395   5.584  17.184  0.00  0.00    +0.000 A 
ATOM      2  C   UNL     1       4.149   4.199  17.174  0.00  0.00    +0.000 A 
ATOM      3  C   UNL     1       2.998   3.632  17.740  0.00  0.00    +0.000 A 
ATOM      4  C   UNL     1       2.115   4.452  18.440  0.00  0.00    +0.000 A 
ATOM      5  C   UNL     1       2.339   5.834  18.431  0.00  0.00    +0.000 A 
ATOM      6  C   UNL     1       3.453   6.427  17.777  0.00  0.00    +0.000 A 
ENDROOT
BRANCH   1   8
ATOM      7  C   UNL     1       6.713   6.241  16.891  0.00  0.00    +0.000 C 
ATOM      8  O   UNL     1       5.425   5.946  16.359  0.00  0.00    +0.000 OA
ENDBRANCH   1   8
BRANCH   3   9
ATOM      9  O   UNL     1       2.902   2.275  17.568  0.00  0.00    +0.000 OA
ATOM     10  C   UNL     1       3.603   1.466  18.512  0.00  0.00    +0.000 C 
ENDBRANCH   3   9
BRANCH   4  11
ATOM     11  O   UNL     1       1.042   3.884  19.072  0.00  0.00    +0.000 OA
ATOM     12  C   UNL     1       1.138   3.788  20.490  0.00  0.00    +0.000 C 
ENDBRANCH   4  11
BRANCH   6  13
ATOM     13  C   UNL     1       3.398   7.930  17.641  0.00  0.00    +0.000 C 
BRANCH  13  14
ATOM     14  N   UNL     1       2.019   8.412  17.505  0.00  0.00    +0.000 NA
ATOM     15  H   UNL     1       1.386   7.757  17.963  0.00  0.00    +0.000 HD
BRANCH  14  16
ATOM     16  C   UNL     1       1.830   9.751  18.077  0.00  0.00    +0.000 C 
BRANCH  16  17
ATOM     17  C   UNL     1       0.723   9.800  19.136  0.00  0.00    +0.000 C 
BRANCH  17  18
ATOM     18  C   UNL     1      -0.585  10.315  18.599  0.00  0.00    +0.000 A 
ATOM     19  C   UNL     1      -1.277  11.341  19.258  0.00  0.00    +0.000 A 
ATOM     20  C   UNL     1      -2.528  11.752  18.802  0.00  0.00    +0.000 A 
ATOM     21  C   UNL     1      -3.098  11.149  17.678  0.00  0.00    +0.000 A 
ATOM     22  C   UNL     1      -2.397  10.154  17.012  0.00  0.00    +0.000 A 
ATOM     23  F   UNL     1      -2.941   9.575  15.931  0.00  0.00    +0.000 F 
ATOM     24  C   UNL     1      -1.148   9.741  17.450  0.00  0.00    +0.000 A 
ENDBRANCH  17  18
ENDBRANCH  16  17
ENDBRANCH  14  16
ENDBRANCH  13  14
ENDBRANCH   6  13
TORSDOF 8
ENDMDL
MODEL 8
REMARK VINA RESULT:      -6.6      5.464      7.270
REMARK  Name = 
REMARK  11 active torsions:
REMARK  status: ('A' for Active; 'I' for Inactive)
REMARK    1  A    between atoms: C_1  and  O_2
REMARK    2  A    between atoms: O_2  and  C_3
REMARK    3  A    between atoms: C_5  and  O_6
REMARK    4  A    between atoms: O_6  and  C_7
REMARK    5  A    between atoms: C_8  and  O_9
REMARK    6  A    between atoms: O_9  and  C_10
REMARK    7  A    between atoms: C_12  and  C_13
REMARK    8  A    between atoms: C_13  and  N_14
REMARK    9  A    between atoms: N_14  and  C_15
REMARK   10  A    between atoms: C_15  and  C_16
REMARK   11  A    between atoms: C_16  and  C_17
REMARK                            x       y       z     vdW  Elec       q    Type
REMARK                         _______ _______ _______ _____ _____    ______ ____
ROOT
ATOM      1  C   UNL     1       3.877   4.446  18.958  0.00  0.00    +0.000 A 
ATOM      2  C   UNL     1       2.947   3.890  19.856  0.00  0.00    +0.000 A 
ATOM      3  C   UNL     1       1.957   4.656  20.488  0.00  0.00    +0.000 A 
ATOM      4  C   UNL     1       1.958   6.039  20.314  0.00  0.00    +0.000 A 
ATOM      5  C   UNL     1       2.863   6.595  19.402  0.00  0.00    +0.000 A 
ATOM      6  C   UNL     1       3.808   5.814  18.684  0.00  0.00    +0.000 A 
ENDROOT
BRANCH   1   8
ATOM      7  C   UNL     1       3.938   2.303  17.820  0.00  0.00    +0.000 C 
ATOM      8  O   UNL     1       4.575   3.498  18.262  0.00  0.00    +0.000 OA
ENDBRANCH   1   8
BRANCH   3   9
ATOM      9  O   UNL     1       1.100   3.924  21.270  0.00  0.00    +0.000 OA
ATOM     10  C   UNL     1       1.512   2.594  21.584  0.00  0.00    +0.000 C 
ENDBRANCH   3   9
BRANCH   4  11
ATOM     11  O   UNL     1       1.050   6.794  21.006  0.00  0.00    +0.000 OA
ATOM     12  C   UNL     1       1.352   8.182  21.112  0.00  0.00    +0.000 C 
ENDBRANCH   4  11
BRANCH   6  13
ATOM     13  C   UNL     1       4.517   6.529  17.560  0.00  0.00    +0.000 C 
BRANCH  13  14
ATOM     14  N   UNL     1       5.973   6.364  17.644  0.00  0.00    +0.000 NA
ATOM     15  H   UNL     1       6.207   5.879  18.509  0.00  0.00    +0.000 HD
BRANCH  14  16
ATOM     16  C   UNL     1       6.524   5.620  16.505  0.00  0.00    +0.000 C 
BRANCH  16  17
ATOM     17  C   UNL     1       5.472   5.285  15.442  0.00  0.00    +0.000 C 
BRANCH  17  18
ATOM     18  C   UNL     1       6.067   4.722  14.179  0.00  0.00    +0.000 A 
ATOM     19  C   UNL     1       7.259   5.241  13.656  0.00  0.00    +0.000 A 
ATOM     20  C   UNL     1       7.758   4.771  12.441  0.00  0.00    +0.000 A 
ATOM     21  C   UNL     1       7.074   3.774  11.741  0.00  0.00    +0.000 A 
ATOM     22  C   UNL     1       5.910   3.244  12.278  0.00  0.00    +0.000 A 
ATOM     23  F   UNL     1       5.253   2.284  11.609  0.00  0.00    +0.000 F 
ATOM     24  C   UNL     1       5.407   3.696  13.489  0.00  0.00    +0.000 A 
ENDBRANCH  17  18
ENDBRANCH  16  17
ENDBRANCH  14  16
ENDBRANCH  13  14
ENDBRANCH   6  13
TORSDOF 8
ENDMDL
MODEL 9
REMARK VINA RESULT:      -6.5      3.830      6.752
REMARK  Name = 
REMARK  11 active torsions:
REMARK  status: ('A' for Active; 'I' for Inactive)
REMARK    1  A    between atoms: C_1  and  O_2
REMARK    2  A    between atoms: O_2  and  C_3
REMARK    3  A    between atoms: C_5  and  O_6
REMARK    4  A    between atoms: O_6  and  C_7
REMARK    5  A    between atoms: C_8  and  O_9
REMARK    6  A    between atoms: O_9  and  C_10
REMARK    7  A    between atoms: C_12  and  C_13
REMARK    8  A    between atoms: C_13  and  N_14
REMARK    9  A    between atoms: N_14  and  C_15
REMARK   10  A    between atoms: C_15  and  C_16
REMARK   11  A    between atoms: C_16  and  C_17
REMARK                            x       y       z     vdW  Elec       q    Type
REMARK                         _______ _______ _______ _____ _____    ______ ____
ROOT
ATOM      1  C   UNL     1       5.010   3.876  18.419  0.00  0.00    +0.000 A 
ATOM      2  C   UNL     1       6.213   4.603  18.383  0.00  0.00    +0.000 A 
ATOM      3  C   UNL     1       6.701   5.199  17.211  0.00  0.00    +0.000 A 
ATOM      4  C   UNL     1       6.033   4.971  16.009  0.00  0.00    +0.000 A 
ATOM      5  C   UNL     1       4.821   4.271  16.042  0.00  0.00    +0.000 A 
ATOM      6  C   UNL     1       4.270   3.745  17.242  0.00  0.00    +0.000 A 
ENDROOT
BRANCH   1   8
ATOM      7  C   UNL     1       4.521   2.269  20.172  0.00  0.00    +0.000 C 
ATOM      8  O   UNL     1       4.589   3.609  19.694  0.00  0.00    +0.000 OA
ENDBRANCH   1   8
BRANCH   3   9
ATOM      9  O   UNL     1       7.850   5.925  17.391  0.00  0.00    +0.000 OA
ATOM     10  C   UNL     1       7.682   7.305  17.716  0.00  0.00    +0.000 C 
ENDBRANCH   3   9
BRANCH   4  11
ATOM     11  O   UNL     1       6.562   5.474  14.851  0.00  0.00    +0.000 OA
ATOM     12  C   UNL     1       6.687   4.551  13.774  0.00  0.00    +0.000 C 
ENDBRANCH   4  11
BRANCH   6  13
ATOM     13  C   UNL     1       2.845   3.257  17.139  0.00  0.00    +0.000 C 
BRANCH  13  14
ATOM     14  N   UNL     1       1.987   3.870  18.159  0.00  0.00    +0.000 NA
ATOM     15  H   UNL     1       2.460   3.837  19.062  0.00  0.00    +0.000 HD
BRANCH  14  16
ATOM     16  C   UNL     1       1.639   5.261  17.843  0.00  0.00    +0.000 C 
BRANCH  16  17
ATOM     17  C   UNL     1       2.661   6.271  18.377  0.00  0.00    +0.000 C 
BRANCH  17  18
ATOM     18  C   UNL     1       2.037   7.570  18.810  0.00  0.00    +0.000 A 
ATOM     19  C   UNL     1       1.833   8.609  17.891  0.00  0.00    +0.000 A 
ATOM     20  C   UNL     1       1.333   9.839  18.319  0.00  0.00    +0.000 A 
ATOM     21  C   UNL     1       1.024  10.039  19.666  0.00  0.00    +0.000 A 
ATOM     22  C   UNL     1       1.199   8.998  20.566  0.00  0.00    +0.000 A 
ATOM     23  F   UNL     1       0.900   9.188  21.860  0.00  0.00    +0.000 F 
ATOM     24  C   UNL     1       1.688   7.768  20.153  0.00  0.00    +0.000 A 
ENDBRANCH  17  18
ENDBRANCH  16  17
ENDBRANCH  14  16
ENDBRANCH  13  14
ENDBRANCH   6  13
TORSDOF 8
ENDMDL
