MODEL 1
REMARK VINA RESULT:      -6.1      0.000      0.000
REMARK  Name = 
REMARK  4 active torsions:
REMARK  status: ('A' for Active; 'I' for Inactive)
REMARK    1  A    between atoms: C_1  and  O_2
REMARK    2  A    between atoms: O_2  and  C_3
REMARK    3  A    between atoms: C_3  and  O_4
REMARK    4  A    between atoms: N_15  and  C_16
REMARK                            x       y       z     vdW  Elec       q    Type
REMARK                         _______ _______ _______ _____ _____    ______ ____
ROOT
ATOM      1  C   UNL     1       2.726   5.621  20.170  0.00  0.00    +0.000 C 
ATOM      2  C   UNL     1       2.989   4.301  20.215  0.00  0.00    +0.000 C 
ATOM      3  C   UNL     1       2.085   3.499  21.099  0.00  0.00    +0.000 C 
ATOM      4  O   UNL     1       2.223   3.514  22.322  0.00  0.00    +0.000 OA
ATOM      5  C   UNL     1       1.026   2.632  20.420  0.00  0.00    +0.000 C 
ATOM      6  C   UNL     1       0.964   2.839  18.888  0.00  0.00    +0.000 C 
ATOM      7  C   UNL     1       2.183   2.228  18.150  0.00  0.00    +0.000 C 
ATOM      8  C   UNL     1       2.580   2.952  16.844  0.00  0.00    +0.000 C 
ATOM      9  C   UNL     1       3.371   4.241  17.058  0.00  0.00    +0.000 C 
ATOM     10  C   UNL     1       4.481   4.056  18.097  0.00  0.00    +0.000 C 
ATOM     11  C   UNL     1       3.945   3.432  19.395  0.00  0.00    +0.000 C 
ATOM     12  N   UNL     1       3.326   2.127  19.066  0.00  0.00    +0.000 NA
ATOM     13  C   UNL     1       4.225   1.026  18.742  0.00  0.00    +0.000 C 
ENDROOT
BRANCH   1  15
ATOM     14  C   UNL     1       2.621   7.450  18.644  0.00  0.00    +0.000 C 
ATOM     15  O   UNL     1       3.387   6.448  19.293  0.00  0.00    +0.000 OA
ENDBRANCH   1  15
BRANCH   1  16
ATOM     16  O   UNL     1       1.694   6.144  20.931  0.00  0.00    +0.000 OA
ATOM     17  H   UNL     1       0.864   5.757  20.601  0.00  0.00    +0.000 HD
ENDBRANCH   1  16
TORSDOF 2
ENDMDL
MODEL 2
REMARK VINA RESULT:      -6.1      1.724      3.222
REMARK  Name = 
REMARK  4 active torsions:
REMARK  status: ('A' for Active; 'I' for Inactive)
REMARK    1  A    between atoms: C_1  and  O_2
REMARK    2  A    between atoms: O_2  and  C_3
REMARK    3  A    between atoms: C_3  and  O_4
REMARK    4  A    between atoms: N_15  and  C_16
REMARK                            x       y       z     vdW  Elec       q    Type
REMARK                         _______ _______ _______ _____ _____    ______ ____
ROOT
ATOM      1  C   UNL     1       5.044   5.225  18.624  0.00  0.00    +0.000 C 
ATOM      2  C   UNL     1       3.894   5.014  19.292  0.00  0.00    +0.000 C 
ATOM      3  C   UNL     1       2.811   6.015  19.032  0.00  0.00    +0.000 C 
ATOM      4  O   UNL     1       2.846   7.130  19.552  0.00  0.00    +0.000 OA
ATOM      5  C   UNL     1       1.649   5.578  18.142  0.00  0.00    +0.000 C 
ATOM      6  C   UNL     1       1.855   4.177  17.519  0.00  0.00    +0.000 C 
ATOM      7  C   UNL     1       1.716   3.033  18.556  0.00  0.00    +0.000 C 
ATOM      8  C   UNL     1       2.561   1.776  18.249  0.00  0.00    +0.000 C 
ATOM      9  C   UNL     1       4.039   1.909  18.614  0.00  0.00    +0.000 C 
ATOM     10  C   UNL     1       4.222   2.532  20.001  0.00  0.00    +0.000 C 
ATOM     11  C   UNL     1       3.424   3.837  20.149  0.00  0.00    +0.000 C 
ATOM     12  N   UNL     1       1.994   3.540  19.904  0.00  0.00    +0.000 NA
ATOM     13  C   UNL     1       1.276   2.817  20.947  0.00  0.00    +0.000 C 
ENDROOT
BRANCH   1  15
ATOM     14  C   UNL     1       7.238   4.610  17.921  0.00  0.00    +0.000 C 
ATOM     15  O   UNL     1       6.067   4.307  18.661  0.00  0.00    +0.000 OA
ENDBRANCH   1  15
BRANCH   1  16
ATOM     16  O   UNL     1       5.165   6.323  17.790  0.00  0.00    +0.000 OA
ATOM     17  H   UNL     1       4.833   6.061  16.913  0.00  0.00    +0.000 HD
ENDBRANCH   1  16
TORSDOF 2
ENDMDL
MODEL 3
REMARK VINA RESULT:      -6.0      2.385      3.949
REMARK  Name = 
REMARK  4 active torsions:
REMARK  status: ('A' for Active; 'I' for Inactive)
REMARK    1  A    between atoms: C_1  and  O_2
REMARK    2  A    between atoms: O_2  and  C_3
REMARK    3  A    between atoms: C_3  and  O_4
REMARK    4  A    between atoms: N_15  and  C_16
REMARK                            x       y       z     vdW  Elec       q    Type
REMARK                         _______ _______ _______ _____ _____    ______ ____
ROOT
ATOM      1  C   UNL     1       5.777   4.343  17.017  0.00  0.00    +0.000 C 
ATOM      2  C   UNL     1       5.254   4.157  18.245  0.00  0.00    +0.000 C 
ATOM      3  C   UNL     1       5.497   5.268  19.218  0.00  0.00    +0.000 C 
ATOM      4  O   UNL     1       6.592   5.400  19.764  0.00  0.00    +0.000 OA
ATOM      5  C   UNL     1       4.322   6.191  19.538  0.00  0.00    +0.000 C 
ATOM      6  C   UNL     1       3.073   5.907  18.670  0.00  0.00    +0.000 C 
ATOM      7  C   UNL     1       2.362   4.585  19.058  0.00  0.00    +0.000 C 
ATOM      8  C   UNL     1       1.628   3.880  17.895  0.00  0.00    +0.000 C 
ATOM      9  C   UNL     1       2.545   3.096  16.958  0.00  0.00    +0.000 C 
ATOM     10  C   UNL     1       3.557   2.250  17.737  0.00  0.00    +0.000 C 
ATOM     11  C   UNL     1       4.306   3.085  18.787  0.00  0.00    +0.000 C 
ATOM     12  N   UNL     1       3.311   3.676  19.711  0.00  0.00    +0.000 NA
ATOM     13  C   UNL     1       2.677   2.779  20.670  0.00  0.00    +0.000 C 
ENDROOT
BRANCH   1  15
ATOM     14  C   UNL     1       6.029   3.794  14.711  0.00  0.00    +0.000 C 
ATOM     15  O   UNL     1       5.510   3.469  15.990  0.00  0.00    +0.000 OA
ENDBRANCH   1  15
BRANCH   1  16
ATOM     16  O   UNL     1       6.501   5.491  16.745  0.00  0.00    +0.000 OA
ATOM     17  H   UNL     1       6.626   5.535  15.780  0.00  0.00    +0.000 HD
ENDBRANCH   1  16
TORSDOF 2
ENDMDL
MODEL 4
REMARK VINA RESULT:      -6.0      3.517      5.026
REMARK  Name = 
REMARK  4 active torsions:
REMARK  status: ('A' for Active; 'I' for Inactive)
REMARK    1  A    between atoms: C_1  and  O_2
REMARK    2  A    between atoms: O_2  and  C_3
REMARK    3  A    between atoms: C_3  and  O_4
REMARK    4  A    between atoms: N_15  and  C_16
REMARK                            x       y       z     vdW  Elec       q    Type
REMARK                         _______ _______ _______ _____ _____    ______ ____
ROOT
ATOM      1  C   UNL     1       6.315   4.911  15.814  0.00  0.00    +0.000 C 
ATOM      2  C   UNL     1       6.270   4.276  17.000  0.00  0.00    +0.000 C 
ATOM      3  C   UNL     1       7.392   4.594  17.939  0.00  0.00    +0.000 C 
ATOM      4  O   UNL     1       8.508   4.100  17.778  0.00  0.00    +0.000 OA
ATOM      5  C   UNL     1       7.081   5.510  19.121  0.00  0.00    +0.000 C 
ATOM      6  C   UNL     1       5.649   6.094  19.076  0.00  0.00    +0.000 C 
ATOM      7  C   UNL     1       4.560   5.035  19.390  0.00  0.00    +0.000 C 
ATOM      8  C   UNL     1       3.199   5.283  18.704  0.00  0.00    +0.000 C 
ATOM      9  C   UNL     1       3.154   4.874  17.232  0.00  0.00    +0.000 C 
ATOM     10  C   UNL     1       3.787   3.497  17.011  0.00  0.00    +0.000 C 
ATOM     11  C   UNL     1       5.186   3.406  17.641  0.00  0.00    +0.000 C 
ATOM     12  N   UNL     1       5.065   3.690  19.090  0.00  0.00    +0.000 NA
ATOM     13  C   UNL     1       4.468   2.654  19.924  0.00  0.00    +0.000 C 
ENDROOT
BRANCH   1  15
ATOM     14  C   UNL     1       5.515   4.095  13.722  0.00  0.00    +0.000 C 
ATOM     15  O   UNL     1       5.277   4.819  14.917  0.00  0.00    +0.000 OA
ENDBRANCH   1  15
BRANCH   1  16
ATOM     16  O   UNL     1       7.366   5.767  15.530  0.00  0.00    +0.000 OA
ATOM     17  H   UNL     1       7.079   6.352  14.808  0.00  0.00    +0.000 HD
ENDBRANCH   1  16
TORSDOF 2
ENDMDL
MODEL 5
REMARK VINA RESULT:      -5.9      2.371      3.303
REMARK  Name = 
REMARK  4 active torsions:
REMARK  status: ('A' for Active; 'I' for Inactive)
REMARK    1  A    between atoms: C_1  and  O_2
REMARK    2  A    between atoms: O_2  and  C_3
REMARK    3  A    between atoms: C_3  and  O_4
REMARK    4  A    between atoms: N_15  and  C_16
REMARK                            x       y       z     vdW  Elec       q    Type
REMARK                         _______ _______ _______ _____ _____    ______ ____
ROOT
ATOM      1  C   UNL     1       3.005   6.382  18.356  0.00  0.00    +0.000 C 
ATOM      2  C   UNL     1       4.110   5.631  18.523  0.00  0.00    +0.000 C 
ATOM      3  C   UNL     1       3.874   4.256  19.066  0.00  0.00    +0.000 C 
ATOM      4  O   UNL     1       3.640   4.082  20.262  0.00  0.00    +0.000 OA
ATOM      5  C   UNL     1       3.981   3.086  18.089  0.00  0.00    +0.000 C 
ATOM      6  C   UNL     1       4.184   3.537  16.623  0.00  0.00    +0.000 C 
ATOM      7  C   UNL     1       5.602   4.109  16.362  0.00  0.00    +0.000 C 
ATOM      8  C   UNL     1       5.673   5.180  15.251  0.00  0.00    +0.000 C 
ATOM      9  C   UNL     1       5.207   6.569  15.688  0.00  0.00    +0.000 C 
ATOM     10  C   UNL     1       5.795   6.957  17.048  0.00  0.00    +0.000 C 
ATOM     11  C   UNL     1       5.563   5.863  18.102  0.00  0.00    +0.000 C 
ATOM     12  N   UNL     1       6.181   4.607  17.614  0.00  0.00    +0.000 NA
ATOM     13  C   UNL     1       7.636   4.526  17.645  0.00  0.00    +0.000 C 
ENDROOT
BRANCH   1  15
ATOM     14  C   UNL     1       2.071   8.558  18.082  0.00  0.00    +0.000 C 
ATOM     15  O   UNL     1       3.065   7.607  17.736  0.00  0.00    +0.000 OA
ENDBRANCH   1  15
BRANCH   1  16
ATOM     16  O   UNL     1       1.767   5.871  18.706  0.00  0.00    +0.000 OA
ATOM     17  H   UNL     1       1.390   5.452  17.912  0.00  0.00    +0.000 HD
ENDBRANCH   1  16
TORSDOF 2
ENDMDL
MODEL 6
REMARK VINA RESULT:      -5.7      3.055      4.925
REMARK  Name = 
REMARK  4 active torsions:
REMARK  status: ('A' for Active; 'I' for Inactive)
REMARK    1  A    between atoms: C_1  and  O_2
REMARK    2  A    between atoms: O_2  and  C_3
REMARK    3  A    between atoms: C_3  and  O_4
REMARK    4  A    between atoms: N_15  and  C_16
REMARK                            x       y       z     vdW  Elec       q    Type
REMARK                         _______ _______ _______ _____ _____    ______ ____
ROOT
ATOM      1  C   UNL     1       6.616   6.316  17.677  0.00  0.00    +0.000 C 
ATOM      2  C   UNL     1       5.349   6.102  17.273  0.00  0.00    +0.000 C 
ATOM      3  C   UNL     1       5.159   5.995  15.792  0.00  0.00    +0.000 C 
ATOM      4  O   UNL     1       5.158   7.000  15.082  0.00  0.00    +0.000 OA
ATOM      5  C   UNL     1       4.919   4.601  15.214  0.00  0.00    +0.000 C 
ATOM      6  C   UNL     1       5.057   3.476  16.266  0.00  0.00    +0.000 C 
ATOM      7  C   UNL     1       3.878   3.448  17.273  0.00  0.00    +0.000 C 
ATOM      8  C   UNL     1       4.239   2.917  18.678  0.00  0.00    +0.000 C 
ATOM      9  C   UNL     1       4.957   3.933  19.566  0.00  0.00    +0.000 C 
ATOM     10  C   UNL     1       4.282   5.306  19.510  0.00  0.00    +0.000 C 
ATOM     11  C   UNL     1       4.077   5.781  18.062  0.00  0.00    +0.000 C 
ATOM     12  N   UNL     1       3.254   4.774  17.353  0.00  0.00    +0.000 NA
ATOM     13  C   UNL     1       1.835   4.720  17.685  0.00  0.00    +0.000 C 
ENDROOT
BRANCH   1  15
ATOM     14  C   UNL     1       8.163   5.647  19.363  0.00  0.00    +0.000 C 
ATOM     15  O   UNL     1       6.951   6.294  19.010  0.00  0.00    +0.000 OA
ENDBRANCH   1  15
BRANCH   1  16
ATOM     16  O   UNL     1       7.625   6.445  16.738  0.00  0.00    +0.000 OA
ATOM     17  H   UNL     1       8.366   5.884  17.027  0.00  0.00    +0.000 HD
ENDBRANCH   1  16
TORSDOF 2
ENDMDL
MODEL 7
REMARK VINA RESULT:      -5.7      2.154      3.051
REMARK  Name = 
REMARK  4 active torsions:
REMARK  status: ('A' for Active; 'I' for Inactive)
REMARK    1  A    between atoms: C_1  and  O_2
REMARK    2  A    between atoms: O_2  and  C_3
REMARK    3  A    between atoms: C_3  and  O_4
REMARK    4  A    between atoms: N_15  and  C_16
REMARK                            x       y       z     vdW  Elec       q    Type
REMARK                         _______ _______ _______ _____ _____    ______ ____
ROOT
ATOM      1  C   UNL     1       2.972   5.567  19.448  0.00  0.00    +0.000 C 
ATOM      2  C   UNL     1       4.120   4.913  19.187  0.00  0.00    +0.000 C 
ATOM      3  C   UNL     1       4.034   3.420  19.255  0.00  0.00    +0.000 C 
ATOM      4  O   UNL     1       4.012   2.838  20.339  0.00  0.00    +0.000 OA
ATOM      5  C   UNL     1       4.024   2.655  17.932  0.00  0.00    +0.000 C 
ATOM      6  C   UNL     1       3.959   3.583  16.696  0.00  0.00    +0.000 C 
ATOM      7  C   UNL     1       5.288   4.342  16.444  0.00  0.00    +0.000 C 
ATOM      8  C   UNL     1       5.127   5.722  15.769  0.00  0.00    +0.000 C 
ATOM      9  C   UNL     1       4.685   6.836  16.717  0.00  0.00    +0.000 C 
ATOM     10  C   UNL     1       5.477   6.807  18.028  0.00  0.00    +0.000 C 
ATOM     11  C   UNL     1       5.470   5.409  18.665  0.00  0.00    +0.000 C 
ATOM     12  N   UNL     1       6.048   4.450  17.694  0.00  0.00    +0.000 NA
ATOM     13  C   UNL     1       7.490   4.503  17.485  0.00  0.00    +0.000 C 
ENDROOT
BRANCH   1  15
ATOM     14  C   UNL     1       1.931   7.615  20.087  0.00  0.00    +0.000 C 
ATOM     15  O   UNL     1       2.876   6.929  19.283  0.00  0.00    +0.000 OA
ENDBRANCH   1  15
BRANCH   1  16
ATOM     16  O   UNL     1       1.832   4.854  19.777  0.00  0.00    +0.000 OA
ATOM     17  H   UNL     1       1.315   4.739  18.960  0.00  0.00    +0.000 HD
ENDBRANCH   1  16
TORSDOF 2
ENDMDL
MODEL 8
REMARK VINA RESULT:      -5.6      1.482      1.942
REMARK  Name = 
REMARK  4 active torsions:
REMARK  status: ('A' for Active; 'I' for Inactive)
REMARK    1  A    between atoms: C_1  and  O_2
REMARK    2  A    between atoms: O_2  and  C_3
REMARK    3  A    between atoms: C_3  and  O_4
REMARK    4  A    between atoms: N_15  and  C_16
REMARK                            x       y       z     vdW  Elec       q    Type
REMARK                         _______ _______ _______ _____ _____    ______ ____
ROOT
ATOM      1  C   UNL     1       3.085   6.216  18.161  0.00  0.00    +0.000 C 
ATOM      2  C   UNL     1       3.162   5.354  19.193  0.00  0.00    +0.000 C 
ATOM      3  C   UNL     1       2.023   5.413  20.163  0.00  0.00    +0.000 C 
ATOM      4  O   UNL     1       1.950   6.317  20.994  0.00  0.00    +0.000 OA
ATOM      5  C   UNL     1       0.994   4.285  20.107  0.00  0.00    +0.000 C 
ATOM      6  C   UNL     1       1.224   3.311  18.927  0.00  0.00    +0.000 C 
ATOM      7  C   UNL     1       2.462   2.401  19.134  0.00  0.00    +0.000 C 
ATOM      8  C   UNL     1       3.168   1.963  17.832  0.00  0.00    +0.000 C 
ATOM      9  C   UNL     1       4.071   3.032  17.218  0.00  0.00    +0.000 C 
ATOM     10  C   UNL     1       4.952   3.701  18.277  0.00  0.00    +0.000 C 
ATOM     11  C   UNL     1       4.125   4.197  19.473  0.00  0.00    +0.000 C 
ATOM     12  N   UNL     1       3.407   3.040  20.057  0.00  0.00    +0.000 NA
ATOM     13  C   UNL     1       4.198   2.083  20.821  0.00  0.00    +0.000 C 
ENDROOT
BRANCH   1  15
ATOM     14  C   UNL     1       5.089   7.061  17.187  0.00  0.00    +0.000 C 
ATOM     15  O   UNL     1       3.988   6.170  17.126  0.00  0.00    +0.000 OA
ENDBRANCH   1  15
BRANCH   1  16
ATOM     16  O   UNL     1       2.014   7.090  18.073  0.00  0.00    +0.000 OA
ATOM     17  H   UNL     1       1.664   7.213  18.973  0.00  0.00    +0.000 HD
ENDBRANCH   1  16
TORSDOF 2
ENDMDL
MODEL 9
REMARK VINA RESULT:      -5.6      2.050      3.843
REMARK  Name = 
REMARK  4 active torsions:
REMARK  status: ('A' for Active; 'I' for Inactive)
REMARK    1  A    between atoms: C_1  and  O_2
REMARK    2  A    between atoms: O_2  and  C_3
REMARK    3  A    between atoms: C_3  and  O_4
REMARK    4  A    between atoms: N_15  and  C_16
REMARK                            x       y       z     vdW  Elec       q    Type
REMARK                         _______ _______ _______ _____ _____    ______ ____
ROOT
ATOM      1  C   UNL     1       3.455   6.825  17.687  0.00  0.00    +0.000 C 
ATOM      2  C   UNL     1       3.633   5.516  17.425  0.00  0.00    +0.000 C 
ATOM      3  C   UNL     1       4.995   5.142  16.930  0.00  0.00    +0.000 C 
ATOM      4  O   UNL     1       5.327   5.365  15.766  0.00  0.00    +0.000 OA
ATOM      5  C   UNL     1       5.930   4.434  17.911  0.00  0.00    +0.000 C 
ATOM      6  C   UNL     1       5.350   4.343  19.342  0.00  0.00    +0.000 C 
ATOM      7  C   UNL     1       4.185   3.327  19.454  0.00  0.00    +0.000 C 
ATOM      8  C   UNL     1       3.133   3.663  20.535  0.00  0.00    +0.000 C 
ATOM      9  C   UNL     1       2.135   4.744  20.123  0.00  0.00    +0.000 C 
ATOM     10  C   UNL     1       1.603   4.510  18.706  0.00  0.00    +0.000 C 
ATOM     11  C   UNL     1       2.744   4.300  17.698  0.00  0.00    +0.000 C 
ATOM     12  N   UNL     1       3.553   3.141  18.142  0.00  0.00    +0.000 NA
ATOM     13  C   UNL     1       2.968   1.816  17.971  0.00  0.00    +0.000 C 
ENDROOT
BRANCH   1  15
ATOM     14  C   UNL     1       1.951   8.637  18.056  0.00  0.00    +0.000 C 
ATOM     15  O   UNL     1       2.301   7.281  18.279  0.00  0.00    +0.000 OA
ENDBRANCH   1  15
BRANCH   1  16
ATOM     16  O   UNL     1       4.491   7.717  17.469  0.00  0.00    +0.000 OA
ATOM     17  H   UNL     1       4.961   7.830  18.314  0.00  0.00    +0.000 HD
ENDBRANCH   1  16
TORSDOF 2
ENDMDL
