MODEL 1
REMARK VINA RESULT:      -8.8      0.000      0.000
REMARK  Name = 
REMARK  4 active torsions:
REMARK  status: ('A' for Active; 'I' for Inactive)
REMARK    1  A    between atoms: C_2  and  O_3
REMARK    2  A    between atoms: C_2  and  C_20
REMARK    3  A    between atoms: O_3  and  C_4
REMARK    4  A    between atoms: C_9  and  C_10
REMARK                            x       y       z     vdW  Elec       q    Type
REMARK                         _______ _______ _______ _____ _____    ______ ____
ROOT
ATOM      1  C   UNL     1       4.745   4.694  17.024  0.00  0.00    +0.000 A 
ATOM      2  C   UNL     1       5.981   4.121  16.687  0.00  0.00    +0.000 A 
ATOM      3  C   UNL     1       7.126   4.906  16.612  0.00  0.00    +0.000 A 
ATOM      4  C   UNL     1       7.044   6.262  16.894  0.00  0.00    +0.000 A 
ATOM      5  C   UNL     1       5.832   6.813  17.323  0.00  0.00    +0.000 A 
ATOM      6  C   UNL     1       4.656   6.040  17.452  0.00  0.00    +0.000 A 
ENDROOT
BRANCH   6   7
ATOM      7  C   UNL     1       3.486   6.637  18.147  0.00  0.00    +0.000 A 
ATOM      8  C   UNL     1       3.089   6.235  19.415  0.00  0.00    +0.000 A 
ATOM      9  N   UNL     1       2.215   6.922  20.192  0.00  0.00    +0.000 NA
ATOM     10  C   UNL     1       1.765   8.080  19.690  0.00  0.00    +0.000 A 
ATOM     11  C   UNL     1       0.999   8.906  20.502  0.00  0.00    +0.000 A 
ATOM     12  C   UNL     1       0.559  10.154  20.061  0.00  0.00    +0.000 A 
ATOM     13  C   UNL     1       0.850  10.558  18.767  0.00  0.00    +0.000 A 
ATOM     14  C   UNL     1       1.608   9.725  17.935  0.00  0.00    +0.000 A 
ATOM     15  C   UNL     1       2.108   8.502  18.384  0.00  0.00    +0.000 A 
ATOM     16  N   UNL     1       2.947   7.770  17.609  0.00  0.00    +0.000 NA
ENDBRANCH   6   7
BRANCH   1  17
ATOM     17  O   UNL     1       3.562   3.905  16.947  0.00  0.00    +0.000 OA
BRANCH  17  19
ATOM     18  O   UNL     1       3.988   1.626  17.283  0.00  0.00    +0.000 OA
ATOM     19  C   UNL     1       3.515   2.696  17.637  0.00  0.00    +0.000 C 
BRANCH  19  20
ATOM     20  C   UNL     1       2.757   2.808  18.908  0.00  0.00    +0.000 A 
ATOM     21  C   UNL     1       3.459   2.589  20.108  0.00  0.00    +0.000 A 
ATOM     22  C   UNL     1       2.792   2.572  21.333  0.00  0.00    +0.000 A 
ATOM     23  C   UNL     1       1.419   2.777  21.360  0.00  0.00    +0.000 A 
ATOM     24  F   UNL     1       0.768   2.715  22.528  0.00  0.00    +0.000 F 
ATOM     25  C   UNL     1       0.710   3.032  20.189  0.00  0.00    +0.000 A 
ATOM     26  C   UNL     1       1.376   3.055  18.959  0.00  0.00    +0.000 A 
ENDBRANCH  19  20
ENDBRANCH  17  19
ENDBRANCH   1  17
TORSDOF 4
ENDMDL
MODEL 2
REMARK VINA RESULT:      -8.7      2.597      5.057
REMARK  Name = 
REMARK  4 active torsions:
REMARK  status: ('A' for Active; 'I' for Inactive)
REMARK    1  A    between atoms: C_2  and  O_3
REMARK    2  A    between atoms: C_2  and  C_20
REMARK    3  A    between atoms: O_3  and  C_4
REMARK    4  A    between atoms: C_9  and  C_10
REMARK                            x       y       z     vdW  Elec       q    Type
REMARK                         _______ _______ _______ _____ _____    ______ ____
ROOT
ATOM      1  C   UNL     1       2.949   3.752  18.348  0.00  0.00    +0.000 A 
ATOM      2  C   UNL     1       2.619   2.415  18.081  0.00  0.00    +0.000 A 
ATOM      3  C   UNL     1       1.512   1.826  18.681  0.00  0.00    +0.000 A 
ATOM      4  C   UNL     1       0.717   2.578  19.534  0.00  0.00    +0.000 A 
ATOM      5  C   UNL     1       0.990   3.937  19.725  0.00  0.00    +0.000 A 
ATOM      6  C   UNL     1       2.082   4.582  19.100  0.00  0.00    +0.000 A 
ENDROOT
BRANCH   6   7
ATOM      7  C   UNL     1       2.156   6.065  19.151  0.00  0.00    +0.000 A 
ATOM      8  C   UNL     1       2.267   6.845  18.008  0.00  0.00    +0.000 A 
ATOM      9  N   UNL     1       2.066   8.185  17.979  0.00  0.00    +0.000 NA
ATOM     10  C   UNL     1       1.691   8.750  19.136  0.00  0.00    +0.000 A 
ATOM     11  C   UNL     1       1.313  10.086  19.134  0.00  0.00    +0.000 A 
ATOM     12  C   UNL     1       0.848  10.712  20.290  0.00  0.00    +0.000 A 
ATOM     13  C   UNL     1       0.810   9.999  21.479  0.00  0.00    +0.000 A 
ATOM     14  C   UNL     1       1.206   8.655  21.494  0.00  0.00    +0.000 A 
ATOM     15  C   UNL     1       1.612   8.000  20.332  0.00  0.00    +0.000 A 
ATOM     16  N   UNL     1       1.866   6.667  20.342  0.00  0.00    +0.000 NA
ENDBRANCH   6   7
BRANCH   1  17
ATOM     17  O   UNL     1       4.168   4.288  17.845  0.00  0.00    +0.000 OA
BRANCH  17  19
ATOM     18  O   UNL     1       5.579   3.493  19.538  0.00  0.00    +0.000 OA
ATOM     19  C   UNL     1       5.286   4.308  18.675  0.00  0.00    +0.000 C 
BRANCH  19  20
ATOM     20  C   UNL     1       6.135   5.504  18.441  0.00  0.00    +0.000 A 
ATOM     21  C   UNL     1       5.710   6.425  17.465  0.00  0.00    +0.000 A 
ATOM     22  C   UNL     1       6.508   7.514  17.115  0.00  0.00    +0.000 A 
ATOM     23  C   UNL     1       7.733   7.686  17.746  0.00  0.00    +0.000 A 
ATOM     24  F   UNL     1       8.523   8.703  17.381  0.00  0.00    +0.000 F 
ATOM     25  C   UNL     1       8.156   6.808  18.740  0.00  0.00    +0.000 A 
ATOM     26  C   UNL     1       7.356   5.717  19.098  0.00  0.00    +0.000 A 
ENDBRANCH  19  20
ENDBRANCH  17  19
ENDBRANCH   1  17
TORSDOF 4
ENDMDL
MODEL 3
REMARK VINA RESULT:      -8.7      2.365      4.745
REMARK  Name = 
REMARK  4 active torsions:
REMARK  status: ('A' for Active; 'I' for Inactive)
REMARK    1  A    between atoms: C_2  and  O_3
REMARK    2  A    between atoms: C_2  and  C_20
REMARK    3  A    between atoms: O_3  and  C_4
REMARK    4  A    between atoms: C_9  and  C_10
REMARK                            x       y       z     vdW  Elec       q    Type
REMARK                         _______ _______ _______ _____ _____    ______ ____
ROOT
ATOM      1  C   UNL     1       2.732   4.423  18.757  0.00  0.00    +0.000 A 
ATOM      2  C   UNL     1       2.539   3.047  18.950  0.00  0.00    +0.000 A 
ATOM      3  C   UNL     1       2.178   2.553  20.199  0.00  0.00    +0.000 A 
ATOM      4  C   UNL     1       1.989   3.434  21.253  0.00  0.00    +0.000 A 
ATOM      5  C   UNL     1       2.088   4.812  21.037  0.00  0.00    +0.000 A 
ATOM      6  C   UNL     1       2.411   5.356  19.772  0.00  0.00    +0.000 A 
ENDROOT
BRANCH   6   7
ATOM      7  C   UNL     1       2.250   6.818  19.565  0.00  0.00    +0.000 A 
ATOM      8  C   UNL     1       2.453   7.422  18.331  0.00  0.00    +0.000 A 
ATOM      9  N   UNL     1       2.062   8.684  18.028  0.00  0.00    +0.000 NA
ATOM     10  C   UNL     1       1.398   9.342  18.989  0.00  0.00    +0.000 A 
ATOM     11  C   UNL     1       0.830  10.572  18.684  0.00  0.00    +0.000 A 
ATOM     12  C   UNL     1       0.069  11.272  19.619  0.00  0.00    +0.000 A 
ATOM     13  C   UNL     1      -0.083  10.754  20.897  0.00  0.00    +0.000 A 
ATOM     14  C   UNL     1       0.501   9.522  21.218  0.00  0.00    +0.000 A 
ATOM     15  C   UNL     1       1.211   8.781  20.274  0.00  0.00    +0.000 A 
ATOM     16  N   UNL     1       1.656   7.533  20.565  0.00  0.00    +0.000 NA
ENDBRANCH   6   7
BRANCH   1  17
ATOM     17  O   UNL     1       3.247   4.891  17.515  0.00  0.00    +0.000 OA
BRANCH  17  19
ATOM     18  O   UNL     1       4.764   3.486  16.414  0.00  0.00    +0.000 OA
ATOM     19  C   UNL     1       4.506   4.461  17.105  0.00  0.00    +0.000 C 
BRANCH  19  20
ATOM     20  C   UNL     1       5.593   5.318  17.643  0.00  0.00    +0.000 A 
ATOM     21  C   UNL     1       5.905   6.496  16.938  0.00  0.00    +0.000 A 
ATOM     22  C   UNL     1       6.983   7.294  17.322  0.00  0.00    +0.000 A 
ATOM     23  C   UNL     1       7.748   6.917  18.418  0.00  0.00    +0.000 A 
ATOM     24  F   UNL     1       8.810   7.655  18.763  0.00  0.00    +0.000 F 
ATOM     25  C   UNL     1       7.434   5.777  19.152  0.00  0.00    +0.000 A 
ATOM     26  C   UNL     1       6.351   4.976  18.773  0.00  0.00    +0.000 A 
ENDBRANCH  19  20
ENDBRANCH  17  19
ENDBRANCH   1  17
TORSDOF 4
ENDMDL
MODEL 4
REMARK VINA RESULT:      -8.6      2.335      4.701
REMARK  Name = 
REMARK  4 active torsions:
REMARK  status: ('A' for Active; 'I' for Inactive)
REMARK    1  A    between atoms: C_2  and  O_3
REMARK    2  A    between atoms: C_2  and  C_20
REMARK    3  A    between atoms: O_3  and  C_4
REMARK    4  A    between atoms: C_9  and  C_10
REMARK                            x       y       z     vdW  Elec       q    Type
REMARK                         _______ _______ _______ _____ _____    ______ ____
ROOT
ATOM      1  C   UNL     1       3.404   3.870  17.918  0.00  0.00    +0.000 A 
ATOM      2  C   UNL     1       3.238   2.477  17.885  0.00  0.00    +0.000 A 
ATOM      3  C   UNL     1       2.795   1.792  19.011  0.00  0.00    +0.000 A 
ATOM      4  C   UNL     1       2.497   2.497  20.167  0.00  0.00    +0.000 A 
ATOM      5  C   UNL     1       2.571   3.895  20.170  0.00  0.00    +0.000 A 
ATOM      6  C   UNL     1       2.976   4.631  19.033  0.00  0.00    +0.000 A 
ENDROOT
BRANCH   6   7
ATOM      7  C   UNL     1       2.789   6.105  19.036  0.00  0.00    +0.000 A 
ATOM      8  C   UNL     1       2.966   6.880  17.898  0.00  0.00    +0.000 A 
ATOM      9  N   UNL     1       2.550   8.165  17.781  0.00  0.00    +0.000 NA
ATOM     10  C   UNL     1       1.888   8.668  18.832  0.00  0.00    +0.000 A 
ATOM     11  C   UNL     1       1.296   9.919  18.711  0.00  0.00    +0.000 A 
ATOM     12  C   UNL     1       0.536  10.466  19.743  0.00  0.00    +0.000 A 
ATOM     13  C   UNL     1       0.410   9.770  20.937  0.00  0.00    +0.000 A 
ATOM     14  C   UNL     1       1.017   8.516  21.074  0.00  0.00    +0.000 A 
ATOM     15  C   UNL     1       1.727   7.928  20.027  0.00  0.00    +0.000 A 
ATOM     16  N   UNL     1       2.196   6.660  20.134  0.00  0.00    +0.000 NA
ENDBRANCH   6   7
BRANCH   1  17
ATOM     17  O   UNL     1       4.002   4.531  16.809  0.00  0.00    +0.000 OA
BRANCH  17  19
ATOM     18  O   UNL     1       5.837   3.463  15.820  0.00  0.00    +0.000 OA
ATOM     19  C   UNL     1       5.353   4.318  16.547  0.00  0.00    +0.000 C 
BRANCH  19  20
ATOM     20  C   UNL     1       6.224   5.253  17.304  0.00  0.00    +0.000 A 
ATOM     21  C   UNL     1       6.496   6.506  16.723  0.00  0.00    +0.000 A 
ATOM     22  C   UNL     1       7.390   7.392  17.325  0.00  0.00    +0.000 A 
ATOM     23  C   UNL     1       8.010   7.027  18.512  0.00  0.00    +0.000 A 
ATOM     24  F   UNL     1       8.903   7.854  19.069  0.00  0.00    +0.000 F 
ATOM     25  C   UNL     1       7.727   5.808  19.123  0.00  0.00    +0.000 A 
ATOM     26  C   UNL     1       6.827   4.918  18.526  0.00  0.00    +0.000 A 
ENDBRANCH  19  20
ENDBRANCH  17  19
ENDBRANCH   1  17
TORSDOF 4
ENDMDL
MODEL 5
REMARK VINA RESULT:      -8.5      2.726      5.059
REMARK  Name = 
REMARK  4 active torsions:
REMARK  status: ('A' for Active; 'I' for Inactive)
REMARK    1  A    between atoms: C_2  and  O_3
REMARK    2  A    between atoms: C_2  and  C_20
REMARK    3  A    between atoms: O_3  and  C_4
REMARK    4  A    between atoms: C_9  and  C_10
REMARK                            x       y       z     vdW  Elec       q    Type
REMARK                         _______ _______ _______ _____ _____    ______ ____
ROOT
ATOM      1  C   UNL     1       3.676   5.208  19.710  0.00  0.00    +0.000 A 
ATOM      2  C   UNL     1       3.798   3.812  19.655  0.00  0.00    +0.000 A 
ATOM      3  C   UNL     1       2.753   2.994  20.068  0.00  0.00    +0.000 A 
ATOM      4  C   UNL     1       1.573   3.568  20.518  0.00  0.00    +0.000 A 
ATOM      5  C   UNL     1       1.416   4.958  20.483  0.00  0.00    +0.000 A 
ATOM      6  C   UNL     1       2.441   5.822  20.030  0.00  0.00    +0.000 A 
ENDROOT
BRANCH   6   7
ATOM      7  C   UNL     1       2.111   7.250  19.788  0.00  0.00    +0.000 A 
ATOM      8  C   UNL     1       2.199   7.831  18.530  0.00  0.00    +0.000 A 
ATOM      9  N   UNL     1       1.659   9.031  18.207  0.00  0.00    +0.000 NA
ATOM     10  C   UNL     1       0.962   9.644  19.175  0.00  0.00    +0.000 A 
ATOM     11  C   UNL     1       0.250  10.793  18.859  0.00  0.00    +0.000 A 
ATOM     12  C   UNL     1      -0.548  11.437  19.804  0.00  0.00    +0.000 A 
ATOM     13  C   UNL     1      -0.592  10.948  21.101  0.00  0.00    +0.000 A 
ATOM     14  C   UNL     1       0.136   9.798  21.433  0.00  0.00    +0.000 A 
ATOM     15  C   UNL     1       0.888   9.109  20.482  0.00  0.00    +0.000 A 
ATOM     16  N   UNL     1       1.479   7.927  20.790  0.00  0.00    +0.000 NA
ENDBRANCH   6   7
BRANCH   1  17
ATOM     17  O   UNL     1       4.808   6.023  19.428  0.00  0.00    +0.000 OA
BRANCH  17  19
ATOM     18  O   UNL     1       6.880   5.024  19.871  0.00  0.00    +0.000 OA
ATOM     19  C   UNL     1       6.013   5.408  19.099  0.00  0.00    +0.000 C 
BRANCH  19  20
ATOM     20  C   UNL     1       6.194   5.282  17.631  0.00  0.00    +0.000 A 
ATOM     21  C   UNL     1       5.297   5.978  16.800  0.00  0.00    +0.000 A 
ATOM     22  C   UNL     1       5.339   5.822  15.414  0.00  0.00    +0.000 A 
ATOM     23  C   UNL     1       6.284   4.970  14.857  0.00  0.00    +0.000 A 
ATOM     24  F   UNL     1       6.297   4.782  13.531  0.00  0.00    +0.000 F 
ATOM     25  C   UNL     1       7.204   4.301  15.657  0.00  0.00    +0.000 A 
ATOM     26  C   UNL     1       7.169   4.458  17.047  0.00  0.00    +0.000 A 
ENDBRANCH  19  20
ENDBRANCH  17  19
ENDBRANCH   1  17
TORSDOF 4
ENDMDL
MODEL 6
REMARK VINA RESULT:      -8.5      2.718      5.037
REMARK  Name = 
REMARK  4 active torsions:
REMARK  status: ('A' for Active; 'I' for Inactive)
REMARK    1  A    between atoms: C_2  and  O_3
REMARK    2  A    between atoms: C_2  and  C_20
REMARK    3  A    between atoms: O_3  and  C_4
REMARK    4  A    between atoms: C_9  and  C_10
REMARK                            x       y       z     vdW  Elec       q    Type
REMARK                         _______ _______ _______ _____ _____    ______ ____
ROOT
ATOM      1  C   UNL     1       3.326   4.886  19.333  0.00  0.00    +0.000 A 
ATOM      2  C   UNL     1       3.260   3.484  19.317  0.00  0.00    +0.000 A 
ATOM      3  C   UNL     1       2.289   2.813  20.052  0.00  0.00    +0.000 A 
ATOM      4  C   UNL     1       1.368   3.541  20.790  0.00  0.00    +0.000 A 
ATOM      5  C   UNL     1       1.373   4.939  20.730  0.00  0.00    +0.000 A 
ATOM      6  C   UNL     1       2.318   5.657  19.961  0.00  0.00    +0.000 A 
ENDROOT
BRANCH   6   7
ATOM      7  C   UNL     1       2.104   7.112  19.750  0.00  0.00    +0.000 A 
ATOM      8  C   UNL     1       2.272   7.717  18.511  0.00  0.00    +0.000 A 
ATOM      9  N   UNL     1       1.834   8.963  18.208  0.00  0.00    +0.000 NA
ATOM     10  C   UNL     1       1.157   9.601  19.173  0.00  0.00    +0.000 A 
ATOM     11  C   UNL     1       0.544  10.810  18.871  0.00  0.00    +0.000 A 
ATOM     12  C   UNL     1      -0.231  11.487  19.811  0.00  0.00    +0.000 A 
ATOM     13  C   UNL     1      -0.350  10.970  21.093  0.00  0.00    +0.000 A 
ATOM     14  C   UNL     1       0.280   9.760  21.412  0.00  0.00    +0.000 A 
ATOM     15  C   UNL     1       1.005   9.040  20.463  0.00  0.00    +0.000 A 
ATOM     16  N   UNL     1       1.496   7.809  20.754  0.00  0.00    +0.000 NA
ENDBRANCH   6   7
BRANCH   1  17
ATOM     17  O   UNL     1       4.416   5.544  18.699  0.00  0.00    +0.000 OA
BRANCH  17  19
ATOM     18  O   UNL     1       6.374   4.451  19.378  0.00  0.00    +0.000 OA
ATOM     19  C   UNL     1       5.606   4.846  18.512  0.00  0.00    +0.000 C 
BRANCH  19  20
ATOM     20  C   UNL     1       5.912   4.636  17.074  0.00  0.00    +0.000 A 
ATOM     21  C   UNL     1       7.205   4.967  16.627  0.00  0.00    +0.000 A 
ATOM     22  C   UNL     1       7.531   4.897  15.273  0.00  0.00    +0.000 A 
ATOM     23  C   UNL     1       6.564   4.491  14.362  0.00  0.00    +0.000 A 
ATOM     24  F   UNL     1       6.859   4.468  13.057  0.00  0.00    +0.000 F 
ATOM     25  C   UNL     1       5.290   4.124  14.788  0.00  0.00    +0.000 A 
ATOM     26  C   UNL     1       4.960   4.187  16.146  0.00  0.00    +0.000 A 
ENDBRANCH  19  20
ENDBRANCH  17  19
ENDBRANCH   1  17
TORSDOF 4
ENDMDL
MODEL 7
REMARK VINA RESULT:      -8.5      2.505      5.004
REMARK  Name = 
REMARK  4 active torsions:
REMARK  status: ('A' for Active; 'I' for Inactive)
REMARK    1  A    between atoms: C_2  and  O_3
REMARK    2  A    between atoms: C_2  and  C_20
REMARK    3  A    between atoms: O_3  and  C_4
REMARK    4  A    between atoms: C_9  and  C_10
REMARK                            x       y       z     vdW  Elec       q    Type
REMARK                         _______ _______ _______ _____ _____    ______ ____
ROOT
ATOM      1  C   UNL     1       3.381   3.750  19.281  0.00  0.00    +0.000 A 
ATOM      2  C   UNL     1       3.197   2.371  19.100  0.00  0.00    +0.000 A 
ATOM      3  C   UNL     1       1.956   1.788  19.331  0.00  0.00    +0.000 A 
ATOM      4  C   UNL     1       0.890   2.584  19.723  0.00  0.00    +0.000 A 
ATOM      5  C   UNL     1       1.050   3.971  19.810  0.00  0.00    +0.000 A 
ATOM      6  C   UNL     1       2.285   4.606  19.542  0.00  0.00    +0.000 A 
ENDROOT
BRANCH   6   7
ATOM      7  C   UNL     1       2.309   6.086  19.411  0.00  0.00    +0.000 A 
ATOM      8  C   UNL     1       2.503   6.722  18.193  0.00  0.00    +0.000 A 
ATOM      9  N   UNL     1       2.265   8.039  17.976  0.00  0.00    +0.000 NA
ATOM     10  C   UNL     1       1.768   8.727  19.014  0.00  0.00    +0.000 A 
ATOM     11  C   UNL     1       1.352  10.036  18.808  0.00  0.00    +0.000 A 
ATOM     12  C   UNL     1       0.763  10.780  19.830  0.00  0.00    +0.000 A 
ATOM     13  C   UNL     1       0.636  10.219  21.092  0.00  0.00    +0.000 A 
ATOM     14  C   UNL     1       1.069   8.905  21.313  0.00  0.00    +0.000 A 
ATOM     15  C   UNL     1       1.601   8.128  20.284  0.00  0.00    +0.000 A 
ATOM     16  N   UNL     1       1.892   6.818  20.485  0.00  0.00    +0.000 NA
ENDBRANCH   6   7
BRANCH   1  17
ATOM     17  O   UNL     1       4.691   4.300  19.187  0.00  0.00    +0.000 OA
BRANCH  17  19
ATOM     18  O   UNL     1       5.058   3.807  16.927  0.00  0.00    +0.000 OA
ATOM     19  C   UNL     1       5.255   4.482  17.927  0.00  0.00    +0.000 C 
BRANCH  19  20
ATOM     20  C   UNL     1       6.213   5.616  17.901  0.00  0.00    +0.000 A 
ATOM     21  C   UNL     1       7.293   5.579  18.802  0.00  0.00    +0.000 A 
ATOM     22  C   UNL     1       8.171   6.657  18.909  0.00  0.00    +0.000 A 
ATOM     23  C   UNL     1       7.972   7.775  18.109  0.00  0.00    +0.000 A 
ATOM     24  F   UNL     1       8.785   8.831  18.241  0.00  0.00    +0.000 F 
ATOM     25  C   UNL     1       6.932   7.817  17.184  0.00  0.00    +0.000 A 
ATOM     26  C   UNL     1       6.052   6.736  17.071  0.00  0.00    +0.000 A 
ENDBRANCH  19  20
ENDBRANCH  17  19
ENDBRANCH   1  17
TORSDOF 4
ENDMDL
MODEL 8
REMARK VINA RESULT:      -8.4      2.607      5.155
REMARK  Name = 
REMARK  4 active torsions:
REMARK  status: ('A' for Active; 'I' for Inactive)
REMARK    1  A    between atoms: C_2  and  O_3
REMARK    2  A    between atoms: C_2  and  C_20
REMARK    3  A    between atoms: O_3  and  C_4
REMARK    4  A    between atoms: C_9  and  C_10
REMARK                            x       y       z     vdW  Elec       q    Type
REMARK                         _______ _______ _______ _____ _____    ______ ____
ROOT
ATOM      1  C   UNL     1       2.847   3.792  19.127  0.00  0.00    +0.000 A 
ATOM      2  C   UNL     1       2.507   2.464  19.427  0.00  0.00    +0.000 A 
ATOM      3  C   UNL     1       1.874   2.150  20.624  0.00  0.00    +0.000 A 
ATOM      4  C   UNL     1       1.559   3.163  21.517  0.00  0.00    +0.000 A 
ATOM      5  C   UNL     1       1.811   4.496  21.176  0.00  0.00    +0.000 A 
ATOM      6  C   UNL     1       2.415   4.860  19.950  0.00  0.00    +0.000 A 
ENDROOT
BRANCH   6   7
ATOM      7  C   UNL     1       2.419   6.293  19.557  0.00  0.00    +0.000 A 
ATOM      8  C   UNL     1       2.737   6.712  18.272  0.00  0.00    +0.000 A 
ATOM      9  N   UNL     1       2.495   7.958  17.796  0.00  0.00    +0.000 NA
ATOM     10  C   UNL     1       1.863   8.795  18.631  0.00  0.00    +0.000 A 
ATOM     11  C   UNL     1       1.442  10.027  18.148  0.00  0.00    +0.000 A 
ATOM     12  C   UNL     1       0.720  10.912  18.946  0.00  0.00    +0.000 A 
ATOM     13  C   UNL     1       0.460  10.579  20.267  0.00  0.00    +0.000 A 
ATOM     14  C   UNL     1       0.896   9.346  20.769  0.00  0.00    +0.000 A 
ATOM     15  C   UNL     1       1.564   8.423  19.963  0.00  0.00    +0.000 A 
ATOM     16  N   UNL     1       1.861   7.184  20.428  0.00  0.00    +0.000 NA
ENDBRANCH   6   7
BRANCH   1  17
ATOM     17  O   UNL     1       3.628   4.073  17.971  0.00  0.00    +0.000 OA
BRANCH  17  19
ATOM     18  O   UNL     1       5.675   3.888  19.094  0.00  0.00    +0.000 OA
ATOM     19  C   UNL     1       5.016   4.084  18.083  0.00  0.00    +0.000 C 
BRANCH  19  20
ATOM     20  C   UNL     1       5.679   4.413  16.796  0.00  0.00    +0.000 A 
ATOM     21  C   UNL     1       4.937   4.228  15.614  0.00  0.00    +0.000 A 
ATOM     22  C   UNL     1       5.528   4.415  14.365  0.00  0.00    +0.000 A 
ATOM     23  C   UNL     1       6.863   4.791  14.296  0.00  0.00    +0.000 A 
ATOM     24  F   UNL     1       7.447   4.927  13.098  0.00  0.00    +0.000 F 
ATOM     25  C   UNL     1       7.604   5.016  15.452  0.00  0.00    +0.000 A 
ATOM     26  C   UNL     1       7.014   4.835  16.708  0.00  0.00    +0.000 A 
ENDBRANCH  19  20
ENDBRANCH  17  19
ENDBRANCH   1  17
TORSDOF 4
ENDMDL
MODEL 9
REMARK VINA RESULT:      -8.3      2.759      4.814
REMARK  Name = 
REMARK  4 active torsions:
REMARK  status: ('A' for Active; 'I' for Inactive)
REMARK    1  A    between atoms: C_2  and  O_3
REMARK    2  A    between atoms: C_2  and  C_20
REMARK    3  A    between atoms: O_3  and  C_4
REMARK    4  A    between atoms: C_9  and  C_10
REMARK                            x       y       z     vdW  Elec       q    Type
REMARK                         _______ _______ _______ _____ _____    ______ ____
ROOT
ATOM      1  C   UNL     1       4.018   4.679  19.150  0.00  0.00    +0.000 A 
ATOM      2  C   UNL     1       4.301   3.369  18.734  0.00  0.00    +0.000 A 
ATOM      3  C   UNL     1       3.293   2.556  18.227  0.00  0.00    +0.000 A 
ATOM      4  C   UNL     1       2.004   3.056  18.116  0.00  0.00    +0.000 A 
ATOM      5  C   UNL     1       1.743   4.391  18.441  0.00  0.00    +0.000 A 
ATOM      6  C   UNL     1       2.749   5.262  18.919  0.00  0.00    +0.000 A 
ENDROOT
BRANCH   6   7
ATOM      7  C   UNL     1       2.451   6.715  19.002  0.00  0.00    +0.000 A 
ATOM      8  C   UNL     1       2.362   7.521  17.875  0.00  0.00    +0.000 A 
ATOM      9  N   UNL     1       1.834   8.770  17.873  0.00  0.00    +0.000 NA
ATOM     10  C   UNL     1       1.332   9.199  19.039  0.00  0.00    +0.000 A 
ATOM     11  C   UNL     1       0.633  10.399  19.063  0.00  0.00    +0.000 A 
ATOM     12  C   UNL     1       0.029  10.865  20.230  0.00  0.00    +0.000 A 
ATOM     13  C   UNL     1       0.171  10.141  21.404  0.00  0.00    +0.000 A 
ATOM     14  C   UNL     1       0.889   8.938  21.394  0.00  0.00    +0.000 A 
ATOM     15  C   UNL     1       1.445   8.428  20.220  0.00  0.00    +0.000 A 
ATOM     16  N   UNL     1       2.023   7.201  20.203  0.00  0.00    +0.000 NA
ENDBRANCH   6   7
BRANCH   1  17
ATOM     17  O   UNL     1       5.028   5.440  19.805  0.00  0.00    +0.000 OA
BRANCH  17  19
ATOM     18  O   UNL     1       7.361   5.359  19.998  0.00  0.00    +0.000 OA
ATOM     19  C   UNL     1       6.336   5.368  19.332  0.00  0.00    +0.000 C 
BRANCH  19  20
ATOM     20  C   UNL     1       6.394   5.339  17.849  0.00  0.00    +0.000 A 
ATOM     21  C   UNL     1       5.597   6.262  17.146  0.00  0.00    +0.000 A 
ATOM     22  C   UNL     1       5.518   6.223  15.754  0.00  0.00    +0.000 A 
ATOM     23  C   UNL     1       6.242   5.261  15.061  0.00  0.00    +0.000 A 
ATOM     24  F   UNL     1       6.134   5.191  13.729  0.00  0.00    +0.000 F 
ATOM     25  C   UNL     1       7.066   4.363  15.734  0.00  0.00    +0.000 A 
ATOM     26  C   UNL     1       7.151   4.401  17.130  0.00  0.00    +0.000 A 
ENDBRANCH  19  20
ENDBRANCH  17  19
ENDBRANCH   1  17
TORSDOF 4
ENDMDL
