MODEL 1
REMARK VINA RESULT:      -9.0      0.000      0.000
REMARK  Name = 
REMARK  9 active torsions:
REMARK  status: ('A' for Active; 'I' for Inactive)
REMARK    1  A    between atoms: C_2  and  O_3
REMARK    2  A    between atoms: C_2  and  C_4
REMARK    3  A    between atoms: C_4  and  O_5
REMARK    4  A    between atoms: O_5  and  C_6
REMARK    5  A    between atoms: C_10  and  C_11
REMARK    6  A    between atoms: C_11  and  C_12
REMARK    7  A    between atoms: C_12  and  C_13
REMARK    8  A    between atoms: C_15  and  C_16
REMARK    9  A    between atoms: C_22  and  C_23
REMARK                            x       y       z     vdW  Elec       q    Type
REMARK                         _______ _______ _______ _____ _____    ______ ____
ROOT
ATOM      1  C   UNL     1       2.810   7.394  18.242  0.00  0.00    +0.000 A 
ATOM      2  N   UNL     1       2.474   6.477  19.114  0.00  0.00    +0.000 NA
ATOM      3  C   UNL     1       3.436   5.501  18.974  0.00  0.00    +0.000 A 
ATOM      4  C   UNL     1       4.327   5.875  17.982  0.00  0.00    +0.000 A 
ATOM      5  O   UNL     1       3.924   7.100  17.521  0.00  0.00    +0.000 OA
ENDROOT
BRANCH   3   6
ATOM      6  C   UNL     1       3.391   4.279  19.843  0.00  0.00    +0.000 C 
ATOM      7  C   UNL     1       2.221   4.320  20.845  0.00  0.00    +0.000 C 
ATOM      8  C   UNL     1       0.860   3.978  20.233  0.00  0.00    +0.000 C 
ATOM      9  C   UNL     1       0.899   2.666  19.459  0.00  0.00    +0.000 C 
ATOM     10  C   UNL     1       2.003   2.656  18.408  0.00  0.00    +0.000 C 
ATOM     11  C   UNL     1       3.370   2.982  19.013  0.00  0.00    +0.000 C 
ENDBRANCH   3   6
BRANCH   4  12
ATOM     12  C   UNL     1       5.551   5.272  17.358  0.00  0.00    +0.000 C 
ATOM     13  C   UNL     1       6.331   6.270  16.490  0.00  0.00    +0.000 C 
ATOM     14  C   UNL     1       7.071   7.339  17.295  0.00  0.00    +0.000 C 
ATOM     15  C   UNL     1       7.913   6.768  18.435  0.00  0.00    +0.000 C 
ATOM     16  C   UNL     1       7.239   5.663  19.247  0.00  0.00    +0.000 C 
ATOM     17  C   UNL     1       6.493   4.639  18.392  0.00  0.00    +0.000 C 
ENDBRANCH   4  12
BRANCH   1  18
ATOM     18  C   UNL     1       2.109   8.658  17.920  0.00  0.00    +0.000 C 
BRANCH  18  19
ATOM     19  C   UNL     1       1.492   9.253  19.185  0.00  0.00    +0.000 C 
BRANCH  19  24
ATOM     20  C   UNL     1      -1.655  11.120  18.103  0.00  0.00    +0.000 A 
ATOM     21  C   UNL     1      -1.259  12.447  18.283  0.00  0.00    +0.000 A 
ATOM     22  C   UNL     1       0.008  12.740  18.789  0.00  0.00    +0.000 A 
ATOM     23  C   UNL     1       0.893  11.709  19.100  0.00  0.00    +0.000 A 
ATOM     24  C   UNL     1       0.518  10.373  18.909  0.00  0.00    +0.000 A 
ATOM     25  C   UNL     1      -0.762  10.088  18.408  0.00  0.00    +0.000 A 
BRANCH  20  26
ATOM     26  O   UNL     1      -2.903  10.946  17.565  0.00  0.00    +0.000 OA
BRANCH  26  27
ATOM     27  C   UNL     1      -3.005   9.912  16.580  0.00  0.00    +0.000 C 
BRANCH  27  29
ATOM     28  O   UNL     1      -2.686  10.001  14.178  0.00  0.00    +0.000 OA
ATOM     29  C   UNL     1      -3.067  10.550  15.202  0.00  0.00    +0.000 C 
BRANCH  29  30
ATOM     30  O   UNL     1      -3.569  11.809  15.213  0.00  0.00    +0.000 OA
ATOM     31  H   UNL     1      -2.915  12.424  14.812  0.00  0.00    +0.000 HD
ENDBRANCH  29  30
ENDBRANCH  27  29
ENDBRANCH  26  27
ENDBRANCH  20  26
ENDBRANCH  19  24
ENDBRANCH  18  19
ENDBRANCH   1  18
TORSDOF 9
ENDMDL
MODEL 2
REMARK VINA RESULT:      -8.7      1.843      4.562
REMARK  Name = 
REMARK  9 active torsions:
REMARK  status: ('A' for Active; 'I' for Inactive)
REMARK    1  A    between atoms: C_2  and  O_3
REMARK    2  A    between atoms: C_2  and  C_4
REMARK    3  A    between atoms: C_4  and  O_5
REMARK    4  A    between atoms: O_5  and  C_6
REMARK    5  A    between atoms: C_10  and  C_11
REMARK    6  A    between atoms: C_11  and  C_12
REMARK    7  A    between atoms: C_12  and  C_13
REMARK    8  A    between atoms: C_15  and  C_16
REMARK    9  A    between atoms: C_22  and  C_23
REMARK                            x       y       z     vdW  Elec       q    Type
REMARK                         _______ _______ _______ _____ _____    ______ ____
ROOT
ATOM      1  C   UNL     1       2.641   6.950  18.656  0.00  0.00    +0.000 A 
ATOM      2  N   UNL     1       3.833   6.909  18.114  0.00  0.00    +0.000 NA
ATOM      3  C   UNL     1       4.058   5.571  17.879  0.00  0.00    +0.000 A 
ATOM      4  C   UNL     1       2.967   4.838  18.317  0.00  0.00    +0.000 A 
ATOM      5  O   UNL     1       2.053   5.733  18.808  0.00  0.00    +0.000 OA
ENDROOT
BRANCH   3   6
ATOM      6  C   UNL     1       5.339   5.132  17.232  0.00  0.00    +0.000 C 
ATOM      7  C   UNL     1       5.998   6.263  16.420  0.00  0.00    +0.000 C 
ATOM      8  C   UNL     1       6.741   7.295  17.272  0.00  0.00    +0.000 C 
ATOM      9  C   UNL     1       7.726   6.637  18.231  0.00  0.00    +0.000 C 
ATOM     10  C   UNL     1       7.056   5.575  19.096  0.00  0.00    +0.000 C 
ATOM     11  C   UNL     1       6.323   4.530  18.253  0.00  0.00    +0.000 C 
ENDBRANCH   3   6
BRANCH   4  12
ATOM     12  C   UNL     1       2.599   3.385  18.358  0.00  0.00    +0.000 C 
ATOM     13  C   UNL     1       3.439   2.585  19.364  0.00  0.00    +0.000 C 
ATOM     14  C   UNL     1       3.095   2.880  20.824  0.00  0.00    +0.000 C 
ATOM     15  C   UNL     1       1.598   2.811  21.123  0.00  0.00    +0.000 C 
ATOM     16  C   UNL     1       0.699   3.467  20.076  0.00  0.00    +0.000 C 
ATOM     17  C   UNL     1       1.107   3.159  18.635  0.00  0.00    +0.000 C 
ENDBRANCH   4  12
BRANCH   1  18
ATOM     18  C   UNL     1       1.898   8.128  19.157  0.00  0.00    +0.000 C 
BRANCH  18  19
ATOM     19  C   UNL     1       1.569   7.950  20.638  0.00  0.00    +0.000 C 
BRANCH  19  24
ATOM     20  C   UNL     1      -0.437  11.185  20.915  0.00  0.00    +0.000 A 
ATOM     21  C   UNL     1      -0.868  11.123  22.242  0.00  0.00    +0.000 A 
ATOM     22  C   UNL     1      -0.547  10.023  23.035  0.00  0.00    +0.000 A 
ATOM     23  C   UNL     1       0.225   8.986  22.515  0.00  0.00    +0.000 A 
ATOM     24  C   UNL     1       0.681   9.039  21.192  0.00  0.00    +0.000 A 
ATOM     25  C   UNL     1       0.344  10.146  20.398  0.00  0.00    +0.000 A 
BRANCH  20  26
ATOM     26  O   UNL     1      -0.777  12.326  20.237  0.00  0.00    +0.000 OA
BRANCH  26  27
ATOM     27  C   UNL     1      -0.574  12.278  18.821  0.00  0.00    +0.000 C 
BRANCH  27  29
ATOM     28  O   UNL     1      -2.946  11.780  18.746  0.00  0.00    +0.000 OA
ATOM     29  C   UNL     1      -1.903  11.987  18.143  0.00  0.00    +0.000 C 
BRANCH  29  30
ATOM     30  O   UNL     1      -1.822  11.954  16.790  0.00  0.00    +0.000 OA
ATOM     31  H   UNL     1      -2.119  12.816  16.424  0.00  0.00    +0.000 HD
ENDBRANCH  29  30
ENDBRANCH  27  29
ENDBRANCH  26  27
ENDBRANCH  20  26
ENDBRANCH  19  24
ENDBRANCH  18  19
ENDBRANCH   1  18
TORSDOF 9
ENDMDL
MODEL 3
REMARK VINA RESULT:      -8.6      1.070      3.951
REMARK  Name = 
REMARK  9 active torsions:
REMARK  status: ('A' for Active; 'I' for Inactive)
REMARK    1  A    between atoms: C_2  and  O_3
REMARK    2  A    between atoms: C_2  and  C_4
REMARK    3  A    between atoms: C_4  and  O_5
REMARK    4  A    between atoms: O_5  and  C_6
REMARK    5  A    between atoms: C_10  and  C_11
REMARK    6  A    between atoms: C_11  and  C_12
REMARK    7  A    between atoms: C_12  and  C_13
REMARK    8  A    between atoms: C_15  and  C_16
REMARK    9  A    between atoms: C_22  and  C_23
REMARK                            x       y       z     vdW  Elec       q    Type
REMARK                         _______ _______ _______ _____ _____    ______ ____
ROOT
ATOM      1  C   UNL     1       2.579   6.943  18.694  0.00  0.00    +0.000 A 
ATOM      2  N   UNL     1       3.766   6.853  18.148  0.00  0.00    +0.000 NA
ATOM      3  C   UNL     1       3.938   5.506  17.920  0.00  0.00    +0.000 A 
ATOM      4  C   UNL     1       2.820   4.819  18.365  0.00  0.00    +0.000 A 
ATOM      5  O   UNL     1       1.944   5.752  18.854  0.00  0.00    +0.000 OA
ENDROOT
BRANCH   3   6
ATOM      6  C   UNL     1       5.198   5.013  17.271  0.00  0.00    +0.000 C 
ATOM      7  C   UNL     1       5.850   6.087  16.377  0.00  0.00    +0.000 C 
ATOM      8  C   UNL     1       6.624   7.158  17.149  0.00  0.00    +0.000 C 
ATOM      9  C   UNL     1       7.624   6.547  18.123  0.00  0.00    +0.000 C 
ATOM     10  C   UNL     1       6.963   5.547  19.065  0.00  0.00    +0.000 C 
ATOM     11  C   UNL     1       6.199   4.462  18.303  0.00  0.00    +0.000 C 
ENDBRANCH   3   6
BRANCH   4  12
ATOM     12  C   UNL     1       2.396   3.381  18.416  0.00  0.00    +0.000 C 
ATOM     13  C   UNL     1       3.466   2.464  19.025  0.00  0.00    +0.000 C 
ATOM     14  C   UNL     1       3.635   2.635  20.535  0.00  0.00    +0.000 C 
ATOM     15  C   UNL     1       2.316   2.590  21.304  0.00  0.00    +0.000 C 
ATOM     16  C   UNL     1       1.167   3.370  20.665  0.00  0.00    +0.000 C 
ATOM     17  C   UNL     1       1.064   3.182  19.152  0.00  0.00    +0.000 C 
ENDBRANCH   4  12
BRANCH   1  18
ATOM     18  C   UNL     1       1.884   8.153  19.191  0.00  0.00    +0.000 C 
BRANCH  18  19
ATOM     19  C   UNL     1       1.926   9.254  18.132  0.00  0.00    +0.000 C 
BRANCH  19  24
ATOM     20  C   UNL     1      -1.313  11.218  18.598  0.00  0.00    +0.000 A 
ATOM     21  C   UNL     1      -0.820  12.508  18.802  0.00  0.00    +0.000 A 
ATOM     22  C   UNL     1       0.555  12.740  18.829  0.00  0.00    +0.000 A 
ATOM     23  C   UNL     1       1.446  11.687  18.632  0.00  0.00    +0.000 A 
ATOM     24  C   UNL     1       0.969  10.389  18.408  0.00  0.00    +0.000 A 
ATOM     25  C   UNL     1      -0.416  10.164  18.392  0.00  0.00    +0.000 A 
BRANCH  20  26
ATOM     26  O   UNL     1      -2.678  11.108  18.552  0.00  0.00    +0.000 OA
BRANCH  26  27
ATOM     27  C   UNL     1      -3.193  10.345  17.456  0.00  0.00    +0.000 C 
BRANCH  27  29
ATOM     28  O   UNL     1      -4.979  11.801  16.700  0.00  0.00    +0.000 OA
ATOM     29  C   UNL     1      -3.892  11.285  16.487  0.00  0.00    +0.000 C 
BRANCH  29  30
ATOM     30  O   UNL     1      -3.202  11.484  15.336  0.00  0.00    +0.000 OA
ATOM     31  H   UNL     1      -2.238  11.438  15.522  0.00  0.00    +0.000 HD
ENDBRANCH  29  30
ENDBRANCH  27  29
ENDBRANCH  26  27
ENDBRANCH  20  26
ENDBRANCH  19  24
ENDBRANCH  18  19
ENDBRANCH   1  18
TORSDOF 9
ENDMDL
MODEL 4
REMARK VINA RESULT:      -8.6      0.905      4.049
REMARK  Name = 
REMARK  9 active torsions:
REMARK  status: ('A' for Active; 'I' for Inactive)
REMARK    1  A    between atoms: C_2  and  O_3
REMARK    2  A    between atoms: C_2  and  C_4
REMARK    3  A    between atoms: C_4  and  O_5
REMARK    4  A    between atoms: O_5  and  C_6
REMARK    5  A    between atoms: C_10  and  C_11
REMARK    6  A    between atoms: C_11  and  C_12
REMARK    7  A    between atoms: C_12  and  C_13
REMARK    8  A    between atoms: C_15  and  C_16
REMARK    9  A    between atoms: C_22  and  C_23
REMARK                            x       y       z     vdW  Elec       q    Type
REMARK                         _______ _______ _______ _____ _____    ______ ____
ROOT
ATOM      1  C   UNL     1       2.812   7.344  17.993  0.00  0.00    +0.000 A 
ATOM      2  N   UNL     1       3.932   7.066  17.374  0.00  0.00    +0.000 NA
ATOM      3  C   UNL     1       4.387   5.919  17.985  0.00  0.00    +0.000 A 
ATOM      4  C   UNL     1       3.505   5.553  18.988  0.00  0.00    +0.000 A 
ATOM      5  O   UNL     1       2.486   6.470  18.982  0.00  0.00    +0.000 OA
ENDROOT
BRANCH   3   6
ATOM      6  C   UNL     1       5.661   5.279  17.518  0.00  0.00    +0.000 C 
ATOM      7  C   UNL     1       6.510   6.235  16.655  0.00  0.00    +0.000 C 
ATOM      8  C   UNL     1       7.288   7.278  17.459  0.00  0.00    +0.000 C 
ATOM      9  C   UNL     1       8.108   6.642  18.575  0.00  0.00    +0.000 C 
ATOM     10  C   UNL     1       7.252   5.763  19.481  0.00  0.00    +0.000 C 
ATOM     11  C   UNL     1       6.481   4.706  18.688  0.00  0.00    +0.000 C 
ENDBRANCH   3   6
BRANCH   4  12
ATOM     12  C   UNL     1       3.429   4.446  19.998  0.00  0.00    +0.000 C 
ATOM     13  C   UNL     1       2.236   4.591  20.954  0.00  0.00    +0.000 C 
ATOM     14  C   UNL     1       0.885   4.304  20.299  0.00  0.00    +0.000 C 
ATOM     15  C   UNL     1       0.855   2.992  19.516  0.00  0.00    +0.000 C 
ATOM     16  C   UNL     1       2.088   2.724  18.655  0.00  0.00    +0.000 C 
ATOM     17  C   UNL     1       3.408   3.055  19.352  0.00  0.00    +0.000 C 
ENDBRANCH   4  12
BRANCH   1  18
ATOM     18  C   UNL     1       1.906   8.497  17.783  0.00  0.00    +0.000 C 
BRANCH  18  19
ATOM     19  C   UNL     1       1.492   9.090  19.130  0.00  0.00    +0.000 C 
BRANCH  19  24
ATOM     20  C   UNL     1      -1.550  11.369  18.795  0.00  0.00    +0.000 A 
ATOM     21  C   UNL     1      -0.940  12.617  18.652  0.00  0.00    +0.000 A 
ATOM     22  C   UNL     1       0.449  12.729  18.701  0.00  0.00    +0.000 A 
ATOM     23  C   UNL     1       1.238  11.594  18.875  0.00  0.00    +0.000 A 
ATOM     24  C   UNL     1       0.643  10.333  19.003  0.00  0.00    +0.000 A 
ATOM     25  C   UNL     1      -0.756  10.230  18.961  0.00  0.00    +0.000 A 
BRANCH  20  26
ATOM     26  O   UNL     1      -2.917  11.367  18.693  0.00  0.00    +0.000 OA
BRANCH  26  27
ATOM     27  C   UNL     1      -3.448  10.560  17.637  0.00  0.00    +0.000 C 
BRANCH  27  29
ATOM     28  O   UNL     1      -5.148  12.011  16.695  0.00  0.00    +0.000 OA
ATOM     29  C   UNL     1      -4.058  11.469  16.582  0.00  0.00    +0.000 C 
BRANCH  29  30
ATOM     30  O   UNL     1      -3.284  11.609  15.477  0.00  0.00    +0.000 OA
ATOM     31  H   UNL     1      -2.463  12.094  15.714  0.00  0.00    +0.000 HD
ENDBRANCH  29  30
ENDBRANCH  27  29
ENDBRANCH  26  27
ENDBRANCH  20  26
ENDBRANCH  19  24
ENDBRANCH  18  19
ENDBRANCH   1  18
TORSDOF 9
ENDMDL
MODEL 5
REMARK VINA RESULT:      -8.5      1.458      4.077
REMARK  Name = 
REMARK  9 active torsions:
REMARK  status: ('A' for Active; 'I' for Inactive)
REMARK    1  A    between atoms: C_2  and  O_3
REMARK    2  A    between atoms: C_2  and  C_4
REMARK    3  A    between atoms: C_4  and  O_5
REMARK    4  A    between atoms: O_5  and  C_6
REMARK    5  A    between atoms: C_10  and  C_11
REMARK    6  A    between atoms: C_11  and  C_12
REMARK    7  A    between atoms: C_12  and  C_13
REMARK    8  A    between atoms: C_15  and  C_16
REMARK    9  A    between atoms: C_22  and  C_23
REMARK                            x       y       z     vdW  Elec       q    Type
REMARK                         _______ _______ _______ _____ _____    ______ ____
ROOT
ATOM      1  C   UNL     1       2.710   6.755  18.121  0.00  0.00    +0.000 A 
ATOM      2  N   UNL     1       3.891   6.360  17.713  0.00  0.00    +0.000 NA
ATOM      3  C   UNL     1       3.836   4.986  17.780  0.00  0.00    +0.000 A 
ATOM      4  C   UNL     1       2.593   4.599  18.256  0.00  0.00    +0.000 A 
ATOM      5  O   UNL     1       1.869   5.744  18.464  0.00  0.00    +0.000 OA
ENDROOT
BRANCH   3   6
ATOM      6  C   UNL     1       5.023   4.169  17.361  0.00  0.00    +0.000 C 
ATOM      7  C   UNL     1       5.196   4.140  15.830  0.00  0.00    +0.000 C 
ATOM      8  C   UNL     1       5.820   5.410  15.246  0.00  0.00    +0.000 C 
ATOM      9  C   UNL     1       7.113   5.787  15.957  0.00  0.00    +0.000 C 
ATOM     10  C   UNL     1       6.923   5.900  17.465  0.00  0.00    +0.000 C 
ATOM     11  C   UNL     1       6.314   4.629  18.061  0.00  0.00    +0.000 C 
ENDBRANCH   3   6
BRANCH   4  12
ATOM     12  C   UNL     1       1.921   3.293  18.560  0.00  0.00    +0.000 C 
ATOM     13  C   UNL     1       2.907   2.207  19.015  0.00  0.00    +0.000 C 
ATOM     14  C   UNL     1       3.465   2.432  20.420  0.00  0.00    +0.000 C 
ATOM     15  C   UNL     1       2.388   2.722  21.464  0.00  0.00    +0.000 C 
ATOM     16  C   UNL     1       1.294   3.690  21.014  0.00  0.00    +0.000 C 
ATOM     17  C   UNL     1       0.794   3.433  19.592  0.00  0.00    +0.000 C 
ENDBRANCH   4  12
BRANCH   1  18
ATOM     18  C   UNL     1       2.213   8.139  18.297  0.00  0.00    +0.000 C 
BRANCH  18  19
ATOM     19  C   UNL     1       1.812   8.371  19.753  0.00  0.00    +0.000 C 
BRANCH  19  24
ATOM     20  C   UNL     1      -0.757  11.074  18.943  0.00  0.00    +0.000 A 
ATOM     21  C   UNL     1      -1.108  11.506  20.223  0.00  0.00    +0.000 A 
ATOM     22  C   UNL     1      -0.547  10.902  21.348  0.00  0.00    +0.000 A 
ATOM     23  C   UNL     1       0.383   9.875  21.200  0.00  0.00    +0.000 A 
ATOM     24  C   UNL     1       0.760   9.441  19.923  0.00  0.00    +0.000 A 
ATOM     25  C   UNL     1       0.183  10.048  18.797  0.00  0.00    +0.000 A 
BRANCH  20  26
ATOM     26  O   UNL     1      -1.337  11.760  17.909  0.00  0.00    +0.000 OA
BRANCH  26  27
ATOM     27  C   UNL     1      -2.751  11.575  17.771  0.00  0.00    +0.000 C 
BRANCH  27  29
ATOM     28  O   UNL     1      -3.133   9.597  16.420  0.00  0.00    +0.000 OA
ATOM     29  C   UNL     1      -3.023  10.813  16.483  0.00  0.00    +0.000 C 
BRANCH  29  30
ATOM     30  O   UNL     1      -3.111  11.613  15.392  0.00  0.00    +0.000 OA
ATOM     31  H   UNL     1      -3.978  11.470  14.952  0.00  0.00    +0.000 HD
ENDBRANCH  29  30
ENDBRANCH  27  29
ENDBRANCH  26  27
ENDBRANCH  20  26
ENDBRANCH  19  24
ENDBRANCH  18  19
ENDBRANCH   1  18
TORSDOF 9
ENDMDL
MODEL 6
REMARK VINA RESULT:      -8.5      0.904      1.164
REMARK  Name = 
REMARK  9 active torsions:
REMARK  status: ('A' for Active; 'I' for Inactive)
REMARK    1  A    between atoms: C_2  and  O_3
REMARK    2  A    between atoms: C_2  and  C_4
REMARK    3  A    between atoms: C_4  and  O_5
REMARK    4  A    between atoms: O_5  and  C_6
REMARK    5  A    between atoms: C_10  and  C_11
REMARK    6  A    between atoms: C_11  and  C_12
REMARK    7  A    between atoms: C_12  and  C_13
REMARK    8  A    between atoms: C_15  and  C_16
REMARK    9  A    between atoms: C_22  and  C_23
REMARK                            x       y       z     vdW  Elec       q    Type
REMARK                         _______ _______ _______ _____ _____    ______ ____
ROOT
ATOM      1  C   UNL     1       2.757   7.368  18.199  0.00  0.00    +0.000 A 
ATOM      2  N   UNL     1       2.437   6.404  19.025  0.00  0.00    +0.000 NA
ATOM      3  C   UNL     1       3.419   5.456  18.846  0.00  0.00    +0.000 A 
ATOM      4  C   UNL     1       4.308   5.895  17.877  0.00  0.00    +0.000 A 
ATOM      5  O   UNL     1       3.881   7.132  17.471  0.00  0.00    +0.000 OA
ENDROOT
BRANCH   3   6
ATOM      6  C   UNL     1       3.397   4.194  19.656  0.00  0.00    +0.000 C 
ATOM      7  C   UNL     1       2.339   4.242  20.777  0.00  0.00    +0.000 C 
ATOM      8  C   UNL     1       0.907   4.000  20.296  0.00  0.00    +0.000 C 
ATOM      9  C   UNL     1       0.793   2.730  19.462  0.00  0.00    +0.000 C 
ATOM     10  C   UNL     1       1.781   2.720  18.301  0.00  0.00    +0.000 C 
ATOM     11  C   UNL     1       3.219   2.945  18.773  0.00  0.00    +0.000 C 
ENDBRANCH   3   6
BRANCH   4  12
ATOM     12  C   UNL     1       5.547   5.348  17.233  0.00  0.00    +0.000 C 
ATOM     13  C   UNL     1       6.325   6.408  16.440  0.00  0.00    +0.000 C 
ATOM     14  C   UNL     1       7.040   7.433  17.320  0.00  0.00    +0.000 C 
ATOM     15  C   UNL     1       7.875   6.802  18.434  0.00  0.00    +0.000 C 
ATOM     16  C   UNL     1       7.205   5.640  19.166  0.00  0.00    +0.000 C 
ATOM     17  C   UNL     1       6.484   4.663  18.237  0.00  0.00    +0.000 C 
ENDBRANCH   4  12
BRANCH   1  18
ATOM     18  C   UNL     1       2.031   8.631  17.932  0.00  0.00    +0.000 C 
BRANCH  18  19
ATOM     19  C   UNL     1       1.374   9.140  19.215  0.00  0.00    +0.000 C 
BRANCH  19  24
ATOM     20  C   UNL     1      -1.227  11.697  18.094  0.00  0.00    +0.000 A 
ATOM     21  C   UNL     1      -0.679  12.878  18.596  0.00  0.00    +0.000 A 
ATOM     22  C   UNL     1       0.507  12.848  19.328  0.00  0.00    +0.000 A 
ATOM     23  C   UNL     1       1.164  11.639  19.547  0.00  0.00    +0.000 A 
ATOM     24  C   UNL     1       0.637  10.446  19.035  0.00  0.00    +0.000 A 
ATOM     25  C   UNL     1      -0.562  10.485  18.308  0.00  0.00    +0.000 A 
BRANCH  20  26
ATOM     26  O   UNL     1      -2.373  11.844  17.358  0.00  0.00    +0.000 OA
BRANCH  26  27
ATOM     27  C   UNL     1      -3.556  11.300  17.953  0.00  0.00    +0.000 C 
BRANCH  27  29
ATOM     28  O   UNL     1      -5.681  12.229  17.241  0.00  0.00    +0.000 OA
ATOM     29  C   UNL     1      -4.725  11.505  17.002  0.00  0.00    +0.000 C 
BRANCH  29  30
ATOM     30  O   UNL     1      -4.622  10.783  15.859  0.00  0.00    +0.000 OA
ATOM     31  H   UNL     1      -4.776   9.833  16.058  0.00  0.00    +0.000 HD
ENDBRANCH  29  30
ENDBRANCH  27  29
ENDBRANCH  26  27
ENDBRANCH  20  26
ENDBRANCH  19  24
ENDBRANCH  18  19
ENDBRANCH   1  18
TORSDOF 9
ENDMDL
MODEL 7
REMARK VINA RESULT:      -8.5      3.013      5.477
REMARK  Name = 
REMARK  9 active torsions:
REMARK  status: ('A' for Active; 'I' for Inactive)
REMARK    1  A    between atoms: C_2  and  O_3
REMARK    2  A    between atoms: C_2  and  C_4
REMARK    3  A    between atoms: C_4  and  O_5
REMARK    4  A    between atoms: O_5  and  C_6
REMARK    5  A    between atoms: C_10  and  C_11
REMARK    6  A    between atoms: C_11  and  C_12
REMARK    7  A    between atoms: C_12  and  C_13
REMARK    8  A    between atoms: C_15  and  C_16
REMARK    9  A    between atoms: C_22  and  C_23
REMARK                            x       y       z     vdW  Elec       q    Type
REMARK                         _______ _______ _______ _____ _____    ______ ____
ROOT
ATOM      1  C   UNL     1       2.577   7.067  19.149  0.00  0.00    +0.000 A 
ATOM      2  N   UNL     1       3.555   7.023  18.279  0.00  0.00    +0.000 NA
ATOM      3  C   UNL     1       4.031   5.734  18.360  0.00  0.00    +0.000 A 
ATOM      4  C   UNL     1       3.310   5.038  19.317  0.00  0.00    +0.000 A 
ATOM      5  O   UNL     1       2.368   5.900  19.815  0.00  0.00    +0.000 OA
ENDROOT
BRANCH   3   6
ATOM      6  C   UNL     1       5.162   5.298  17.476  0.00  0.00    +0.000 C 
ATOM      7  C   UNL     1       5.677   6.444  16.583  0.00  0.00    +0.000 C 
ATOM      8  C   UNL     1       6.583   7.442  17.308  0.00  0.00    +0.000 C 
ATOM      9  C   UNL     1       7.717   6.747  18.050  0.00  0.00    +0.000 C 
ATOM     10  C   UNL     1       7.202   5.669  18.997  0.00  0.00    +0.000 C 
ATOM     11  C   UNL     1       6.308   4.657  18.279  0.00  0.00    +0.000 C 
ENDBRANCH   3   6
BRANCH   4  12
ATOM     12  C   UNL     1       3.335   3.646  19.876  0.00  0.00    +0.000 C 
ATOM     13  C   UNL     1       2.146   3.355  20.803  0.00  0.00    +0.000 C 
ATOM     14  C   UNL     1       0.814   3.209  20.068  0.00  0.00    +0.000 C 
ATOM     15  C   UNL     1       0.878   2.255  18.876  0.00  0.00    +0.000 C 
ATOM     16  C   UNL     1       2.118   2.401  17.995  0.00  0.00    +0.000 C 
ATOM     17  C   UNL     1       3.416   2.571  18.785  0.00  0.00    +0.000 C 
ENDBRANCH   4  12
BRANCH   1  18
ATOM     18  C   UNL     1       1.727   8.220  19.522  0.00  0.00    +0.000 C 
BRANCH  18  19
ATOM     19  C   UNL     1       1.354   8.141  21.001  0.00  0.00    +0.000 C 
BRANCH  19  24
ATOM     20  C   UNL     1      -0.023  11.688  21.285  0.00  0.00    +0.000 A 
ATOM     21  C   UNL     1      -0.794  11.588  22.445  0.00  0.00    +0.000 A 
ATOM     22  C   UNL     1      -0.902  10.369  23.114  0.00  0.00    +0.000 A 
ATOM     23  C   UNL     1      -0.224   9.248  22.640  0.00  0.00    +0.000 A 
ATOM     24  C   UNL     1       0.567   9.335  21.487  0.00  0.00    +0.000 A 
ATOM     25  C   UNL     1       0.662  10.563  20.815  0.00  0.00    +0.000 A 
BRANCH  20  26
ATOM     26  O   UNL     1       0.045  12.939  20.729  0.00  0.00    +0.000 OA
BRANCH  26  27
ATOM     27  C   UNL     1       0.633  13.945  21.560  0.00  0.00    +0.000 C 
BRANCH  27  29
ATOM     28  O   UNL     1       2.568  13.821  20.103  0.00  0.00    +0.000 OA
ATOM     29  C   UNL     1       2.106  14.077  21.206  0.00  0.00    +0.000 C 
BRANCH  29  30
ATOM     30  O   UNL     1       2.876  14.486  22.244  0.00  0.00    +0.000 OA
ATOM     31  H   UNL     1       3.786  14.671  21.922  0.00  0.00    +0.000 HD
ENDBRANCH  29  30
ENDBRANCH  27  29
ENDBRANCH  26  27
ENDBRANCH  20  26
ENDBRANCH  19  24
ENDBRANCH  18  19
ENDBRANCH   1  18
TORSDOF 9
ENDMDL
MODEL 8
REMARK VINA RESULT:      -8.5      2.189      3.463
REMARK  Name = 
REMARK  9 active torsions:
REMARK  status: ('A' for Active; 'I' for Inactive)
REMARK    1  A    between atoms: C_2  and  O_3
REMARK    2  A    between atoms: C_2  and  C_4
REMARK    3  A    between atoms: C_4  and  O_5
REMARK    4  A    between atoms: O_5  and  C_6
REMARK    5  A    between atoms: C_10  and  C_11
REMARK    6  A    between atoms: C_11  and  C_12
REMARK    7  A    between atoms: C_12  and  C_13
REMARK    8  A    between atoms: C_15  and  C_16
REMARK    9  A    between atoms: C_22  and  C_23
REMARK                            x       y       z     vdW  Elec       q    Type
REMARK                         _______ _______ _______ _____ _____    ______ ____
ROOT
ATOM      1  C   UNL     1       2.647   6.996  18.520  0.00  0.00    +0.000 A 
ATOM      2  N   UNL     1       2.060   5.837  18.688  0.00  0.00    +0.000 NA
ATOM      3  C   UNL     1       2.923   4.928  18.119  0.00  0.00    +0.000 A 
ATOM      4  C   UNL     1       4.019   5.598  17.601  0.00  0.00    +0.000 A 
ATOM      5  O   UNL     1       3.840   6.930  17.872  0.00  0.00    +0.000 OA
ENDROOT
BRANCH   3   6
ATOM      6  C   UNL     1       2.588   3.466  18.142  0.00  0.00    +0.000 C 
ATOM      7  C   UNL     1       3.539   2.665  19.053  0.00  0.00    +0.000 C 
ATOM      8  C   UNL     1       3.230   2.794  20.546  0.00  0.00    +0.000 C 
ATOM      9  C   UNL     1       1.768   2.498  20.853  0.00  0.00    +0.000 C 
ATOM     10  C   UNL     1       0.825   3.351  20.012  0.00  0.00    +0.000 C 
ATOM     11  C   UNL     1       1.115   3.217  18.515  0.00  0.00    +0.000 C 
ENDBRANCH   3   6
BRANCH   4  12
ATOM     12  C   UNL     1       5.268   5.205  16.870  0.00  0.00    +0.000 C 
ATOM     13  C   UNL     1       5.978   6.400  16.217  0.00  0.00    +0.000 C 
ATOM     14  C   UNL     1       6.663   7.331  17.217  0.00  0.00    +0.000 C 
ATOM     15  C   UNL     1       7.551   6.597  18.222  0.00  0.00    +0.000 C 
ATOM     16  C   UNL     1       6.953   5.315  18.799  0.00  0.00    +0.000 C 
ATOM     17  C   UNL     1       6.258   4.438  17.758  0.00  0.00    +0.000 C 
ENDBRANCH   4  12
BRANCH   1  18
ATOM     18  C   UNL     1       2.155   8.341  18.897  0.00  0.00    +0.000 C 
BRANCH  18  19
ATOM     19  C   UNL     1       1.419   8.979  17.720  0.00  0.00    +0.000 C 
BRANCH  19  24
ATOM     20  C   UNL     1      -0.847  11.302  19.727  0.00  0.00    +0.000 A 
ATOM     21  C   UNL     1      -2.024  11.248  18.977  0.00  0.00    +0.000 A 
ATOM     22  C   UNL     1      -2.076  10.494  17.805  0.00  0.00    +0.000 A 
ATOM     23  C   UNL     1      -0.959   9.775  17.384  0.00  0.00    +0.000 A 
ATOM     24  C   UNL     1       0.224   9.804  18.134  0.00  0.00    +0.000 A 
ATOM     25  C   UNL     1       0.270  10.572  19.308  0.00  0.00    +0.000 A 
BRANCH  20  26
ATOM     26  O   UNL     1      -0.917  12.040  20.880  0.00  0.00    +0.000 OA
BRANCH  26  27
ATOM     27  C   UNL     1      -0.123  11.551  21.967  0.00  0.00    +0.000 C 
BRANCH  27  29
ATOM     28  O   UNL     1      -2.143  11.392  23.298  0.00  0.00    +0.000 OA
ATOM     29  C   UNL     1      -1.043  10.943  23.013  0.00  0.00    +0.000 C 
BRANCH  29  30
ATOM     30  O   UNL     1      -0.515   9.856  23.629  0.00  0.00    +0.000 OA
ATOM     31  H   UNL     1       0.354  10.093  24.021  0.00  0.00    +0.000 HD
ENDBRANCH  29  30
ENDBRANCH  27  29
ENDBRANCH  26  27
ENDBRANCH  20  26
ENDBRANCH  19  24
ENDBRANCH  18  19
ENDBRANCH   1  18
TORSDOF 9
ENDMDL
MODEL 9
REMARK VINA RESULT:      -8.4      2.775      5.194
REMARK  Name = 
REMARK  9 active torsions:
REMARK  status: ('A' for Active; 'I' for Inactive)
REMARK    1  A    between atoms: C_2  and  O_3
REMARK    2  A    between atoms: C_2  and  C_4
REMARK    3  A    between atoms: C_4  and  O_5
REMARK    4  A    between atoms: O_5  and  C_6
REMARK    5  A    between atoms: C_10  and  C_11
REMARK    6  A    between atoms: C_11  and  C_12
REMARK    7  A    between atoms: C_12  and  C_13
REMARK    8  A    between atoms: C_15  and  C_16
REMARK    9  A    between atoms: C_22  and  C_23
REMARK                            x       y       z     vdW  Elec       q    Type
REMARK                         _______ _______ _______ _____ _____    ______ ____
ROOT
ATOM      1  C   UNL     1       2.927   6.652  18.037  0.00  0.00    +0.000 A 
ATOM      2  N   UNL     1       4.144   6.290  17.717  0.00  0.00    +0.000 NA
ATOM      3  C   UNL     1       4.119   4.915  17.766  0.00  0.00    +0.000 A 
ATOM      4  C   UNL     1       2.854   4.492  18.140  0.00  0.00    +0.000 A 
ATOM      5  O   UNL     1       2.087   5.616  18.304  0.00  0.00    +0.000 OA
ENDROOT
BRANCH   3   6
ATOM      6  C   UNL     1       5.355   4.133  17.430  0.00  0.00    +0.000 C 
ATOM      7  C   UNL     1       5.319   3.578  15.993  0.00  0.00    +0.000 C 
ATOM      8  C   UNL     1       5.641   4.614  14.914  0.00  0.00    +0.000 C 
ATOM      9  C   UNL     1       6.940   5.354  15.205  0.00  0.00    +0.000 C 
ATOM     10  C   UNL     1       6.942   5.977  16.596  0.00  0.00    +0.000 C 
ATOM     11  C   UNL     1       6.638   4.945  17.684  0.00  0.00    +0.000 C 
ENDBRANCH   3   6
BRANCH   4  12
ATOM     12  C   UNL     1       2.193   3.167  18.379  0.00  0.00    +0.000 C 
ATOM     13  C   UNL     1       3.133   2.141  19.030  0.00  0.00    +0.000 C 
ATOM     14  C   UNL     1       3.441   2.434  20.498  0.00  0.00    +0.000 C 
ATOM     15  C   UNL     1       2.195   2.707  21.339  0.00  0.00    +0.000 C 
ATOM     16  C   UNL     1       1.153   3.609  20.679  0.00  0.00    +0.000 C 
ATOM     17  C   UNL     1       0.906   3.287  19.206  0.00  0.00    +0.000 C 
ENDBRANCH   4  12
BRANCH   1  18
ATOM     18  C   UNL     1       2.383   8.021  18.189  0.00  0.00    +0.000 C 
BRANCH  18  19
ATOM     19  C   UNL     1       1.867   8.226  19.612  0.00  0.00    +0.000 C 
BRANCH  19  24
ATOM     20  C   UNL     1      -0.037  11.134  21.188  0.00  0.00    +0.000 A 
ATOM     21  C   UNL     1      -0.717  11.644  20.081  0.00  0.00    +0.000 A 
ATOM     22  C   UNL     1      -0.533  11.077  18.820  0.00  0.00    +0.000 A 
ATOM     23  C   UNL     1       0.317   9.983  18.661  0.00  0.00    +0.000 A 
ATOM     24  C   UNL     1       0.993   9.448  19.764  0.00  0.00    +0.000 A 
ATOM     25  C   UNL     1       0.809  10.031  21.027  0.00  0.00    +0.000 A 
BRANCH  20  26
ATOM     26  O   UNL     1      -0.319  11.740  22.383  0.00  0.00    +0.000 OA
BRANCH  26  27
ATOM     27  C   UNL     1      -1.410  11.171  23.115  0.00  0.00    +0.000 C 
BRANCH  27  29
ATOM     28  O   UNL     1      -3.655  12.021  23.460  0.00  0.00    +0.000 OA
ATOM     29  C   UNL     1      -2.458  12.246  23.352  0.00  0.00    +0.000 C 
BRANCH  29  30
ATOM     30  O   UNL     1      -1.942  13.499  23.410  0.00  0.00    +0.000 OA
ATOM     31  H   UNL     1      -1.123  13.490  23.953  0.00  0.00    +0.000 HD
ENDBRANCH  29  30
ENDBRANCH  27  29
ENDBRANCH  26  27
ENDBRANCH  20  26
ENDBRANCH  19  24
ENDBRANCH  18  19
ENDBRANCH   1  18
TORSDOF 9
ENDMDL
