MODEL 1
REMARK VINA RESULT:      -8.3      0.000      0.000
REMARK  Name = 
REMARK  5 active torsions:
REMARK  status: ('A' for Active; 'I' for Inactive)
REMARK    1  A    between atoms: C_2  and  C_11
REMARK    2  A    between atoms: N_3  and  C_4
REMARK    3  A    between atoms: N_20  and  C_21
REMARK    4  A    between atoms: C_27  and  C_28
REMARK    5  A    between atoms: N_30  and  C_31
REMARK                            x       y       z     vdW  Elec       q    Type
REMARK                         _______ _______ _______ _____ _____    ______ ____
ROOT
ATOM      1  C   UNL     1       0.266  13.514  21.070  0.00  0.00    +0.000 C 
ATOM      2  C   UNL     1      -0.107  14.132  19.679  0.00  0.00    +0.000 C 
ATOM      3  C   UNL     1       1.097  14.390  18.809  0.00  0.00    +0.000 C 
ATOM      4  C   UNL     1       1.547  13.190  18.413  0.00  0.00    +0.000 C 
ATOM      5  C   UNL     1       0.646  12.201  19.099  0.00  0.00    +0.000 C 
ATOM      6  O   UNL     1      -0.592  12.924  19.031  0.00  0.00    +0.000 OA
ATOM      7  C   UNL     1       0.999  12.245  20.597  0.00  0.00    +0.000 C 
ATOM      8  C   UNL     1       0.998  10.782  20.995  0.00  0.00    +0.000 C 
ATOM      9  O   UNL     1       1.043  10.400  22.153  0.00  0.00    +0.000 OA
ATOM     10  N   UNL     1       1.201  10.050  19.793  0.00  0.00    +0.000 N 
ATOM     11  C   UNL     1       0.579  10.759  18.687  0.00  0.00    +0.000 C 
ENDROOT
BRANCH  10  12
ATOM     12  C   UNL     1       1.711   8.727  19.609  0.00  0.00    +0.000 A 
ATOM     13  C   UNL     1       2.304   8.302  18.425  0.00  0.00    +0.000 A 
ATOM     14  C   UNL     1       2.715   6.969  18.288  0.00  0.00    +0.000 A 
ATOM     15  C   UNL     1       2.521   6.084  19.337  0.00  0.00    +0.000 A 
ATOM     16  N   UNL     1       1.946   6.440  20.494  0.00  0.00    +0.000 NA
ATOM     17  C   UNL     1       1.566   7.739  20.599  0.00  0.00    +0.000 A 
ENDBRANCH  10  12
BRANCH   1  19
ATOM     18  O   UNL     1      -1.054  14.472  22.769  0.00  0.00    +0.000 OA
ATOM     19  C   UNL     1      -1.017  13.610  21.883  0.00  0.00    +0.000 C 
ATOM     20  N   UNL     1      -1.988  12.648  21.758  0.00  0.00    +0.000 N 
ATOM     21  H   UNL     1      -1.810  11.809  21.212  0.00  0.00    +0.000 HD
BRANCH  20  22
ATOM     22  C   UNL     1      -3.209  12.663  22.511  0.00  0.00    +0.000 A 
ATOM     23  C   UNL     1      -3.276  12.384  23.886  0.00  0.00    +0.000 A 
ATOM     24  C   UNL     1      -4.493  12.395  24.580  0.00  0.00    +0.000 A 
ATOM     25  C   UNL     1      -5.672  12.700  23.912  0.00  0.00    +0.000 A 
ATOM     26  C   UNL     1      -5.629  12.992  22.549  0.00  0.00    +0.000 A 
ATOM     27  C   UNL     1      -4.409  12.973  21.863  0.00  0.00    +0.000 A 
ATOM     28  F   UNL     1      -4.409  13.223  20.545  0.00  0.00    +0.000 F 
ENDBRANCH  20  22
ENDBRANCH   1  19
BRANCH  11  29
ATOM     29  C   UNL     1      -0.864  10.216  18.593  0.00  0.00    +0.000 C 
ATOM     30  O   UNL     1      -1.488   9.799  19.567  0.00  0.00    +0.000 OA
ATOM     31  N   UNL     1      -1.388  10.158  17.317  0.00  0.00    +0.000 N 
ATOM     32  H   UNL     1      -1.060  10.855  16.658  0.00  0.00    +0.000 HD
BRANCH  31  33
ATOM     33  C   UNL     1      -2.715   9.591  17.116  0.00  0.00    +0.000 C 
ATOM     34  C   UNL     1      -3.769  10.320  17.960  0.00  0.00    +0.000 C 
ATOM     35  C   UNL     1      -4.089  11.709  17.418  0.00  0.00    +0.000 C 
ATOM     36  C   UNL     1      -4.468  11.661  15.940  0.00  0.00    +0.000 C 
ATOM     37  C   UNL     1      -3.394  10.977  15.100  0.00  0.00    +0.000 C 
ATOM     38  C   UNL     1      -3.073   9.582  15.630  0.00  0.00    +0.000 C 
ENDBRANCH  31  33
ENDBRANCH  11  29
TORSDOF 5
ENDMDL
MODEL 2
REMARK VINA RESULT:      -7.9      0.799      1.094
REMARK  Name = 
REMARK  5 active torsions:
REMARK  status: ('A' for Active; 'I' for Inactive)
REMARK    1  A    between atoms: C_2  and  C_11
REMARK    2  A    between atoms: N_3  and  C_4
REMARK    3  A    between atoms: N_20  and  C_21
REMARK    4  A    between atoms: C_27  and  C_28
REMARK    5  A    between atoms: N_30  and  C_31
REMARK                            x       y       z     vdW  Elec       q    Type
REMARK                         _______ _______ _______ _____ _____    ______ ____
ROOT
ATOM      1  C   UNL     1       0.513  13.561  20.882  0.00  0.00    +0.000 C 
ATOM      2  C   UNL     1       0.120  14.148  19.484  0.00  0.00    +0.000 C 
ATOM      3  C   UNL     1       1.304  14.336  18.571  0.00  0.00    +0.000 C 
ATOM      4  C   UNL     1       1.700  13.109  18.200  0.00  0.00    +0.000 C 
ATOM      5  C   UNL     1       0.787  12.175  18.944  0.00  0.00    +0.000 C 
ATOM      6  O   UNL     1      -0.427  12.939  18.889  0.00  0.00    +0.000 OA
ATOM      7  C   UNL     1       1.187  12.253  20.429  0.00  0.00    +0.000 C 
ATOM      8  C   UNL     1       1.147  10.804  20.874  0.00  0.00    +0.000 C 
ATOM      9  O   UNL     1       1.214  10.457  22.041  0.00  0.00    +0.000 OA
ATOM     10  N   UNL     1       1.288  10.028  19.690  0.00  0.00    +0.000 N 
ATOM     11  C   UNL     1       0.658  10.724  18.581  0.00  0.00    +0.000 C 
ENDROOT
BRANCH  10  12
ATOM     12  C   UNL     1       1.746   8.682  19.535  0.00  0.00    +0.000 A 
ATOM     13  C   UNL     1       2.294   8.202  18.350  0.00  0.00    +0.000 A 
ATOM     14  C   UNL     1       2.654   6.851  18.244  0.00  0.00    +0.000 A 
ATOM     15  C   UNL     1       2.453   6.005  19.323  0.00  0.00    +0.000 A 
ATOM     16  N   UNL     1       1.920   6.415  20.483  0.00  0.00    +0.000 NA
ATOM     17  C   UNL     1       1.590   7.730  20.558  0.00  0.00    +0.000 A 
ENDBRANCH  10  12
BRANCH   1  19
ATOM     18  O   UNL     1      -0.654  14.473  22.712  0.00  0.00    +0.000 OA
ATOM     19  C   UNL     1      -0.740  13.728  21.729  0.00  0.00    +0.000 C 
ATOM     20  N   UNL     1      -1.834  12.928  21.511  0.00  0.00    +0.000 N 
ATOM     21  H   UNL     1      -1.774  12.145  20.864  0.00  0.00    +0.000 HD
BRANCH  20  22
ATOM     22  C   UNL     1      -3.037  13.014  22.288  0.00  0.00    +0.000 A 
ATOM     23  C   UNL     1      -4.110  13.860  21.963  0.00  0.00    +0.000 A 
ATOM     24  C   UNL     1      -5.262  13.925  22.758  0.00  0.00    +0.000 A 
ATOM     25  C   UNL     1      -5.370  13.130  23.892  0.00  0.00    +0.000 A 
ATOM     26  C   UNL     1      -4.322  12.273  24.228  0.00  0.00    +0.000 A 
ATOM     27  C   UNL     1      -3.173  12.220  23.430  0.00  0.00    +0.000 A 
ATOM     28  F   UNL     1      -2.169  11.411  23.802  0.00  0.00    +0.000 F 
ENDBRANCH  20  22
ENDBRANCH   1  19
BRANCH  11  29
ATOM     29  C   UNL     1      -0.806  10.230  18.548  0.00  0.00    +0.000 C 
ATOM     30  O   UNL     1      -1.429   9.909  19.558  0.00  0.00    +0.000 OA
ATOM     31  N   UNL     1      -1.353  10.099  17.286  0.00  0.00    +0.000 N 
ATOM     32  H   UNL     1      -1.011  10.734  16.574  0.00  0.00    +0.000 HD
BRANCH  31  33
ATOM     33  C   UNL     1      -2.703   9.570  17.147  0.00  0.00    +0.000 C 
ATOM     34  C   UNL     1      -3.694  10.313  18.052  0.00  0.00    +0.000 C 
ATOM     35  C   UNL     1      -4.004  11.718  17.545  0.00  0.00    +0.000 C 
ATOM     36  C   UNL     1      -4.458  11.701  16.089  0.00  0.00    +0.000 C 
ATOM     37  C   UNL     1      -3.447  11.001  15.186  0.00  0.00    +0.000 C 
ATOM     38  C   UNL     1      -3.136   9.592  15.681  0.00  0.00    +0.000 C 
ENDBRANCH  31  33
ENDBRANCH  11  29
TORSDOF 5
ENDMDL
MODEL 3
REMARK VINA RESULT:      -7.9      2.892      6.993
REMARK  Name = 
REMARK  5 active torsions:
REMARK  status: ('A' for Active; 'I' for Inactive)
REMARK    1  A    between atoms: C_2  and  C_11
REMARK    2  A    between atoms: N_3  and  C_4
REMARK    3  A    between atoms: N_20  and  C_21
REMARK    4  A    between atoms: C_27  and  C_28
REMARK    5  A    between atoms: N_30  and  C_31
REMARK                            x       y       z     vdW  Elec       q    Type
REMARK                         _______ _______ _______ _____ _____    ______ ____
ROOT
ATOM      1  C   UNL     1       1.154   9.661  21.277  0.00  0.00    +0.000 C 
ATOM      2  C   UNL     1      -0.163   9.052  21.868  0.00  0.00    +0.000 C 
ATOM      3  C   UNL     1      -0.587   9.710  23.156  0.00  0.00    +0.000 C 
ATOM      4  C   UNL     1      -1.027  10.935  22.833  0.00  0.00    +0.000 C 
ATOM      5  C   UNL     1      -0.807  11.039  21.350  0.00  0.00    +0.000 C 
ATOM      6  O   UNL     1      -1.115   9.689  20.972  0.00  0.00    +0.000 OA
ATOM      7  C   UNL     1       0.715  11.129  21.132  0.00  0.00    +0.000 C 
ATOM      8  C   UNL     1       0.848  12.200  20.067  0.00  0.00    +0.000 C 
ATOM      9  O   UNL     1       1.889  12.433  19.474  0.00  0.00    +0.000 OA
ATOM     10  N   UNL     1      -0.345  12.970  20.135  0.00  0.00    +0.000 N 
ATOM     11  C   UNL     1      -1.452  12.109  20.517  0.00  0.00    +0.000 C 
ENDROOT
BRANCH  10  12
ATOM     12  C   UNL     1      -0.587  14.312  19.705  0.00  0.00    +0.000 A 
ATOM     13  C   UNL     1       0.078  14.894  18.632  0.00  0.00    +0.000 A 
ATOM     14  C   UNL     1      -0.155  16.239  18.310  0.00  0.00    +0.000 A 
ATOM     15  C   UNL     1      -1.046  16.978  19.074  0.00  0.00    +0.000 A 
ATOM     16  N   UNL     1      -1.704  16.468  20.124  0.00  0.00    +0.000 NA
ATOM     17  C   UNL     1      -1.464  15.161  20.404  0.00  0.00    +0.000 A 
ENDBRANCH  10  12
BRANCH   1  19
ATOM     18  O   UNL     1       1.231   8.983  19.023  0.00  0.00    +0.000 OA
ATOM     19  C   UNL     1       1.560   8.689  20.178  0.00  0.00    +0.000 C 
ATOM     20  N   UNL     1       2.084   7.461  20.500  0.00  0.00    +0.000 N 
ATOM     21  H   UNL     1       2.096   7.148  21.467  0.00  0.00    +0.000 HD
BRANCH  20  22
ATOM     22  C   UNL     1       2.464   6.488  19.517  0.00  0.00    +0.000 A 
ATOM     23  C   UNL     1       3.407   6.735  18.505  0.00  0.00    +0.000 A 
ATOM     24  C   UNL     1       3.738   5.760  17.555  0.00  0.00    +0.000 A 
ATOM     25  C   UNL     1       3.141   4.508  17.606  0.00  0.00    +0.000 A 
ATOM     26  C   UNL     1       2.211   4.235  18.609  0.00  0.00    +0.000 A 
ATOM     27  C   UNL     1       1.882   5.217  19.550  0.00  0.00    +0.000 A 
ATOM     28  F   UNL     1       0.956   4.933  20.479  0.00  0.00    +0.000 F 
ENDBRANCH  20  22
ENDBRANCH   1  19
BRANCH  11  29
ATOM     29  C   UNL     1      -2.052  11.578  19.197  0.00  0.00    +0.000 C 
ATOM     30  O   UNL     1      -1.372  11.329  18.203  0.00  0.00    +0.000 OA
ATOM     31  N   UNL     1      -3.429  11.470  19.179  0.00  0.00    +0.000 N 
ATOM     32  H   UNL     1      -3.882  11.270  20.063  0.00  0.00    +0.000 HD
BRANCH  31  33
ATOM     33  C   UNL     1      -4.095  11.049  17.953  0.00  0.00    +0.000 C 
ATOM     34  C   UNL     1      -5.085   9.907  18.217  0.00  0.00    +0.000 C 
ATOM     35  C   UNL     1      -6.341  10.383  18.942  0.00  0.00    +0.000 C 
ATOM     36  C   UNL     1      -6.995  11.557  18.220  0.00  0.00    +0.000 C 
ATOM     37  C   UNL     1      -6.017  12.707  18.003  0.00  0.00    +0.000 C 
ATOM     38  C   UNL     1      -4.762  12.243  17.270  0.00  0.00    +0.000 C 
ENDBRANCH  31  33
ENDBRANCH  11  29
TORSDOF 5
ENDMDL
MODEL 4
REMARK VINA RESULT:      -7.7      1.040      1.175
REMARK  Name = 
REMARK  5 active torsions:
REMARK  status: ('A' for Active; 'I' for Inactive)
REMARK    1  A    between atoms: C_2  and  C_11
REMARK    2  A    between atoms: N_3  and  C_4
REMARK    3  A    between atoms: N_20  and  C_21
REMARK    4  A    between atoms: C_27  and  C_28
REMARK    5  A    between atoms: N_30  and  C_31
REMARK                            x       y       z     vdW  Elec       q    Type
REMARK                         _______ _______ _______ _____ _____    ______ ____
ROOT
ATOM      1  C   UNL     1       0.186  13.320  21.169  0.00  0.00    +0.000 C 
ATOM      2  C   UNL     1      -0.229  14.004  19.822  0.00  0.00    +0.000 C 
ATOM      3  C   UNL     1       0.953  14.373  18.963  0.00  0.00    +0.000 C 
ATOM      4  C   UNL     1       1.455  13.224  18.489  0.00  0.00    +0.000 C 
ATOM      5  C   UNL     1       0.610  12.152  19.118  0.00  0.00    +0.000 C 
ATOM      6  O   UNL     1      -0.662  12.817  19.103  0.00  0.00    +0.000 OA
ATOM      7  C   UNL     1       0.975  12.120  20.614  0.00  0.00    +0.000 C 
ATOM      8  C   UNL     1       1.047  10.636  20.919  0.00  0.00    +0.000 C 
ATOM      9  O   UNL     1       1.121  10.186  22.050  0.00  0.00    +0.000 OA
ATOM     10  N   UNL     1       1.274   9.991  19.672  0.00  0.00    +0.000 N 
ATOM     11  C   UNL     1       0.608  10.736  18.617  0.00  0.00    +0.000 C 
ENDROOT
BRANCH  10  12
ATOM     12  C   UNL     1       1.844   8.708  19.403  0.00  0.00    +0.000 A 
ATOM     13  C   UNL     1       2.432   8.382  18.185  0.00  0.00    +0.000 A 
ATOM     14  C   UNL     1       2.906   7.081  17.964  0.00  0.00    +0.000 A 
ATOM     15  C   UNL     1       2.778   6.129  18.963  0.00  0.00    +0.000 A 
ATOM     16  N   UNL     1       2.211   6.389  20.150  0.00  0.00    +0.000 NA
ATOM     17  C   UNL     1       1.770   7.660  20.337  0.00  0.00    +0.000 A 
ENDBRANCH  10  12
BRANCH   1  19
ATOM     18  O   UNL     1      -1.091  12.599  23.012  0.00  0.00    +0.000 OA
ATOM     19  C   UNL     1      -1.092  13.303  21.995  0.00  0.00    +0.000 C 
ATOM     20  N   UNL     1      -2.237  13.883  21.509  0.00  0.00    +0.000 N 
ATOM     21  H   UNL     1      -2.271  14.225  20.551  0.00  0.00    +0.000 HD
BRANCH  20  22
ATOM     22  C   UNL     1      -3.482  13.882  22.222  0.00  0.00    +0.000 A 
ATOM     23  C   UNL     1      -4.480  12.911  22.040  0.00  0.00    +0.000 A 
ATOM     24  C   UNL     1      -5.688  12.956  22.748  0.00  0.00    +0.000 A 
ATOM     25  C   UNL     1      -5.918  13.972  23.667  0.00  0.00    +0.000 A 
ATOM     26  C   UNL     1      -4.937  14.941  23.874  0.00  0.00    +0.000 A 
ATOM     27  C   UNL     1      -3.735  14.890  23.158  0.00  0.00    +0.000 A 
ATOM     28  F   UNL     1      -2.828  15.858  23.355  0.00  0.00    +0.000 F 
ENDBRANCH  20  22
ENDBRANCH   1  19
BRANCH  11  29
ATOM     29  C   UNL     1      -0.809  10.131  18.499  0.00  0.00    +0.000 C 
ATOM     30  O   UNL     1      -1.389   9.593  19.441  0.00  0.00    +0.000 OA
ATOM     31  N   UNL     1      -1.359  10.166  17.233  0.00  0.00    +0.000 N 
ATOM     32  H   UNL     1      -1.081  10.938  16.637  0.00  0.00    +0.000 HD
BRANCH  31  33
ATOM     33  C   UNL     1      -2.660   9.554  17.004  0.00  0.00    +0.000 C 
ATOM     34  C   UNL     1      -3.711  10.085  17.988  0.00  0.00    +0.000 C 
ATOM     35  C   UNL     1      -4.134  11.517  17.669  0.00  0.00    +0.000 C 
ATOM     36  C   UNL     1      -4.580  11.660  16.217  0.00  0.00    +0.000 C 
ATOM     37  C   UNL     1      -3.512  11.172  15.243  0.00  0.00    +0.000 C 
ATOM     38  C   UNL     1      -3.089   9.738  15.548  0.00  0.00    +0.000 C 
ENDBRANCH  31  33
ENDBRANCH  11  29
TORSDOF 5
ENDMDL
MODEL 5
REMARK VINA RESULT:      -7.2      1.123      1.293
REMARK  Name = 
REMARK  5 active torsions:
REMARK  status: ('A' for Active; 'I' for Inactive)
REMARK    1  A    between atoms: C_2  and  C_11
REMARK    2  A    between atoms: N_3  and  C_4
REMARK    3  A    between atoms: N_20  and  C_21
REMARK    4  A    between atoms: C_27  and  C_28
REMARK    5  A    between atoms: N_30  and  C_31
REMARK                            x       y       z     vdW  Elec       q    Type
REMARK                         _______ _______ _______ _____ _____    ______ ____
ROOT
ATOM      1  C   UNL     1       0.848  13.491  20.587  0.00  0.00    +0.000 C 
ATOM      2  C   UNL     1       0.501  13.985  19.141  0.00  0.00    +0.000 C 
ATOM      3  C   UNL     1       1.701  14.022  18.229  0.00  0.00    +0.000 C 
ATOM      4  C   UNL     1       2.021  12.747  17.965  0.00  0.00    +0.000 C 
ATOM      5  C   UNL     1       1.046  11.935  18.772  0.00  0.00    +0.000 C 
ATOM      6  O   UNL     1      -0.117  12.767  18.641  0.00  0.00    +0.000 OA
ATOM      7  C   UNL     1       1.441  12.110  20.251  0.00  0.00    +0.000 C 
ATOM      8  C   UNL     1       1.307  10.708  20.811  0.00  0.00    +0.000 C 
ATOM      9  O   UNL     1       1.344  10.455  22.004  0.00  0.00    +0.000 OA
ATOM     10  N   UNL     1       1.405   9.830  19.697  0.00  0.00    +0.000 N 
ATOM     11  C   UNL     1       0.827  10.470  18.528  0.00  0.00    +0.000 C 
ENDROOT
BRANCH  10  12
ATOM     12  C   UNL     1       1.778   8.450  19.657  0.00  0.00    +0.000 A 
ATOM     13  C   UNL     1       2.390   7.864  18.554  0.00  0.00    +0.000 A 
ATOM     14  C   UNL     1       2.661   6.488  18.555  0.00  0.00    +0.000 A 
ATOM     15  C   UNL     1       2.309   5.724  19.656  0.00  0.00    +0.000 A 
ATOM     16  N   UNL     1       1.708   6.238  20.739  0.00  0.00    +0.000 NA
ATOM     17  C   UNL     1       1.467   7.574  20.712  0.00  0.00    +0.000 A 
ENDBRANCH  10  12
BRANCH   1  19
ATOM     18  O   UNL     1      -1.142  14.691  20.967  0.00  0.00    +0.000 OA
ATOM     19  C   UNL     1      -0.397  13.805  21.403  0.00  0.00    +0.000 C 
ATOM     20  N   UNL     1      -0.558  13.266  22.655  0.00  0.00    +0.000 N 
ATOM     21  H   UNL     1       0.202  12.748  23.091  0.00  0.00    +0.000 HD
BRANCH  20  22
ATOM     22  C   UNL     1      -1.693  13.539  23.488  0.00  0.00    +0.000 A 
ATOM     23  C   UNL     1      -1.769  14.636  24.362  0.00  0.00    +0.000 A 
ATOM     24  C   UNL     1      -2.892  14.857  25.169  0.00  0.00    +0.000 A 
ATOM     25  C   UNL     1      -3.974  13.988  25.109  0.00  0.00    +0.000 A 
ATOM     26  C   UNL     1      -3.927  12.899  24.240  0.00  0.00    +0.000 A 
ATOM     27  C   UNL     1      -2.798  12.683  23.441  0.00  0.00    +0.000 A 
ATOM     28  F   UNL     1      -2.772  11.605  22.643  0.00  0.00    +0.000 F 
ENDBRANCH  20  22
ENDBRANCH   1  19
BRANCH  11  29
ATOM     29  C   UNL     1      -0.665  10.068  18.518  0.00  0.00    +0.000 C 
ATOM     30  O   UNL     1      -1.294   9.800  19.540  0.00  0.00    +0.000 OA
ATOM     31  N   UNL     1      -1.234   9.954  17.265  0.00  0.00    +0.000 N 
ATOM     32  H   UNL     1      -0.862  10.557  16.539  0.00  0.00    +0.000 HD
BRANCH  31  33
ATOM     33  C   UNL     1      -2.616   9.508  17.148  0.00  0.00    +0.000 C 
ATOM     34  C   UNL     1      -3.555  10.356  18.016  0.00  0.00    +0.000 C 
ATOM     35  C   UNL     1      -3.774  11.753  17.442  0.00  0.00    +0.000 C 
ATOM     36  C   UNL     1      -4.230  11.696  15.987  0.00  0.00    +0.000 C 
ATOM     37  C   UNL     1      -3.268  10.890  15.120  0.00  0.00    +0.000 C 
ATOM     38  C   UNL     1      -3.049   9.488  15.682  0.00  0.00    +0.000 C 
ENDBRANCH  31  33
ENDBRANCH  11  29
TORSDOF 5
ENDMDL
MODEL 6
REMARK VINA RESULT:      -7.0      2.861      6.971
REMARK  Name = 
REMARK  5 active torsions:
REMARK  status: ('A' for Active; 'I' for Inactive)
REMARK    1  A    between atoms: C_2  and  C_11
REMARK    2  A    between atoms: N_3  and  C_4
REMARK    3  A    between atoms: N_20  and  C_21
REMARK    4  A    between atoms: C_27  and  C_28
REMARK    5  A    between atoms: N_30  and  C_31
REMARK                            x       y       z     vdW  Elec       q    Type
REMARK                         _______ _______ _______ _____ _____    ______ ____
ROOT
ATOM      1  C   UNL     1       1.086   9.755  21.213  0.00  0.00    +0.000 C 
ATOM      2  C   UNL     1      -0.281   9.264  21.798  0.00  0.00    +0.000 C 
ATOM      3  C   UNL     1      -0.658   9.965  23.079  0.00  0.00    +0.000 C 
ATOM      4  C   UNL     1      -0.990  11.221  22.744  0.00  0.00    +0.000 C 
ATOM      5  C   UNL     1      -0.752  11.294  21.262  0.00  0.00    +0.000 C 
ATOM      6  O   UNL     1      -1.170   9.972  20.891  0.00  0.00    +0.000 OA
ATOM      7  C   UNL     1       0.774  11.254  21.055  0.00  0.00    +0.000 C 
ATOM      8  C   UNL     1       1.004  12.301  19.983  0.00  0.00    +0.000 C 
ATOM      9  O   UNL     1       2.065  12.441  19.397  0.00  0.00    +0.000 OA
ATOM     10  N   UNL     1      -0.121  13.170  20.037  0.00  0.00    +0.000 N 
ATOM     11  C   UNL     1      -1.299  12.409  20.417  0.00  0.00    +0.000 C 
ENDROOT
BRANCH  10  12
ATOM     12  C   UNL     1      -0.245  14.525  19.596  0.00  0.00    +0.000 A 
ATOM     13  C   UNL     1       0.666  15.127  18.734  0.00  0.00    +0.000 A 
ATOM     14  C   UNL     1       0.522  16.481  18.401  0.00  0.00    +0.000 A 
ATOM     15  C   UNL     1      -0.526  17.209  18.941  0.00  0.00    +0.000 A 
ATOM     16  N   UNL     1      -1.425  16.680  19.783  0.00  0.00    +0.000 NA
ATOM     17  C   UNL     1      -1.265  15.364  20.079  0.00  0.00    +0.000 A 
ENDBRANCH  10  12
BRANCH   1  19
ATOM     18  O   UNL     1       0.911   8.936  19.012  0.00  0.00    +0.000 OA
ATOM     19  C   UNL     1       1.416   8.744  20.124  0.00  0.00    +0.000 C 
ATOM     20  N   UNL     1       2.075   7.581  20.437  0.00  0.00    +0.000 N 
ATOM     21  H   UNL     1       2.244   7.334  21.409  0.00  0.00    +0.000 HD
BRANCH  20  22
ATOM     22  C   UNL     1       2.396   6.575  19.466  0.00  0.00    +0.000 A 
ATOM     23  C   UNL     1       1.925   5.253  19.534  0.00  0.00    +0.000 A 
ATOM     24  C   UNL     1       2.275   4.298  18.571  0.00  0.00    +0.000 A 
ATOM     25  C   UNL     1       3.097   4.650  17.508  0.00  0.00    +0.000 A 
ATOM     26  C   UNL     1       3.567   5.959  17.413  0.00  0.00    +0.000 A 
ATOM     27  C   UNL     1       3.216   6.906  18.383  0.00  0.00    +0.000 A 
ATOM     28  F   UNL     1       3.715   8.146  18.280  0.00  0.00    +0.000 F 
ENDBRANCH  20  22
ENDBRANCH   1  19
BRANCH  11  29
ATOM     29  C   UNL     1      -1.933  11.920  19.095  0.00  0.00    +0.000 C 
ATOM     30  O   UNL     1      -1.269  11.607  18.109  0.00  0.00    +0.000 OA
ATOM     31  N   UNL     1      -3.313  11.930  19.068  0.00  0.00    +0.000 N 
ATOM     32  H   UNL     1      -3.787  11.775  19.950  0.00  0.00    +0.000 HD
BRANCH  31  33
ATOM     33  C   UNL     1      -4.004  11.557  17.840  0.00  0.00    +0.000 C 
ATOM     34  C   UNL     1      -4.461  10.093  17.876  0.00  0.00    +0.000 C 
ATOM     35  C   UNL     1      -5.645   9.876  18.815  0.00  0.00    +0.000 C 
ATOM     36  C   UNL     1      -6.793  10.830  18.498  0.00  0.00    +0.000 C 
ATOM     37  C   UNL     1      -6.342  12.287  18.509  0.00  0.00    +0.000 C 
ATOM     38  C   UNL     1      -5.163  12.515  17.567  0.00  0.00    +0.000 C 
ENDBRANCH  31  33
ENDBRANCH  11  29
TORSDOF 5
ENDMDL
MODEL 7
REMARK VINA RESULT:      -6.9      3.485      7.574
REMARK  Name = 
REMARK  5 active torsions:
REMARK  status: ('A' for Active; 'I' for Inactive)
REMARK    1  A    between atoms: C_2  and  C_11
REMARK    2  A    between atoms: N_3  and  C_4
REMARK    3  A    between atoms: N_20  and  C_21
REMARK    4  A    between atoms: C_27  and  C_28
REMARK    5  A    between atoms: N_30  and  C_31
REMARK                            x       y       z     vdW  Elec       q    Type
REMARK                         _______ _______ _______ _____ _____    ______ ____
ROOT
ATOM      1  C   UNL     1      -6.273  12.765  20.651  0.00  0.00    +0.000 C 
ATOM      2  C   UNL     1      -6.843  14.004  19.881  0.00  0.00    +0.000 C 
ATOM      3  C   UNL     1      -7.751  14.856  20.730  0.00  0.00    +0.000 C 
ATOM      4  C   UNL     1      -6.967  15.482  21.619  0.00  0.00    +0.000 C 
ATOM      5  C   UNL     1      -5.586  14.956  21.345  0.00  0.00    +0.000 C 
ATOM      6  O   UNL     1      -5.657  14.844  19.915  0.00  0.00    +0.000 OA
ATOM      7  C   UNL     1      -5.569  13.488  21.814  0.00  0.00    +0.000 C 
ATOM      8  C   UNL     1      -4.230  13.366  22.515  0.00  0.00    +0.000 C 
ATOM      9  O   UNL     1      -3.748  12.300  22.861  0.00  0.00    +0.000 OA
ATOM     10  N   UNL     1      -3.859  14.688  22.882  0.00  0.00    +0.000 N 
ATOM     11  C   UNL     1      -4.352  15.622  21.883  0.00  0.00    +0.000 C 
ENDROOT
BRANCH  10  12
ATOM     12  C   UNL     1      -2.962  15.130  23.904  0.00  0.00    +0.000 A 
ATOM     13  C   UNL     1      -3.274  16.154  24.793  0.00  0.00    +0.000 A 
ATOM     14  C   UNL     1      -2.319  16.586  25.724  0.00  0.00    +0.000 A 
ATOM     15  C   UNL     1      -1.068  15.990  25.745  0.00  0.00    +0.000 A 
ATOM     16  N   UNL     1      -0.714  15.007  24.904  0.00  0.00    +0.000 NA
ATOM     17  C   UNL     1      -1.663  14.604  24.020  0.00  0.00    +0.000 A 
ENDBRANCH  10  12
BRANCH   1  19
ATOM     18  O   UNL     1      -6.155  10.790  19.374  0.00  0.00    +0.000 OA
ATOM     19  C   UNL     1      -5.646  11.900  19.566  0.00  0.00    +0.000 C 
ATOM     20  N   UNL     1      -4.458  12.270  18.987  0.00  0.00    +0.000 N 
ATOM     21  H   UNL     1      -3.932  13.059  19.357  0.00  0.00    +0.000 HD
BRANCH  20  22
ATOM     22  C   UNL     1      -3.800  11.491  17.978  0.00  0.00    +0.000 A 
ATOM     23  C   UNL     1      -2.718  10.635  18.242  0.00  0.00    +0.000 A 
ATOM     24  C   UNL     1      -2.095   9.903  17.223  0.00  0.00    +0.000 A 
ATOM     25  C   UNL     1      -2.552  10.003  15.915  0.00  0.00    +0.000 A 
ATOM     26  C   UNL     1      -3.632  10.838  15.631  0.00  0.00    +0.000 A 
ATOM     27  C   UNL     1      -4.245  11.569  16.655  0.00  0.00    +0.000 A 
ATOM     28  F   UNL     1      -5.258  12.390  16.340  0.00  0.00    +0.000 F 
ENDBRANCH  20  22
ENDBRANCH   1  19
BRANCH  11  29
ATOM     29  C   UNL     1      -3.225  15.759  20.836  0.00  0.00    +0.000 C 
ATOM     30  O   UNL     1      -3.082  16.756  20.131  0.00  0.00    +0.000 OA
ATOM     31  N   UNL     1      -2.423  14.644  20.687  0.00  0.00    +0.000 N 
ATOM     32  H   UNL     1      -2.289  14.067  21.509  0.00  0.00    +0.000 HD
BRANCH  31  33
ATOM     33  C   UNL     1      -1.378  14.649  19.672  0.00  0.00    +0.000 C 
ATOM     34  C   UNL     1      -0.232  15.597  20.050  0.00  0.00    +0.000 C 
ATOM     35  C   UNL     1       0.628  15.047  21.183  0.00  0.00    +0.000 C 
ATOM     36  C   UNL     1       1.126  13.637  20.875  0.00  0.00    +0.000 C 
ATOM     37  C   UNL     1      -0.022  12.688  20.546  0.00  0.00    +0.000 C 
ATOM     38  C   UNL     1      -0.884  13.226  19.408  0.00  0.00    +0.000 C 
ENDBRANCH  31  33
ENDBRANCH  11  29
TORSDOF 5
ENDMDL
MODEL 8
REMARK VINA RESULT:      -6.9      1.280      1.731
REMARK  Name = 
REMARK  5 active torsions:
REMARK  status: ('A' for Active; 'I' for Inactive)
REMARK    1  A    between atoms: C_2  and  C_11
REMARK    2  A    between atoms: N_3  and  C_4
REMARK    3  A    between atoms: N_20  and  C_21
REMARK    4  A    between atoms: C_27  and  C_28
REMARK    5  A    between atoms: N_30  and  C_31
REMARK                            x       y       z     vdW  Elec       q    Type
REMARK                         _______ _______ _______ _____ _____    ______ ____
ROOT
ATOM      1  C   UNL     1      -0.474  14.384  21.533  0.00  0.00    +0.000 C 
ATOM      2  C   UNL     1      -0.745  15.048  20.140  0.00  0.00    +0.000 C 
ATOM      3  C   UNL     1       0.518  15.335  19.370  0.00  0.00    +0.000 C 
ATOM      4  C   UNL     1       0.999  14.149  18.968  0.00  0.00    +0.000 C 
ATOM      5  C   UNL     1       0.053  13.137  19.552  0.00  0.00    +0.000 C 
ATOM      6  O   UNL     1      -1.179  13.863  19.418  0.00  0.00    +0.000 OA
ATOM      7  C   UNL     1       0.295  13.131  21.074  0.00  0.00    +0.000 C 
ATOM      8  C   UNL     1       0.268  11.656  21.421  0.00  0.00    +0.000 C 
ATOM      9  O   UNL     1       0.229  11.235  22.565  0.00  0.00    +0.000 OA
ATOM     10  N   UNL     1       0.561  10.965  20.213  0.00  0.00    +0.000 N 
ATOM     11  C   UNL     1       0.020  11.710  19.089  0.00  0.00    +0.000 C 
ENDROOT
BRANCH  10  12
ATOM     12  C   UNL     1       1.085   9.648  20.023  0.00  0.00    +0.000 A 
ATOM     13  C   UNL     1       1.100   8.687  21.028  0.00  0.00    +0.000 A 
ATOM     14  C   UNL     1       1.697   7.440  20.795  0.00  0.00    +0.000 A 
ATOM     15  C   UNL     1       2.273   7.180  19.561  0.00  0.00    +0.000 A 
ATOM     16  N   UNL     1       2.295   8.075  18.563  0.00  0.00    +0.000 NA
ATOM     17  C   UNL     1       1.701   9.269  18.817  0.00  0.00    +0.000 A 
ENDBRANCH  10  12
BRANCH   1  19
ATOM     18  O   UNL     1      -1.873  15.177  23.253  0.00  0.00    +0.000 OA
ATOM     19  C   UNL     1      -1.813  14.452  22.253  0.00  0.00    +0.000 C 
ATOM     20  N   UNL     1      -2.826  13.591  21.913  0.00  0.00    +0.000 N 
ATOM     21  H   UNL     1      -2.653  12.829  21.261  0.00  0.00    +0.000 HD
BRANCH  20  22
ATOM     22  C   UNL     1      -4.103  13.584  22.565  0.00  0.00    +0.000 A 
ATOM     23  C   UNL     1      -5.156  14.447  22.219  0.00  0.00    +0.000 A 
ATOM     24  C   UNL     1      -6.383  14.417  22.894  0.00  0.00    +0.000 A 
ATOM     25  C   UNL     1      -6.589  13.509  23.925  0.00  0.00    +0.000 A 
ATOM     26  C   UNL     1      -5.562  12.634  24.278  0.00  0.00    +0.000 A 
ATOM     27  C   UNL     1      -4.337  12.675  23.602  0.00  0.00    +0.000 A 
ATOM     28  F   UNL     1      -3.359  11.844  23.992  0.00  0.00    +0.000 F 
ENDBRANCH  20  22
ENDBRANCH   1  19
BRANCH  11  29
ATOM     29  C   UNL     1      -1.412  11.170  18.872  0.00  0.00    +0.000 C 
ATOM     30  O   UNL     1      -2.314  11.313  19.695  0.00  0.00    +0.000 OA
ATOM     31  N   UNL     1      -1.596  10.443  17.713  0.00  0.00    +0.000 N 
ATOM     32  H   UNL     1      -1.020  10.698  16.919  0.00  0.00    +0.000 HD
BRANCH  31  33
ATOM     33  C   UNL     1      -2.892   9.829  17.454  0.00  0.00    +0.000 C 
ATOM     34  C   UNL     1      -4.013  10.877  17.427  0.00  0.00    +0.000 C 
ATOM     35  C   UNL     1      -3.973  11.738  16.168  0.00  0.00    +0.000 C 
ATOM     36  C   UNL     1      -3.954  10.882  14.904  0.00  0.00    +0.000 C 
ATOM     37  C   UNL     1      -2.809   9.874  14.917  0.00  0.00    +0.000 C 
ATOM     38  C   UNL     1      -2.845   9.003  16.169  0.00  0.00    +0.000 C 
ENDBRANCH  31  33
ENDBRANCH  11  29
TORSDOF 5
ENDMDL
MODEL 9
REMARK VINA RESULT:      -6.8      7.066     10.908
REMARK  Name = 
REMARK  5 active torsions:
REMARK  status: ('A' for Active; 'I' for Inactive)
REMARK    1  A    between atoms: C_2  and  C_11
REMARK    2  A    between atoms: N_3  and  C_4
REMARK    3  A    between atoms: N_20  and  C_21
REMARK    4  A    between atoms: C_27  and  C_28
REMARK    5  A    between atoms: N_30  and  C_31
REMARK                            x       y       z     vdW  Elec       q    Type
REMARK                         _______ _______ _______ _____ _____    ______ ____
ROOT
ATOM      1  C   UNL     1       7.383  16.574  19.279  0.00  0.00    +0.000 C 
ATOM      2  C   UNL     1       7.398  17.262  20.687  0.00  0.00    +0.000 C 
ATOM      3  C   UNL     1       6.558  18.513  20.738  0.00  0.00    +0.000 C 
ATOM      4  C   UNL     1       5.278  18.117  20.691  0.00  0.00    +0.000 C 
ATOM      5  C   UNL     1       5.348  16.622  20.548  0.00  0.00    +0.000 C 
ATOM      6  O   UNL     1       6.490  16.360  21.377  0.00  0.00    +0.000 OA
ATOM      7  C   UNL     1       5.870  16.337  19.127  0.00  0.00    +0.000 C 
ATOM      8  C   UNL     1       4.995  15.189  18.662  0.00  0.00    +0.000 C 
ATOM      9  O   UNL     1       5.217  14.539  17.654  0.00  0.00    +0.000 OA
ATOM     10  N   UNL     1       3.818  15.247  19.459  0.00  0.00    +0.000 N 
ATOM     11  C   UNL     1       4.158  15.738  20.784  0.00  0.00    +0.000 C 
ENDROOT
BRANCH  10  12
ATOM     12  C   UNL     1       2.513  14.727  19.192  0.00  0.00    +0.000 A 
ATOM     13  C   UNL     1       2.288  13.410  18.806  0.00  0.00    +0.000 A 
ATOM     14  C   UNL     1       0.989  12.987  18.490  0.00  0.00    +0.000 A 
ATOM     15  C   UNL     1      -0.059  13.891  18.559  0.00  0.00    +0.000 A 
ATOM     16  N   UNL     1       0.106  15.173  18.916  0.00  0.00    +0.000 NA
ATOM     17  C   UNL     1       1.373  15.550  19.225  0.00  0.00    +0.000 A 
ENDBRANCH  10  12
BRANCH   1  19
ATOM     18  O   UNL     1       9.472  15.815  20.058  0.00  0.00    +0.000 OA
ATOM     19  C   UNL     1       8.494  15.536  19.354  0.00  0.00    +0.000 C 
ATOM     20  N   UNL     1       8.482  14.450  18.515  0.00  0.00    +0.000 N 
ATOM     21  H   UNL     1       7.798  14.390  17.765  0.00  0.00    +0.000 HD
BRANCH  20  22
ATOM     22  C   UNL     1       9.509  13.448  18.514  0.00  0.00    +0.000 A 
ATOM     23  C   UNL     1       9.471  12.298  19.320  0.00  0.00    +0.000 A 
ATOM     24  C   UNL     1      10.504  11.351  19.298  0.00  0.00    +0.000 A 
ATOM     25  C   UNL     1      11.594  11.530  18.457  0.00  0.00    +0.000 A 
ATOM     26  C   UNL     1      11.648  12.658  17.639  0.00  0.00    +0.000 A 
ATOM     27  C   UNL     1      10.614  13.601  17.671  0.00  0.00    +0.000 A 
ATOM     28  F   UNL     1      10.716  14.693  16.899  0.00  0.00    +0.000 F 
ENDBRANCH  20  22
ENDBRANCH   1  19
BRANCH  11  29
ATOM     29  C   UNL     1       4.484  14.486  21.629  0.00  0.00    +0.000 C 
ATOM     30  O   UNL     1       3.629  13.681  21.994  0.00  0.00    +0.000 OA
ATOM     31  N   UNL     1       5.804  14.368  22.017  0.00  0.00    +0.000 N 
ATOM     32  H   UNL     1       6.499  14.757  21.392  0.00  0.00    +0.000 HD
BRANCH  31  33
ATOM     33  C   UNL     1       6.196  13.261  22.879  0.00  0.00    +0.000 C 
ATOM     34  C   UNL     1       7.603  12.753  22.535  0.00  0.00    +0.000 C 
ATOM     35  C   UNL     1       8.696  13.718  22.983  0.00  0.00    +0.000 C 
ATOM     36  C   UNL     1       8.558  14.074  24.460  0.00  0.00    +0.000 C 
ATOM     37  C   UNL     1       7.173  14.622  24.787  0.00  0.00    +0.000 C 
ATOM     38  C   UNL     1       6.073  13.658  24.350  0.00  0.00    +0.000 C 
ENDBRANCH  31  33
ENDBRANCH  11  29
TORSDOF 5
ENDMDL
