MODEL 1
REMARK VINA RESULT:      -6.8      0.000      0.000
REMARK  Name = 
REMARK  6 active torsions:
REMARK  status: ('A' for Active; 'I' for Inactive)
REMARK    1  A    between atoms: C_2  and  C_3
REMARK    2  A    between atoms: C_3  and  N_4
REMARK    3  A    between atoms: N_4  and  C_5
REMARK    4  A    between atoms: C_5  and  C_6
REMARK    5  A    between atoms: N_13  and  C_14
REMARK    6  A    between atoms: C_14  and  C_15
REMARK                            x       y       z     vdW  Elec       q    Type
REMARK                         _______ _______ _______ _____ _____    ______ ____
ROOT
ATOM      1  C   UNL     1       3.583   1.640  18.331  0.00  0.00    +0.000 C 
ENDROOT
BRANCH   1   3
ATOM      2  O   UNL     1       4.710   2.043  20.437  0.00  0.00    +0.000 OA
ATOM      3  C   UNL     1       4.556   2.373  19.264  0.00  0.00    +0.000 C 
ATOM      4  N   UNL     1       5.176   3.460  18.693  0.00  0.00    +0.000 N 
ATOM      5  H   UNL     1       4.931   3.750  17.755  0.00  0.00    +0.000 HD
BRANCH   4   6
ATOM      6  C   UNL     1       6.032   4.351  19.441  0.00  0.00    +0.000 C 
BRANCH   6   7
ATOM      7  C   UNL     1       6.395   5.502  18.577  0.00  0.00    +0.000 A 
ATOM      8  C   UNL     1       5.761   6.136  17.529  0.00  0.00    +0.000 A 
ATOM      9  C   UNL     1       6.609   7.197  17.130  0.00  0.00    +0.000 A 
ATOM     10  C   UNL     1       7.709   7.139  17.953  0.00  0.00    +0.000 A 
ATOM     11  O   UNL     1       7.591   6.113  18.835  0.00  0.00    +0.000 OA
ENDBRANCH   6   7
ENDBRANCH   4   6
ENDBRANCH   1   3
BRANCH   1  12
ATOM     12  N   UNL     1       2.241   1.548  18.933  0.00  0.00    +0.000 NA
ATOM     13  H   UNL     1       2.338   1.702  19.937  0.00  0.00    +0.000 HD
BRANCH  12  14
ATOM     14  C   UNL     1       1.339   2.563  18.385  0.00  0.00    +0.000 C 
BRANCH  14  15
ATOM     15  C   UNL     1       1.686   3.948  18.878  0.00  0.00    +0.000 A 
ATOM     16  C   UNL     1       2.046   4.928  17.933  0.00  0.00    +0.000 A 
ATOM     17  C   UNL     1       2.323   6.238  18.326  0.00  0.00    +0.000 A 
ATOM     18  C   UNL     1       2.256   6.588  19.671  0.00  0.00    +0.000 A 
ATOM     19  C   UNL     1       1.929   5.624  20.623  0.00  0.00    +0.000 A 
ATOM     20  C   UNL     1       1.650   4.309  20.233  0.00  0.00    +0.000 A 
ATOM     21 CL   UNL     1       1.253   3.179  21.479  0.00  0.00    +0.000 Cl
ENDBRANCH  14  15
ENDBRANCH  12  14
ENDBRANCH   1  12
TORSDOF 6
ENDMDL
MODEL 2
REMARK VINA RESULT:      -6.6      3.582      4.913
REMARK  Name = 
REMARK  6 active torsions:
REMARK  status: ('A' for Active; 'I' for Inactive)
REMARK    1  A    between atoms: C_2  and  C_3
REMARK    2  A    between atoms: C_3  and  N_4
REMARK    3  A    between atoms: N_4  and  C_5
REMARK    4  A    between atoms: C_5  and  C_6
REMARK    5  A    between atoms: N_13  and  C_14
REMARK    6  A    between atoms: C_14  and  C_15
REMARK                            x       y       z     vdW  Elec       q    Type
REMARK                         _______ _______ _______ _____ _____    ______ ____
ROOT
ATOM      1  C   UNL     1       7.632   4.998  17.895  0.00  0.00    +0.000 C 
ENDROOT
BRANCH   1   3
ATOM      2  O   UNL     1       7.017   6.874  16.493  0.00  0.00    +0.000 OA
ATOM      3  C   UNL     1       6.973   5.661  16.679  0.00  0.00    +0.000 C 
ATOM      4  N   UNL     1       6.279   4.793  15.868  0.00  0.00    +0.000 N 
ATOM      5  H   UNL     1       6.186   3.819  16.128  0.00  0.00    +0.000 HD
BRANCH   4   6
ATOM      6  C   UNL     1       5.489   5.239  14.744  0.00  0.00    +0.000 C 
BRANCH   6   7
ATOM      7  C   UNL     1       5.741   4.334  13.595  0.00  0.00    +0.000 A 
ATOM      8  C   UNL     1       4.934   3.495  12.855  0.00  0.00    +0.000 A 
ATOM      9  C   UNL     1       5.761   2.913  11.865  0.00  0.00    +0.000 A 
ATOM     10  C   UNL     1       7.021   3.427  12.066  0.00  0.00    +0.000 A 
ATOM     11  O   UNL     1       7.021   4.289  13.116  0.00  0.00    +0.000 OA
ENDBRANCH   6   7
ENDBRANCH   4   6
ENDBRANCH   1   3
BRANCH   1  12
ATOM     12  N   UNL     1       6.657   4.189  18.650  0.00  0.00    +0.000 NA
ATOM     13  H   UNL     1       7.162   3.711  19.398  0.00  0.00    +0.000 HD
BRANCH  12  14
ATOM     14  C   UNL     1       5.615   5.027  19.245  0.00  0.00    +0.000 C 
BRANCH  14  15
ATOM     15  C   UNL     1       4.230   4.541  18.888  0.00  0.00    +0.000 A 
ATOM     16  C   UNL     1       3.842   3.252  19.302  0.00  0.00    +0.000 A 
ATOM     17  C   UNL     1       2.556   2.773  19.047  0.00  0.00    +0.000 A 
ATOM     18  C   UNL     1       1.641   3.568  18.365  0.00  0.00    +0.000 A 
ATOM     19  C   UNL     1       2.017   4.835  17.922  0.00  0.00    +0.000 A 
ATOM     20  C   UNL     1       3.306   5.320  18.176  0.00  0.00    +0.000 A 
ATOM     21 CL   UNL     1       3.688   6.901  17.592  0.00  0.00    +0.000 Cl
ENDBRANCH  14  15
ENDBRANCH  12  14
ENDBRANCH   1  12
TORSDOF 6
ENDMDL
MODEL 3
REMARK VINA RESULT:      -6.6      3.906      4.753
REMARK  Name = 
REMARK  6 active torsions:
REMARK  status: ('A' for Active; 'I' for Inactive)
REMARK    1  A    between atoms: C_2  and  C_3
REMARK    2  A    between atoms: C_3  and  N_4
REMARK    3  A    between atoms: N_4  and  C_5
REMARK    4  A    between atoms: C_5  and  C_6
REMARK    5  A    between atoms: N_13  and  C_14
REMARK    6  A    between atoms: C_14  and  C_15
REMARK                            x       y       z     vdW  Elec       q    Type
REMARK                         _______ _______ _______ _____ _____    ______ ____
ROOT
ATOM      1  C   UNL     1       5.693   4.394  17.692  0.00  0.00    +0.000 C 
ENDROOT
BRANCH   1   3
ATOM      2  O   UNL     1       7.917   4.505  16.738  0.00  0.00    +0.000 OA
ATOM      3  C   UNL     1       6.708   4.416  16.542  0.00  0.00    +0.000 C 
ATOM      4  N   UNL     1       6.141   4.399  15.289  0.00  0.00    +0.000 N 
ATOM      5  H   UNL     1       5.135   4.434  15.185  0.00  0.00    +0.000 HD
BRANCH   4   6
ATOM      6  C   UNL     1       6.920   4.538  14.079  0.00  0.00    +0.000 C 
BRANCH   6   7
ATOM      7  C   UNL     1       6.251   3.780  12.992  0.00  0.00    +0.000 A 
ATOM      8  C   UNL     1       6.704   2.897  12.036  0.00  0.00    +0.000 A 
ATOM      9  C   UNL     1       5.569   2.485  11.298  0.00  0.00    +0.000 A 
ATOM     10  C   UNL     1       4.495   3.149  11.845  0.00  0.00    +0.000 A 
ATOM     11  O   UNL     1       4.898   3.940  12.873  0.00  0.00    +0.000 OA
ENDBRANCH   6   7
ENDBRANCH   4   6
ENDBRANCH   1   3
BRANCH   1  12
ATOM     12  N   UNL     1       4.471   5.136  17.336  0.00  0.00    +0.000 NA
ATOM     13  H   UNL     1       4.623   5.568  16.423  0.00  0.00    +0.000 HD
BRANCH  12  14
ATOM     14  C   UNL     1       3.311   4.247  17.249  0.00  0.00    +0.000 C 
BRANCH  14  15
ATOM     15  C   UNL     1       2.717   3.964  18.609  0.00  0.00    +0.000 A 
ATOM     16  C   UNL     1       2.079   5.015  19.296  0.00  0.00    +0.000 A 
ATOM     17  C   UNL     1       1.465   4.799  20.530  0.00  0.00    +0.000 A 
ATOM     18  C   UNL     1       1.486   3.531  21.104  0.00  0.00    +0.000 A 
ATOM     19  C   UNL     1       2.138   2.486  20.451  0.00  0.00    +0.000 A 
ATOM     20  C   UNL     1       2.756   2.699  19.213  0.00  0.00    +0.000 A 
ATOM     21 CL   UNL     1       3.540   1.348  18.474  0.00  0.00    +0.000 Cl
ENDBRANCH  14  15
ENDBRANCH  12  14
ENDBRANCH   1  12
TORSDOF 6
ENDMDL
MODEL 4
REMARK VINA RESULT:      -6.6      3.253      4.564
REMARK  Name = 
REMARK  6 active torsions:
REMARK  status: ('A' for Active; 'I' for Inactive)
REMARK    1  A    between atoms: C_2  and  C_3
REMARK    2  A    between atoms: C_3  and  N_4
REMARK    3  A    between atoms: N_4  and  C_5
REMARK    4  A    between atoms: C_5  and  C_6
REMARK    5  A    between atoms: N_13  and  C_14
REMARK    6  A    between atoms: C_14  and  C_15
REMARK                            x       y       z     vdW  Elec       q    Type
REMARK                         _______ _______ _______ _____ _____    ______ ____
ROOT
ATOM      1  C   UNL     1       7.441   4.977  18.163  0.00  0.00    +0.000 C 
ENDROOT
BRANCH   1   3
ATOM      2  O   UNL     1       7.561   6.719  16.485  0.00  0.00    +0.000 OA
ATOM      3  C   UNL     1       7.072   5.648  16.834  0.00  0.00    +0.000 C 
ATOM      4  N   UNL     1       6.105   4.985  16.115  0.00  0.00    +0.000 N 
ATOM      5  H   UNL     1       5.659   4.162  16.502  0.00  0.00    +0.000 HD
BRANCH   4   6
ATOM      6  C   UNL     1       5.533   5.518  14.900  0.00  0.00    +0.000 C 
BRANCH   6   7
ATOM      7  C   UNL     1       5.877   4.612  13.775  0.00  0.00    +0.000 A 
ATOM      8  C   UNL     1       5.201   3.592  13.140  0.00  0.00    +0.000 A 
ATOM      9  C   UNL     1       6.053   3.124  12.112  0.00  0.00    +0.000 A 
ATOM     10  C   UNL     1       7.198   3.883  12.188  0.00  0.00    +0.000 A 
ATOM     11  O   UNL     1       7.103   4.788  13.196  0.00  0.00    +0.000 OA
ENDBRANCH   6   7
ENDBRANCH   4   6
ENDBRANCH   1   3
BRANCH   1  12
ATOM     12  N   UNL     1       6.374   4.062  18.609  0.00  0.00    +0.000 NA
ATOM     13  H   UNL     1       6.795   3.374  19.235  0.00  0.00    +0.000 HD
BRANCH  12  14
ATOM     14  C   UNL     1       5.325   4.780  19.335  0.00  0.00    +0.000 C 
BRANCH  14  15
ATOM     15  C   UNL     1       3.953   4.222  19.037  0.00  0.00    +0.000 A 
ATOM     16  C   UNL     1       3.094   4.959  18.199  0.00  0.00    +0.000 A 
ATOM     17  C   UNL     1       1.838   4.466  17.846  0.00  0.00    +0.000 A 
ATOM     18  C   UNL     1       1.413   3.233  18.332  0.00  0.00    +0.000 A 
ATOM     19  C   UNL     1       2.238   2.503  19.187  0.00  0.00    +0.000 A 
ATOM     20  C   UNL     1       3.500   2.995  19.544  0.00  0.00    +0.000 A 
ATOM     21 CL   UNL     1       4.458   2.025  20.606  0.00  0.00    +0.000 Cl
ENDBRANCH  14  15
ENDBRANCH  12  14
ENDBRANCH   1  12
TORSDOF 6
ENDMDL
MODEL 5
REMARK VINA RESULT:      -6.5      2.615      3.020
REMARK  Name = 
REMARK  6 active torsions:
REMARK  status: ('A' for Active; 'I' for Inactive)
REMARK    1  A    between atoms: C_2  and  C_3
REMARK    2  A    between atoms: C_3  and  N_4
REMARK    3  A    between atoms: N_4  and  C_5
REMARK    4  A    between atoms: C_5  and  C_6
REMARK    5  A    between atoms: N_13  and  C_14
REMARK    6  A    between atoms: C_14  and  C_15
REMARK                            x       y       z     vdW  Elec       q    Type
REMARK                         _______ _______ _______ _____ _____    ______ ____
ROOT
ATOM      1  C   UNL     1       4.535   3.541  18.700  0.00  0.00    +0.000 C 
ENDROOT
BRANCH   1   3
ATOM      2  O   UNL     1       6.788   4.419  18.839  0.00  0.00    +0.000 OA
ATOM      3  C   UNL     1       5.795   4.216  18.145  0.00  0.00    +0.000 C 
ATOM      4  N   UNL     1       5.685   4.631  16.838  0.00  0.00    +0.000 N 
ATOM      5  H   UNL     1       4.806   4.534  16.346  0.00  0.00    +0.000 HD
BRANCH   4   6
ATOM      6  C   UNL     1       6.716   5.395  16.173  0.00  0.00    +0.000 C 
BRANCH   6   7
ATOM      7  C   UNL     1       6.835   4.917  14.773  0.00  0.00    +0.000 A 
ATOM      8  C   UNL     1       6.172   3.955  14.041  0.00  0.00    +0.000 A 
ATOM      9  C   UNL     1       6.726   3.989  12.739  0.00  0.00    +0.000 A 
ATOM     10  C   UNL     1       7.696   4.964  12.760  0.00  0.00    +0.000 A 
ATOM     11  O   UNL     1       7.772   5.533  13.990  0.00  0.00    +0.000 OA
ENDBRANCH   6   7
ENDBRANCH   4   6
ENDBRANCH   1   3
BRANCH   1  12
ATOM     12  N   UNL     1       3.561   3.273  17.627  0.00  0.00    +0.000 NA
ATOM     13  H   UNL     1       3.591   2.273  17.421  0.00  0.00    +0.000 HD
BRANCH  12  14
ATOM     14  C   UNL     1       2.201   3.629  18.039  0.00  0.00    +0.000 C 
BRANCH  14  15
ATOM     15  C   UNL     1       2.162   4.952  18.766  0.00  0.00    +0.000 A 
ATOM     16  C   UNL     1       2.517   6.118  18.060  0.00  0.00    +0.000 A 
ATOM     17  C   UNL     1       2.446   7.374  18.665  0.00  0.00    +0.000 A 
ATOM     18  C   UNL     1       2.031   7.485  19.988  0.00  0.00    +0.000 A 
ATOM     19  C   UNL     1       1.704   6.338  20.711  0.00  0.00    +0.000 A 
ATOM     20  C   UNL     1       1.773   5.077  20.108  0.00  0.00    +0.000 A 
ATOM     21 CL   UNL     1       1.349   3.710  21.076  0.00  0.00    +0.000 Cl
ENDBRANCH  14  15
ENDBRANCH  12  14
ENDBRANCH   1  12
TORSDOF 6
ENDMDL
MODEL 6
REMARK VINA RESULT:      -6.5      2.471      3.533
REMARK  Name = 
REMARK  6 active torsions:
REMARK  status: ('A' for Active; 'I' for Inactive)
REMARK    1  A    between atoms: C_2  and  C_3
REMARK    2  A    between atoms: C_3  and  N_4
REMARK    3  A    between atoms: N_4  and  C_5
REMARK    4  A    between atoms: C_5  and  C_6
REMARK    5  A    between atoms: N_13  and  C_14
REMARK    6  A    between atoms: C_14  and  C_15
REMARK                            x       y       z     vdW  Elec       q    Type
REMARK                         _______ _______ _______ _____ _____    ______ ____
ROOT
ATOM      1  C   UNL     1       4.235   5.765  19.433  0.00  0.00    +0.000 C 
ENDROOT
BRANCH   1   3
ATOM      2  O   UNL     1       6.203   4.352  19.401  0.00  0.00    +0.000 OA
ATOM      3  C   UNL     1       5.539   5.218  18.837  0.00  0.00    +0.000 C 
ATOM      4  N   UNL     1       5.927   5.830  17.668  0.00  0.00    +0.000 N 
ATOM      5  H   UNL     1       5.398   6.613  17.304  0.00  0.00    +0.000 HD
BRANCH   4   6
ATOM      6  C   UNL     1       7.186   5.544  17.019  0.00  0.00    +0.000 C 
BRANCH   6   7
ATOM      7  C   UNL     1       6.910   4.957  15.684  0.00  0.00    +0.000 A 
ATOM      8  C   UNL     1       6.024   4.001  15.234  0.00  0.00    +0.000 A 
ATOM      9  C   UNL     1       6.223   3.894  13.836  0.00  0.00    +0.000 A 
ATOM     10  C   UNL     1       7.222   4.786  13.523  0.00  0.00    +0.000 A 
ATOM     11  O   UNL     1       7.648   5.435  14.637  0.00  0.00    +0.000 OA
ENDBRANCH   6   7
ENDBRANCH   4   6
ENDBRANCH   1   3
BRANCH   1  12
ATOM     12  N   UNL     1       3.476   6.533  18.430  0.00  0.00    +0.000 NA
ATOM     13  H   UNL     1       4.000   6.507  17.554  0.00  0.00    +0.000 HD
BRANCH  12  14
ATOM     14  C   UNL     1       2.151   5.953  18.204  0.00  0.00    +0.000 C 
BRANCH  14  15
ATOM     15  C   UNL     1       2.175   4.446  18.294  0.00  0.00    +0.000 A 
ATOM     16  C   UNL     1       2.725   3.716  17.223  0.00  0.00    +0.000 A 
ATOM     17  C   UNL     1       2.823   2.325  17.276  0.00  0.00    +0.000 A 
ATOM     18  C   UNL     1       2.362   1.638  18.395  0.00  0.00    +0.000 A 
ATOM     19  C   UNL     1       1.788   2.342  19.453  0.00  0.00    +0.000 A 
ATOM     20  C   UNL     1       1.688   3.738  19.403  0.00  0.00    +0.000 A 
ATOM     21 CL   UNL     1       0.964   4.530  20.758  0.00  0.00    +0.000 Cl
ENDBRANCH  14  15
ENDBRANCH  12  14
ENDBRANCH   1  12
TORSDOF 6
ENDMDL
MODEL 7
REMARK VINA RESULT:      -6.5      3.489      4.459
REMARK  Name = 
REMARK  6 active torsions:
REMARK  status: ('A' for Active; 'I' for Inactive)
REMARK    1  A    between atoms: C_2  and  C_3
REMARK    2  A    between atoms: C_3  and  N_4
REMARK    3  A    between atoms: N_4  and  C_5
REMARK    4  A    between atoms: C_5  and  C_6
REMARK    5  A    between atoms: N_13  and  C_14
REMARK    6  A    between atoms: C_14  and  C_15
REMARK                            x       y       z     vdW  Elec       q    Type
REMARK                         _______ _______ _______ _____ _____    ______ ____
ROOT
ATOM      1  C   UNL     1       5.570   4.363  18.212  0.00  0.00    +0.000 C 
ENDROOT
BRANCH   1   3
ATOM      2  O   UNL     1       7.846   4.605  17.417  0.00  0.00    +0.000 OA
ATOM      3  C   UNL     1       6.655   4.498  17.135  0.00  0.00    +0.000 C 
ATOM      4  N   UNL     1       6.171   4.559  15.849  0.00  0.00    +0.000 N 
ATOM      5  H   UNL     1       5.173   4.573  15.682  0.00  0.00    +0.000 HD
BRANCH   4   6
ATOM      6  C   UNL     1       7.020   4.808  14.707  0.00  0.00    +0.000 C 
BRANCH   6   7
ATOM      7  C   UNL     1       6.426   4.148  13.518  0.00  0.00    +0.000 A 
ATOM      8  C   UNL     1       6.960   3.621  12.361  0.00  0.00    +0.000 A 
ATOM      9  C   UNL     1       5.874   3.101  11.618  0.00  0.00    +0.000 A 
ATOM     10  C   UNL     1       4.745   3.349  12.363  0.00  0.00    +0.000 A 
ATOM     11  O   UNL     1       5.068   3.986  13.519  0.00  0.00    +0.000 OA
ENDBRANCH   6   7
ENDBRANCH   4   6
ENDBRANCH   1   3
BRANCH   1  12
ATOM     12  N   UNL     1       4.798   5.611  18.344  0.00  0.00    +0.000 NA
ATOM     13  H   UNL     1       5.344   6.363  17.921  0.00  0.00    +0.000 HD
BRANCH  12  14
ATOM     14  C   UNL     1       3.510   5.518  17.653  0.00  0.00    +0.000 C 
BRANCH  14  15
ATOM     15  C   UNL     1       2.541   4.624  18.388  0.00  0.00    +0.000 A 
ATOM     16  C   UNL     1       2.273   3.345  17.862  0.00  0.00    +0.000 A 
ATOM     17  C   UNL     1       1.429   2.456  18.528  0.00  0.00    +0.000 A 
ATOM     18  C   UNL     1       0.828   2.833  19.726  0.00  0.00    +0.000 A 
ATOM     19  C   UNL     1       1.059   4.105  20.247  0.00  0.00    +0.000 A 
ATOM     20  C   UNL     1       1.906   5.000  19.581  0.00  0.00    +0.000 A 
ATOM     21 CL   UNL     1       2.137   6.556  20.298  0.00  0.00    +0.000 Cl
ENDBRANCH  14  15
ENDBRANCH  12  14
ENDBRANCH   1  12
TORSDOF 6
ENDMDL
MODEL 8
REMARK VINA RESULT:      -6.5      3.264      3.893
REMARK  Name = 
REMARK  6 active torsions:
REMARK  status: ('A' for Active; 'I' for Inactive)
REMARK    1  A    between atoms: C_2  and  C_3
REMARK    2  A    between atoms: C_3  and  N_4
REMARK    3  A    between atoms: N_4  and  C_5
REMARK    4  A    between atoms: C_5  and  C_6
REMARK    5  A    between atoms: N_13  and  C_14
REMARK    6  A    between atoms: C_14  and  C_15
REMARK                            x       y       z     vdW  Elec       q    Type
REMARK                         _______ _______ _______ _____ _____    ______ ____
ROOT
ATOM      1  C   UNL     1       4.047   3.628  17.607  0.00  0.00    +0.000 C 
ENDROOT
BRANCH   1   3
ATOM      2  O   UNL     1       4.556   5.824  16.718  0.00  0.00    +0.000 OA
ATOM      3  C   UNL     1       4.936   4.673  16.919  0.00  0.00    +0.000 C 
ATOM      4  N   UNL     1       6.150   4.188  16.491  0.00  0.00    +0.000 N 
ATOM      5  H   UNL     1       6.367   3.204  16.588  0.00  0.00    +0.000 HD
BRANCH   4   6
ATOM      6  C   UNL     1       7.076   4.980  15.715  0.00  0.00    +0.000 C 
BRANCH   6   7
ATOM      7  C   UNL     1       6.937   4.609  14.284  0.00  0.00    +0.000 A 
ATOM      8  C   UNL     1       6.172   3.676  13.618  0.00  0.00    +0.000 A 
ATOM      9  C   UNL     1       6.465   3.825  12.241  0.00  0.00    +0.000 A 
ATOM     10  C   UNL     1       7.396   4.834  12.155  0.00  0.00    +0.000 A 
ATOM     11  O   UNL     1       7.692   5.316  13.389  0.00  0.00    +0.000 OA
ENDBRANCH   6   7
ENDBRANCH   4   6
ENDBRANCH   1   3
BRANCH   1  12
ATOM     12  N   UNL     1       2.767   3.470  16.894  0.00  0.00    +0.000 NA
ATOM     13  H   UNL     1       2.552   2.472  16.857  0.00  0.00    +0.000 HD
BRANCH  12  14
ATOM     14  C   UNL     1       1.679   4.161  17.589  0.00  0.00    +0.000 C 
BRANCH  14  15
ATOM     15  C   UNL     1       1.726   3.925  19.080  0.00  0.00    +0.000 A 
ATOM     16  C   UNL     1       1.326   2.669  19.575  0.00  0.00    +0.000 A 
ATOM     17  C   UNL     1       1.400   2.377  20.938  0.00  0.00    +0.000 A 
ATOM     18  C   UNL     1       1.864   3.338  21.830  0.00  0.00    +0.000 A 
ATOM     19  C   UNL     1       2.237   4.597  21.361  0.00  0.00    +0.000 A 
ATOM     20  C   UNL     1       2.164   4.894  19.995  0.00  0.00    +0.000 A 
ATOM     21 CL   UNL     1       2.647   6.478  19.500  0.00  0.00    +0.000 Cl
ENDBRANCH  14  15
ENDBRANCH  12  14
ENDBRANCH   1  12
TORSDOF 6
ENDMDL
MODEL 9
REMARK VINA RESULT:      -6.4      2.482      3.370
REMARK  Name = 
REMARK  6 active torsions:
REMARK  status: ('A' for Active; 'I' for Inactive)
REMARK    1  A    between atoms: C_2  and  C_3
REMARK    2  A    between atoms: C_3  and  N_4
REMARK    3  A    between atoms: N_4  and  C_5
REMARK    4  A    between atoms: C_5  and  C_6
REMARK    5  A    between atoms: N_13  and  C_14
REMARK    6  A    between atoms: C_14  and  C_15
REMARK                            x       y       z     vdW  Elec       q    Type
REMARK                         _______ _______ _______ _____ _____    ______ ____
ROOT
ATOM      1  C   UNL     1       4.317   5.526  19.451  0.00  0.00    +0.000 C 
ENDROOT
BRANCH   1   3
ATOM      2  O   UNL     1       5.644   3.533  19.085  0.00  0.00    +0.000 OA
ATOM      3  C   UNL     1       5.419   4.700  18.775  0.00  0.00    +0.000 C 
ATOM      4  N   UNL     1       6.166   5.399  17.856  0.00  0.00    +0.000 N 
ATOM      5  H   UNL     1       6.006   6.389  17.717  0.00  0.00    +0.000 HD
BRANCH   4   6
ATOM      6  C   UNL     1       7.326   4.835  17.203  0.00  0.00    +0.000 C 
BRANCH   6   7
ATOM      7  C   UNL     1       6.989   4.565  15.783  0.00  0.00    +0.000 A 
ATOM      8  C   UNL     1       6.080   3.731  15.167  0.00  0.00    +0.000 A 
ATOM      9  C   UNL     1       6.218   3.947  13.775  0.00  0.00    +0.000 A 
ATOM     10  C   UNL     1       7.206   4.892  13.628  0.00  0.00    +0.000 A 
ATOM     11  O   UNL     1       7.683   5.273  14.841  0.00  0.00    +0.000 OA
ENDBRANCH   6   7
ENDBRANCH   4   6
ENDBRANCH   1   3
BRANCH   1  12
ATOM     12  N   UNL     1       3.777   6.542  18.530  0.00  0.00    +0.000 NA
ATOM     13  H   UNL     1       4.400   6.595  17.723  0.00  0.00    +0.000 HD
BRANCH  12  14
ATOM     14  C   UNL     1       2.435   6.183  18.066  0.00  0.00    +0.000 C 
BRANCH  14  15
ATOM     15  C   UNL     1       1.950   4.897  18.693  0.00  0.00    +0.000 A 
ATOM     16  C   UNL     1       2.007   3.714  17.931  0.00  0.00    +0.000 A 
ATOM     17  C   UNL     1       1.623   2.488  18.478  0.00  0.00    +0.000 A 
ATOM     18  C   UNL     1       1.166   2.425  19.790  0.00  0.00    +0.000 A 
ATOM     19  C   UNL     1       1.075   3.591  20.549  0.00  0.00    +0.000 A 
ATOM     20  C   UNL     1       1.459   4.823  20.005  0.00  0.00    +0.000 A 
ATOM     21 CL   UNL     1       1.315   6.217  21.016  0.00  0.00    +0.000 Cl
ENDBRANCH  14  15
ENDBRANCH  12  14
ENDBRANCH   1  12
TORSDOF 6
ENDMDL
