MODEL 1
REMARK VINA RESULT:      -8.5      0.000      0.000
REMARK  Name = 
REMARK  6 active torsions:
REMARK  status: ('A' for Active; 'I' for Inactive)
REMARK    1  A    between atoms: C_1  and  N_2
REMARK    2  A    between atoms: N_2  and  C_3
REMARK    3  A    between atoms: N_2  and  C_16
REMARK    4  A    between atoms: C_3  and  C_4
REMARK    5  A    between atoms: C_5  and  C_6
REMARK    6  A    between atoms: C_16  and  C_17
REMARK                            x       y       z     vdW  Elec       q    Type
REMARK                         _______ _______ _______ _____ _____    ______ ____
ROOT
ATOM      1  C   UNL     1       2.199   4.015  20.050  0.00  0.00    +0.000 C 
ENDROOT
BRANCH   1   3
ATOM      2  C   UNL     1       2.040   1.808  19.064  0.00  0.00    +0.000 C 
ATOM      3  N   UNL     1       2.636   3.145  18.945  0.00  0.00    +0.000 NA
BRANCH   3   4
ATOM      4  C   UNL     1       4.114   3.064  18.975  0.00  0.00    +0.000 C 
BRANCH   4   5
ATOM      5  C   UNL     1       4.823   4.238  18.330  0.00  0.00    +0.000 A 
ATOM      6  C   UNL     1       4.300   4.813  17.149  0.00  0.00    +0.000 A 
ATOM      7  C   UNL     1       4.936   5.893  16.530  0.00  0.00    +0.000 A 
ATOM      8  C   UNL     1       6.083   6.384  17.115  0.00  0.00    +0.000 A 
ATOM      9  C   UNL     1       6.614   5.832  18.270  0.00  0.00    +0.000 A 
ATOM     10  C   UNL     1       6.007   4.753  18.888  0.00  0.00    +0.000 A 
ATOM     11  C   UNL     1       7.871   6.534  18.608  0.00  0.00    +0.000 C 
ATOM     12  C   UNL     1       7.712   7.758  17.706  0.00  0.00    +0.000 C 
ATOM     13  O   UNL     1       6.812   7.435  16.620  0.00  0.00    +0.000 OA
ENDBRANCH   4   5
ENDBRANCH   3   4
ENDBRANCH   1   3
BRANCH   1  14
ATOM     14  C   UNL     1       1.792   5.390  19.609  0.00  0.00    +0.000 C 
ATOM     15  C   UNL     1       2.267   6.519  20.162  0.00  0.00    +0.000 C 
BRANCH  15  16
ATOM     16  C   UNL     1       1.866   7.842  19.672  0.00  0.00    +0.000 A 
ATOM     17  C   UNL     1       2.215   8.181  18.357  0.00  0.00    +0.000 A 
ATOM     18  C   UNL     1       1.888   9.433  17.843  0.00  0.00    +0.000 A 
ATOM     19  C   UNL     1       1.214  10.356  18.640  0.00  0.00    +0.000 A 
ATOM     20  C   UNL     1       0.848  10.041  19.958  0.00  0.00    +0.000 A 
ATOM     21  C   UNL     1       0.168  10.979  20.752  0.00  0.00    +0.000 A 
ATOM     22  C   UNL     1      -0.210  10.677  22.060  0.00  0.00    +0.000 A 
ATOM     23  C   UNL     1       0.086   9.430  22.594  0.00  0.00    +0.000 A 
ATOM     24  C   UNL     1       0.766   8.487  21.820  0.00  0.00    +0.000 A 
ATOM     25  C   UNL     1       1.166   8.768  20.492  0.00  0.00    +0.000 A 
ENDBRANCH  15  16
ENDBRANCH   1  14
TORSDOF 5
ENDMDL
MODEL 2
REMARK VINA RESULT:      -8.4      1.038      1.725
REMARK  Name = 
REMARK  6 active torsions:
REMARK  status: ('A' for Active; 'I' for Inactive)
REMARK    1  A    between atoms: C_1  and  N_2
REMARK    2  A    between atoms: N_2  and  C_3
REMARK    3  A    between atoms: N_2  and  C_16
REMARK    4  A    between atoms: C_3  and  C_4
REMARK    5  A    between atoms: C_5  and  C_6
REMARK    6  A    between atoms: C_16  and  C_17
REMARK                            x       y       z     vdW  Elec       q    Type
REMARK                         _______ _______ _______ _____ _____    ______ ____
ROOT
ATOM      1  C   UNL     1       2.093   4.167  20.455  0.00  0.00    +0.000 C 
ENDROOT
BRANCH   1   3
ATOM      2  C   UNL     1       2.081   2.052  19.273  0.00  0.00    +0.000 C 
ATOM      3  N   UNL     1       2.689   3.386  19.356  0.00  0.00    +0.000 NA
BRANCH   3   4
ATOM      4  C   UNL     1       4.145   3.284  19.598  0.00  0.00    +0.000 C 
BRANCH   4   5
ATOM      5  C   UNL     1       5.007   3.971  18.556  0.00  0.00    +0.000 A 
ATOM      6  C   UNL     1       5.979   4.915  18.959  0.00  0.00    +0.000 A 
ATOM      7  C   UNL     1       6.783   5.567  18.021  0.00  0.00    +0.000 A 
ATOM      8  C   UNL     1       6.605   5.251  16.692  0.00  0.00    +0.000 A 
ATOM      9  C   UNL     1       5.655   4.332  16.276  0.00  0.00    +0.000 A 
ATOM     10  C   UNL     1       4.839   3.688  17.189  0.00  0.00    +0.000 A 
ATOM     11  C   UNL     1       5.664   4.261  14.798  0.00  0.00    +0.000 C 
ATOM     12  C   UNL     1       6.995   4.967  14.534  0.00  0.00    +0.000 C 
ATOM     13  O   UNL     1       7.319   5.811  15.663  0.00  0.00    +0.000 OA
ENDBRANCH   4   5
ENDBRANCH   3   4
ENDBRANCH   1   3
BRANCH   1  14
ATOM     14  C   UNL     1       1.619   5.528  20.039  0.00  0.00    +0.000 C 
ATOM     15  C   UNL     1       2.390   6.628  20.079  0.00  0.00    +0.000 C 
BRANCH  15  16
ATOM     16  C   UNL     1       1.893   7.932  19.626  0.00  0.00    +0.000 A 
ATOM     17  C   UNL     1       2.164   8.306  18.302  0.00  0.00    +0.000 A 
ATOM     18  C   UNL     1       1.743   9.543  17.822  0.00  0.00    +0.000 A 
ATOM     19  C   UNL     1       1.053  10.415  18.661  0.00  0.00    +0.000 A 
ATOM     20  C   UNL     1       0.764  10.064  19.989  0.00  0.00    +0.000 A 
ATOM     21  C   UNL     1       0.067  10.951  20.826  0.00  0.00    +0.000 A 
ATOM     22  C   UNL     1      -0.234  10.611  22.144  0.00  0.00    +0.000 A 
ATOM     23  C   UNL     1       0.156   9.377  22.646  0.00  0.00    +0.000 A 
ATOM     24  C   UNL     1       0.854   8.485  21.830  0.00  0.00    +0.000 A 
ATOM     25  C   UNL     1       1.178   8.805  20.489  0.00  0.00    +0.000 A 
ENDBRANCH  15  16
ENDBRANCH   1  14
TORSDOF 5
ENDMDL
MODEL 3
REMARK VINA RESULT:      -8.0      2.370      4.491
REMARK  Name = 
REMARK  6 active torsions:
REMARK  status: ('A' for Active; 'I' for Inactive)
REMARK    1  A    between atoms: C_1  and  N_2
REMARK    2  A    between atoms: N_2  and  C_3
REMARK    3  A    between atoms: N_2  and  C_16
REMARK    4  A    between atoms: C_3  and  C_4
REMARK    5  A    between atoms: C_5  and  C_6
REMARK    6  A    between atoms: C_16  and  C_17
REMARK                            x       y       z     vdW  Elec       q    Type
REMARK                         _______ _______ _______ _____ _____    ______ ____
ROOT
ATOM      1  C   UNL     1       5.039   6.536  16.281  0.00  0.00    +0.000 C 
ENDROOT
BRANCH   1   3
ATOM      2  C   UNL     1       6.487   5.021  15.066  0.00  0.00    +0.000 C 
ATOM      3  N   UNL     1       5.621   5.183  16.241  0.00  0.00    +0.000 NA
BRANCH   3   4
ATOM      4  C   UNL     1       4.512   4.202  16.214  0.00  0.00    +0.000 C 
BRANCH   4   5
ATOM      5  C   UNL     1       4.020   3.769  17.581  0.00  0.00    +0.000 A 
ATOM      6  C   UNL     1       4.951   3.500  18.611  0.00  0.00    +0.000 A 
ATOM      7  C   UNL     1       4.525   3.094  19.878  0.00  0.00    +0.000 A 
ATOM      8  C   UNL     1       3.170   2.976  20.094  0.00  0.00    +0.000 A 
ATOM      9  C   UNL     1       2.242   3.231  19.096  0.00  0.00    +0.000 A 
ATOM     10  C   UNL     1       2.644   3.619  17.831  0.00  0.00    +0.000 A 
ATOM     11  C   UNL     1       0.884   2.955  19.616  0.00  0.00    +0.000 C 
ATOM     12  C   UNL     1       1.207   2.901  21.110  0.00  0.00    +0.000 C 
ATOM     13  O   UNL     1       2.609   2.587  21.283  0.00  0.00    +0.000 OA
ENDBRANCH   4   5
ENDBRANCH   3   4
ENDBRANCH   1   3
BRANCH   1  14
ATOM     14  C   UNL     1       4.258   6.819  17.531  0.00  0.00    +0.000 C 
ATOM     15  C   UNL     1       3.119   7.532  17.550  0.00  0.00    +0.000 C 
BRANCH  15  16
ATOM     16  C   UNL     1       2.371   7.750  18.793  0.00  0.00    +0.000 A 
ATOM     17  C   UNL     1       2.358   6.713  19.735  0.00  0.00    +0.000 A 
ATOM     18  C   UNL     1       1.642   6.850  20.921  0.00  0.00    +0.000 A 
ATOM     19  C   UNL     1       0.932   8.022  21.173  0.00  0.00    +0.000 A 
ATOM     20  C   UNL     1       0.932   9.078  20.249  0.00  0.00    +0.000 A 
ATOM     21  C   UNL     1       0.213  10.256  20.513  0.00  0.00    +0.000 A 
ATOM     22  C   UNL     1       0.211  11.317  19.608  0.00  0.00    +0.000 A 
ATOM     23  C   UNL     1       0.931  11.217  18.425  0.00  0.00    +0.000 A 
ATOM     24  C   UNL     1       1.647  10.052  18.144  0.00  0.00    +0.000 A 
ATOM     25  C   UNL     1       1.663   8.957  19.041  0.00  0.00    +0.000 A 
ENDBRANCH  15  16
ENDBRANCH   1  14
TORSDOF 5
ENDMDL
MODEL 4
REMARK VINA RESULT:      -7.9      2.398      4.367
REMARK  Name = 
REMARK  6 active torsions:
REMARK  status: ('A' for Active; 'I' for Inactive)
REMARK    1  A    between atoms: C_1  and  N_2
REMARK    2  A    between atoms: N_2  and  C_3
REMARK    3  A    between atoms: N_2  and  C_16
REMARK    4  A    between atoms: C_3  and  C_4
REMARK    5  A    between atoms: C_5  and  C_6
REMARK    6  A    between atoms: C_16  and  C_17
REMARK                            x       y       z     vdW  Elec       q    Type
REMARK                         _______ _______ _______ _____ _____    ______ ____
ROOT
ATOM      1  C   UNL     1       4.860   6.330  16.635  0.00  0.00    +0.000 C 
ENDROOT
BRANCH   1   3
ATOM      2  C   UNL     1       6.716   4.973  15.871  0.00  0.00    +0.000 C 
ATOM      3  N   UNL     1       5.561   5.042  16.776  0.00  0.00    +0.000 NA
BRANCH   3   4
ATOM      4  C   UNL     1       4.599   3.956  16.481  0.00  0.00    +0.000 C 
BRANCH   4   5
ATOM      5  C   UNL     1       3.559   3.725  17.560  0.00  0.00    +0.000 A 
ATOM      6  C   UNL     1       2.185   3.872  17.255  0.00  0.00    +0.000 A 
ATOM      7  C   UNL     1       1.205   3.670  18.230  0.00  0.00    +0.000 A 
ATOM      8  C   UNL     1       1.621   3.314  19.494  0.00  0.00    +0.000 A 
ATOM      9  C   UNL     1       2.961   3.170  19.814  0.00  0.00    +0.000 A 
ATOM     10  C   UNL     1       3.947   3.380  18.866  0.00  0.00    +0.000 A 
ATOM     11  C   UNL     1       3.083   2.848  21.253  0.00  0.00    +0.000 C 
ATOM     12  C   UNL     1       1.630   2.466  21.537  0.00  0.00    +0.000 C 
ATOM     13  O   UNL     1       0.774   3.086  20.549  0.00  0.00    +0.000 OA
ENDBRANCH   4   5
ENDBRANCH   3   4
ENDBRANCH   1   3
BRANCH   1  14
ATOM     14  C   UNL     1       4.047   6.709  17.838  0.00  0.00    +0.000 C 
ATOM     15  C   UNL     1       3.012   7.565  17.796  0.00  0.00    +0.000 C 
BRANCH  15  16
ATOM     16  C   UNL     1       2.223   7.876  18.993  0.00  0.00    +0.000 A 
ATOM     17  C   UNL     1       2.123   6.886  19.981  0.00  0.00    +0.000 A 
ATOM     18  C   UNL     1       1.366   7.111  21.127  0.00  0.00    +0.000 A 
ATOM     19  C   UNL     1       0.700   8.324  21.292  0.00  0.00    +0.000 A 
ATOM     20  C   UNL     1       0.787   9.334  20.322  0.00  0.00    +0.000 A 
ATOM     21  C   UNL     1       0.112  10.553  20.500  0.00  0.00    +0.000 A 
ATOM     22  C   UNL     1       0.197  11.569  19.548  0.00  0.00    +0.000 A 
ATOM     23  C   UNL     1       0.960  11.381  18.404  0.00  0.00    +0.000 A 
ATOM     24  C   UNL     1       1.633  10.174  18.208  0.00  0.00    +0.000 A 
ATOM     25  C   UNL     1       1.562   9.123  19.154  0.00  0.00    +0.000 A 
ENDBRANCH  15  16
ENDBRANCH   1  14
TORSDOF 5
ENDMDL
MODEL 5
REMARK VINA RESULT:      -7.8      4.266      8.015
REMARK  Name = 
REMARK  6 active torsions:
REMARK  status: ('A' for Active; 'I' for Inactive)
REMARK    1  A    between atoms: C_1  and  N_2
REMARK    2  A    between atoms: N_2  and  C_3
REMARK    3  A    between atoms: N_2  and  C_16
REMARK    4  A    between atoms: C_3  and  C_4
REMARK    5  A    between atoms: C_5  and  C_6
REMARK    6  A    between atoms: C_16  and  C_17
REMARK                            x       y       z     vdW  Elec       q    Type
REMARK                         _______ _______ _______ _____ _____    ______ ____
ROOT
ATOM      1  C   UNL     1       7.672   7.828  17.306  0.00  0.00    +0.000 C 
ENDROOT
BRANCH   1   3
ATOM      2  C   UNL     1       7.425   5.476  17.830  0.00  0.00    +0.000 C 
ATOM      3  N   UNL     1       6.784   6.797  17.871  0.00  0.00    +0.000 NA
BRANCH   3   4
ATOM      4  C   UNL     1       5.525   6.792  17.093  0.00  0.00    +0.000 C 
BRANCH   4   5
ATOM      5  C   UNL     1       4.445   5.884  17.647  0.00  0.00    +0.000 A 
ATOM      6  C   UNL     1       4.091   4.705  16.950  0.00  0.00    +0.000 A 
ATOM      7  C   UNL     1       3.095   3.853  17.434  0.00  0.00    +0.000 A 
ATOM      8  C   UNL     1       2.478   4.194  18.618  0.00  0.00    +0.000 A 
ATOM      9  C   UNL     1       2.807   5.346  19.314  0.00  0.00    +0.000 A 
ATOM     10  C   UNL     1       3.780   6.210  18.842  0.00  0.00    +0.000 A 
ATOM     11  C   UNL     1       1.931   5.462  20.500  0.00  0.00    +0.000 C 
ATOM     12  C   UNL     1       1.382   4.035  20.533  0.00  0.00    +0.000 C 
ATOM     13  O   UNL     1       1.486   3.455  19.211  0.00  0.00    +0.000 OA
ENDBRANCH   4   5
ENDBRANCH   3   4
ENDBRANCH   1   3
BRANCH   1  14
ATOM     14  C   UNL     1       8.257   8.749  18.336  0.00  0.00    +0.000 C 
ATOM     15  C   UNL     1       8.961   9.853  18.032  0.00  0.00    +0.000 C 
BRANCH  15  16
ATOM     16  C   UNL     1       9.483  10.743  19.075  0.00  0.00    +0.000 A 
ATOM     17  C   UNL     1       8.988  10.579  20.376  0.00  0.00    +0.000 A 
ATOM     18  C   UNL     1       9.424  11.412  21.403  0.00  0.00    +0.000 A 
ATOM     19  C   UNL     1      10.353  12.415  21.137  0.00  0.00    +0.000 A 
ATOM     20  C   UNL     1      10.868  12.598  19.844  0.00  0.00    +0.000 A 
ATOM     21  C   UNL     1      11.805  13.613  19.587  0.00  0.00    +0.000 A 
ATOM     22  C   UNL     1      12.332  13.800  18.310  0.00  0.00    +0.000 A 
ATOM     23  C   UNL     1      11.931  12.973  17.269  0.00  0.00    +0.000 A 
ATOM     24  C   UNL     1      10.997  11.963  17.506  0.00  0.00    +0.000 A 
ATOM     25  C   UNL     1      10.441  11.753  18.791  0.00  0.00    +0.000 A 
ENDBRANCH  15  16
ENDBRANCH   1  14
TORSDOF 5
ENDMDL
MODEL 6
REMARK VINA RESULT:      -7.7      4.321      7.876
REMARK  Name = 
REMARK  6 active torsions:
REMARK  status: ('A' for Active; 'I' for Inactive)
REMARK    1  A    between atoms: C_1  and  N_2
REMARK    2  A    between atoms: N_2  and  C_3
REMARK    3  A    between atoms: N_2  and  C_16
REMARK    4  A    between atoms: C_3  and  C_4
REMARK    5  A    between atoms: C_5  and  C_6
REMARK    6  A    between atoms: C_16  and  C_17
REMARK                            x       y       z     vdW  Elec       q    Type
REMARK                         _______ _______ _______ _____ _____    ______ ____
ROOT
ATOM      1  C   UNL     1       7.953   8.065  17.339  0.00  0.00    +0.000 C 
ENDROOT
BRANCH   1   3
ATOM      2  C   UNL     1       7.678   6.130  18.771  0.00  0.00    +0.000 C 
ATOM      3  N   UNL     1       6.987   7.148  17.969  0.00  0.00    +0.000 NA
BRANCH   3   4
ATOM      4  C   UNL     1       6.183   6.516  16.899  0.00  0.00    +0.000 C 
BRANCH   4   5
ATOM      5  C   UNL     1       4.882   5.896  17.371  0.00  0.00    +0.000 A 
ATOM      6  C   UNL     1       3.824   6.727  17.806  0.00  0.00    +0.000 A 
ATOM      7  C   UNL     1       2.616   6.183  18.251  0.00  0.00    +0.000 A 
ATOM      8  C   UNL     1       2.488   4.811  18.241  0.00  0.00    +0.000 A 
ATOM      9  C   UNL     1       3.514   3.980  17.822  0.00  0.00    +0.000 A 
ATOM     10  C   UNL     1       4.722   4.499  17.393  0.00  0.00    +0.000 A 
ATOM     11  C   UNL     1       3.094   2.571  17.990  0.00  0.00    +0.000 C 
ATOM     12  C   UNL     1       1.592   2.790  18.179  0.00  0.00    +0.000 C 
ATOM     13  O   UNL     1       1.364   4.139  18.650  0.00  0.00    +0.000 OA
ENDBRANCH   4   5
ENDBRANCH   3   4
ENDBRANCH   1   3
BRANCH   1  14
ATOM     14  C   UNL     1       8.198   9.317  18.128  0.00  0.00    +0.000 C 
ATOM     15  C   UNL     1       9.333   9.558  18.807  0.00  0.00    +0.000 C 
BRANCH  15  16
ATOM     16  C   UNL     1       9.541  10.815  19.534  0.00  0.00    +0.000 A 
ATOM     17  C   UNL     1       9.101  10.877  20.864  0.00  0.00    +0.000 A 
ATOM     18  C   UNL     1       9.246  12.052  21.597  0.00  0.00    +0.000 A 
ATOM     19  C   UNL     1       9.826  13.172  21.006  0.00  0.00    +0.000 A 
ATOM     20  C   UNL     1      10.280  13.136  19.678  0.00  0.00    +0.000 A 
ATOM     21  C   UNL     1      10.864  14.271  19.094  0.00  0.00    +0.000 A 
ATOM     22  C   UNL     1      11.327  14.247  17.778  0.00  0.00    +0.000 A 
ATOM     23  C   UNL     1      11.214  13.084  17.028  0.00  0.00    +0.000 A 
ATOM     24  C   UNL     1      10.631  11.948  17.592  0.00  0.00    +0.000 A 
ATOM     25  C   UNL     1      10.148  11.945  18.922  0.00  0.00    +0.000 A 
ENDBRANCH  15  16
ENDBRANCH   1  14
TORSDOF 5
ENDMDL
MODEL 7
REMARK VINA RESULT:      -7.6      1.460      2.306
REMARK  Name = 
REMARK  6 active torsions:
REMARK  status: ('A' for Active; 'I' for Inactive)
REMARK    1  A    between atoms: C_1  and  N_2
REMARK    2  A    between atoms: N_2  and  C_3
REMARK    3  A    between atoms: N_2  and  C_16
REMARK    4  A    between atoms: C_3  and  C_4
REMARK    5  A    between atoms: C_5  and  C_6
REMARK    6  A    between atoms: C_16  and  C_17
REMARK                            x       y       z     vdW  Elec       q    Type
REMARK                         _______ _______ _______ _____ _____    ______ ____
ROOT
ATOM      1  C   UNL     1       3.352   5.793  19.578  0.00  0.00    +0.000 C 
ENDROOT
BRANCH   1   3
ATOM      2  C   UNL     1       2.174   3.991  20.689  0.00  0.00    +0.000 C 
ATOM      3  N   UNL     1       2.898   4.396  19.476  0.00  0.00    +0.000 NA
BRANCH   3   4
ATOM      4  C   UNL     1       4.084   3.537  19.263  0.00  0.00    +0.000 C 
BRANCH   4   5
ATOM      5  C   UNL     1       5.036   4.031  18.193  0.00  0.00    +0.000 A 
ATOM      6  C   UNL     1       6.264   4.626  18.564  0.00  0.00    +0.000 A 
ATOM      7  C   UNL     1       7.159   5.095  17.599  0.00  0.00    +0.000 A 
ATOM      8  C   UNL     1       6.809   4.949  16.274  0.00  0.00    +0.000 A 
ATOM      9  C   UNL     1       5.609   4.373  15.890  0.00  0.00    +0.000 A 
ATOM     10  C   UNL     1       4.704   3.916  16.831  0.00  0.00    +0.000 A 
ATOM     11  C   UNL     1       5.501   4.419  14.415  0.00  0.00    +0.000 C 
ATOM     12  C   UNL     1       6.958   4.736  14.078  0.00  0.00    +0.000 C 
ATOM     13  O   UNL     1       7.585   5.363  15.221  0.00  0.00    +0.000 OA
ENDBRANCH   4   5
ENDBRANCH   3   4
ENDBRANCH   1   3
BRANCH   1  14
ATOM     14  C   UNL     1       2.232   6.786  19.671  0.00  0.00    +0.000 C 
ATOM     15  C   UNL     1       2.307   8.039  19.190  0.00  0.00    +0.000 C 
BRANCH  15  16
ATOM     16  C   UNL     1       1.170   8.962  19.272  0.00  0.00    +0.000 A 
ATOM     17  C   UNL     1       0.633   9.440  18.068  0.00  0.00    +0.000 A 
ATOM     18  C   UNL     1      -0.428  10.341  18.081  0.00  0.00    +0.000 A 
ATOM     19  C   UNL     1      -0.958  10.773  19.295  0.00  0.00    +0.000 A 
ATOM     20  C   UNL     1      -0.443  10.307  20.514  0.00  0.00    +0.000 A 
ATOM     21  C   UNL     1      -0.985  10.749  21.733  0.00  0.00    +0.000 A 
ATOM     22  C   UNL     1      -0.489  10.288  22.952  0.00  0.00    +0.000 A 
ATOM     23  C   UNL     1       0.556   9.374  22.970  0.00  0.00    +0.000 A 
ATOM     24  C   UNL     1       1.111   8.928  21.769  0.00  0.00    +0.000 A 
ATOM     25  C   UNL     1       0.631   9.383  20.518  0.00  0.00    +0.000 A 
ENDBRANCH  15  16
ENDBRANCH   1  14
TORSDOF 5
ENDMDL
MODEL 8
REMARK VINA RESULT:      -7.5      3.809      8.168
REMARK  Name = 
REMARK  6 active torsions:
REMARK  status: ('A' for Active; 'I' for Inactive)
REMARK    1  A    between atoms: C_1  and  N_2
REMARK    2  A    between atoms: N_2  and  C_3
REMARK    3  A    between atoms: N_2  and  C_16
REMARK    4  A    between atoms: C_3  and  C_4
REMARK    5  A    between atoms: C_5  and  C_6
REMARK    6  A    between atoms: C_16  and  C_17
REMARK                            x       y       z     vdW  Elec       q    Type
REMARK                         _______ _______ _______ _____ _____    ______ ____
ROOT
ATOM      1  C   UNL     1       1.641   8.721  20.099  0.00  0.00    +0.000 C 
ENDROOT
BRANCH   1   3
ATOM      2  C   UNL     1       1.803  10.530  18.496  0.00  0.00    +0.000 C 
ATOM      3  N   UNL     1       0.929   9.499  19.070  0.00  0.00    +0.000 NA
BRANCH   3   4
ATOM      4  C   UNL     1      -0.264  10.113  19.696  0.00  0.00    +0.000 C 
BRANCH   4   5
ATOM      5  C   UNL     1      -1.385  10.440  18.730  0.00  0.00    +0.000 A 
ATOM      6  C   UNL     1      -2.373  11.385  19.094  0.00  0.00    +0.000 A 
ATOM      7  C   UNL     1      -3.421  11.702  18.226  0.00  0.00    +0.000 A 
ATOM      8  C   UNL     1      -3.453  11.072  17.001  0.00  0.00    +0.000 A 
ATOM      9  C   UNL     1      -2.497  10.141  16.627  0.00  0.00    +0.000 A 
ATOM     10  C   UNL     1      -1.461   9.803  17.479  0.00  0.00    +0.000 A 
ATOM     11  C   UNL     1      -2.842   9.602  15.293  0.00  0.00    +0.000 C 
ATOM     12  C   UNL     1      -3.871  10.652  14.870  0.00  0.00    +0.000 C 
ATOM     13  O   UNL     1      -4.420  11.282  16.051  0.00  0.00    +0.000 OA
ENDBRANCH   4   5
ENDBRANCH   3   4
ENDBRANCH   1   3
BRANCH   1  14
ATOM     14  C   UNL     1       2.319   7.494  19.564  0.00  0.00    +0.000 C 
ATOM     15  C   UNL     1       2.464   7.237  18.253  0.00  0.00    +0.000 C 
BRANCH  15  16
ATOM     16  C   UNL     1       3.169   6.041  17.779  0.00  0.00    +0.000 A 
ATOM     17  C   UNL     1       4.335   6.229  17.025  0.00  0.00    +0.000 A 
ATOM     18  C   UNL     1       5.032   5.134  16.523  0.00  0.00    +0.000 A 
ATOM     19  C   UNL     1       4.567   3.843  16.767  0.00  0.00    +0.000 A 
ATOM     20  C   UNL     1       3.404   3.626  17.523  0.00  0.00    +0.000 A 
ATOM     21  C   UNL     1       2.945   2.320  17.763  0.00  0.00    +0.000 A 
ATOM     22  C   UNL     1       1.797   2.088  18.520  0.00  0.00    +0.000 A 
ATOM     23  C   UNL     1       1.091   3.160  19.050  0.00  0.00    +0.000 A 
ATOM     24  C   UNL     1       1.531   4.465  18.816  0.00  0.00    +0.000 A 
ATOM     25  C   UNL     1       2.690   4.730  18.048  0.00  0.00    +0.000 A 
ENDBRANCH  15  16
ENDBRANCH   1  14
TORSDOF 5
ENDMDL
MODEL 9
REMARK VINA RESULT:      -7.4      2.284      3.712
REMARK  Name = 
REMARK  6 active torsions:
REMARK  status: ('A' for Active; 'I' for Inactive)
REMARK    1  A    between atoms: C_1  and  N_2
REMARK    2  A    between atoms: N_2  and  C_3
REMARK    3  A    between atoms: N_2  and  C_16
REMARK    4  A    between atoms: C_3  and  C_4
REMARK    5  A    between atoms: C_5  and  C_6
REMARK    6  A    between atoms: C_16  and  C_17
REMARK                            x       y       z     vdW  Elec       q    Type
REMARK                         _______ _______ _______ _____ _____    ______ ____
ROOT
ATOM      1  C   UNL     1       2.822   7.271  18.690  0.00  0.00    +0.000 C 
ENDROOT
BRANCH   1   3
ATOM      2  C   UNL     1       1.696   5.937  20.370  0.00  0.00    +0.000 C 
ATOM      3  N   UNL     1       2.616   5.913  19.225  0.00  0.00    +0.000 NA
BRANCH   3   4
ATOM      4  C   UNL     1       3.933   5.367  19.622  0.00  0.00    +0.000 C 
BRANCH   4   5
ATOM      5  C   UNL     1       4.931   5.241  18.489  0.00  0.00    +0.000 A 
ATOM      6  C   UNL     1       6.307   5.456  18.736  0.00  0.00    +0.000 A 
ATOM      7  C   UNL     1       7.249   5.352  17.710  0.00  0.00    +0.000 A 
ATOM      8  C   UNL     1       6.794   5.023  16.451  0.00  0.00    +0.000 A 
ATOM      9  C   UNL     1       5.450   4.813  16.187  0.00  0.00    +0.000 A 
ATOM     10  C   UNL     1       4.501   4.927  17.188  0.00  0.00    +0.000 A 
ATOM     11  C   UNL     1       5.277   4.543  14.743  0.00  0.00    +0.000 C 
ATOM     12  C   UNL     1       6.735   4.259  14.377  0.00  0.00    +0.000 C 
ATOM     13  O   UNL     1       7.601   4.888  15.350  0.00  0.00    +0.000 OA
ENDBRANCH   4   5
ENDBRANCH   3   4
ENDBRANCH   1   3
BRANCH   1  14
ATOM     14  C   UNL     1       1.857   8.284  19.230  0.00  0.00    +0.000 C 
ATOM     15  C   UNL     1       1.319   9.267  18.488  0.00  0.00    +0.000 C 
BRANCH  15  16
ATOM     16  C   UNL     1       0.350  10.213  19.052  0.00  0.00    +0.000 A 
ATOM     17  C   UNL     1       0.711  10.891  20.225  0.00  0.00    +0.000 A 
ATOM     18  C   UNL     1      -0.176  11.780  20.824  0.00  0.00    +0.000 A 
ATOM     19  C   UNL     1      -1.431  11.996  20.258  0.00  0.00    +0.000 A 
ATOM     20  C   UNL     1      -1.816  11.335  19.082  0.00  0.00    +0.000 A 
ATOM     21  C   UNL     1      -3.084  11.560  18.520  0.00  0.00    +0.000 A 
ATOM     22  C   UNL     1      -3.476  10.917  17.346  0.00  0.00    +0.000 A 
ATOM     23  C   UNL     1      -2.605  10.039  16.716  0.00  0.00    +0.000 A 
ATOM     24  C   UNL     1      -1.344   9.799  17.263  0.00  0.00    +0.000 A 
ATOM     25  C   UNL     1      -0.920  10.434  18.456  0.00  0.00    +0.000 A 
ENDBRANCH  15  16
ENDBRANCH   1  14
TORSDOF 5
ENDMDL
