MODEL 1
REMARK VINA RESULT:      -8.1      0.000      0.000
REMARK  Name = 
REMARK  5 active torsions:
REMARK  status: ('A' for Active; 'I' for Inactive)
REMARK    1  A    between atoms: C_1  and  C_2
REMARK    2  A    between atoms: C_2  and  O_4
REMARK    3  A    between atoms: O_4  and  C_5
REMARK    4  A    between atoms: C_19  and  C_20
REMARK    5  A    between atoms: C_24  and  C_25
REMARK                            x       y       z     vdW  Elec       q    Type
REMARK                         _______ _______ _______ _____ _____    ______ ____
ROOT
ATOM      1  C   UNL     1       3.775   4.629  19.097  0.00  0.00    +0.000 C 
ATOM      2  C   UNL     1       3.137   3.911  20.289  0.00  0.00    +0.000 C 
ATOM      3  C   UNL     1       2.313   5.012  20.934  0.00  0.00    +0.000 C 
ATOM      4  C   UNL     1       1.800   5.909  19.772  0.00  0.00    +0.000 C 
ATOM      5  C   UNL     1       1.951   7.407  20.162  0.00  0.00    +0.000 C 
ATOM      6  C   UNL     1       0.968   7.711  21.286  0.00  0.00    +0.000 C 
ATOM      7  C   UNL     1       1.062   9.161  21.649  0.00  0.00    +0.000 C 
ATOM      8  C   UNL     1       0.426  10.010  20.560  0.00  0.00    +0.000 C 
ATOM      9  N   UNL     1       0.484  11.362  21.096  0.00  0.00    +0.000 N 
ATOM     10  C   UNL     1      -0.103  12.380  20.381  0.00  0.00    +0.000 C 
ATOM     11  O   UNL     1      -1.290  12.450  20.110  0.00  0.00    +0.000 OA
ATOM     12  C   UNL     1       0.963  13.231  19.766  0.00  0.00    +0.000 C 
ATOM     13  C   UNL     1       1.498  12.470  18.551  0.00  0.00    +0.000 C 
ATOM     14  C   UNL     1       2.093  11.057  18.825  0.00  0.00    +0.000 C 
ATOM     15  C   UNL     1       1.110   9.836  19.135  0.00  0.00    +0.000 C 
ATOM     16  C   UNL     1       0.013   9.863  18.030  0.00  0.00    +0.000 C 
ATOM     17  C   UNL     1       1.974   8.461  19.005  0.00  0.00    +0.000 C 
ATOM     18  C   UNL     1       1.918   7.737  17.640  0.00  0.00    +0.000 C 
ATOM     19  C   UNL     1       2.961   6.608  17.588  0.00  0.00    +0.000 C 
ATOM     20  C   UNL     1       2.578   5.434  18.509  0.00  0.00    +0.000 C 
ATOM     21  C   UNL     1       1.702   4.451  17.681  0.00  0.00    +0.000 C 
ATOM     22  H   UNL     1       1.393  11.594  21.476  0.00  0.00    +0.000 HD
ENDROOT
BRANCH   1  23
ATOM     23  O   UNL     1       4.793   5.540  19.563  0.00  0.00    +0.000 OA
BRANCH  23  25
ATOM     24  C   UNL     1       6.139   4.579  17.895  0.00  0.00    +0.000 C 
ATOM     25  C   UNL     1       6.078   5.224  19.247  0.00  0.00    +0.000 C 
ATOM     26  O   UNL     1       7.056   5.434  19.944  0.00  0.00    +0.000 OA
ENDBRANCH  23  25
ENDBRANCH   1  23
TORSDOF 2
ENDMDL
MODEL 2
REMARK VINA RESULT:      -7.7      2.404      7.164
REMARK  Name = 
REMARK  5 active torsions:
REMARK  status: ('A' for Active; 'I' for Inactive)
REMARK    1  A    between atoms: C_1  and  C_2
REMARK    2  A    between atoms: C_2  and  O_4
REMARK    3  A    between atoms: O_4  and  C_5
REMARK    4  A    between atoms: C_19  and  C_20
REMARK    5  A    between atoms: C_24  and  C_25
REMARK                            x       y       z     vdW  Elec       q    Type
REMARK                         _______ _______ _______ _____ _____    ______ ____
ROOT
ATOM      1  C   UNL     1      -0.389  10.642  18.969  0.00  0.00    +0.000 C 
ATOM      2  C   UNL     1      -0.523  10.856  20.478  0.00  0.00    +0.000 C 
ATOM      3  C   UNL     1       0.119   9.603  21.047  0.00  0.00    +0.000 C 
ATOM      4  C   UNL     1       1.274   9.227  20.076  0.00  0.00    +0.000 C 
ATOM      5  C   UNL     1       1.266   7.692  19.825  0.00  0.00    +0.000 C 
ATOM      6  C   UNL     1       1.668   6.993  21.118  0.00  0.00    +0.000 C 
ATOM      7  C   UNL     1       1.713   5.513  20.890  0.00  0.00    +0.000 C 
ATOM      8  C   UNL     1       2.931   5.154  20.054  0.00  0.00    +0.000 C 
ATOM      9  N   UNL     1       2.908   3.700  20.015  0.00  0.00    +0.000 N 
ATOM     10  C   UNL     1       3.948   3.041  19.400  0.00  0.00    +0.000 C 
ATOM     11  O   UNL     1       5.114   3.096  19.749  0.00  0.00    +0.000 OA
ATOM     12  C   UNL     1       3.474   2.477  18.097  0.00  0.00    +0.000 C 
ATOM     13  C   UNL     1       3.410   3.638  17.102  0.00  0.00    +0.000 C 
ATOM     14  C   UNL     1       2.486   4.831  17.488  0.00  0.00    +0.000 C 
ATOM     15  C   UNL     1       2.951   5.853  18.625  0.00  0.00    +0.000 C 
ATOM     16  C   UNL     1       4.411   6.266  18.274  0.00  0.00    +0.000 C 
ATOM     17  C   UNL     1       1.985   7.161  18.540  0.00  0.00    +0.000 C 
ATOM     18  C   UNL     1       2.509   8.353  17.707  0.00  0.00    +0.000 C 
ATOM     19  C   UNL     1       1.401   9.403  17.515  0.00  0.00    +0.000 C 
ATOM     20  C   UNL     1       1.078  10.139  18.829  0.00  0.00    +0.000 C 
ATOM     21  C   UNL     1       2.017  11.376  18.920  0.00  0.00    +0.000 C 
ATOM     22  H   UNL     1       1.993   3.328  19.791  0.00  0.00    +0.000 HD
ENDROOT
BRANCH   1  23
ATOM     23  O   UNL     1      -1.301   9.609  18.539  0.00  0.00    +0.000 OA
BRANCH  23  25
ATOM     24  C   UNL     1      -2.158  11.378  17.252  0.00  0.00    +0.000 C 
ATOM     25  C   UNL     1      -2.395  10.019  17.841  0.00  0.00    +0.000 C 
ATOM     26  O   UNL     1      -3.426   9.385  17.695  0.00  0.00    +0.000 OA
ENDBRANCH  23  25
ENDBRANCH   1  23
TORSDOF 2
ENDMDL
MODEL 3
REMARK VINA RESULT:      -6.7      4.889      9.710
REMARK  Name = 
REMARK  5 active torsions:
REMARK  status: ('A' for Active; 'I' for Inactive)
REMARK    1  A    between atoms: C_1  and  C_2
REMARK    2  A    between atoms: C_2  and  O_4
REMARK    3  A    between atoms: O_4  and  C_5
REMARK    4  A    between atoms: C_19  and  C_20
REMARK    5  A    between atoms: C_24  and  C_25
REMARK                            x       y       z     vdW  Elec       q    Type
REMARK                         _______ _______ _______ _____ _____    ______ ____
ROOT
ATOM      1  C   UNL     1      -6.788  13.446  19.010  0.00  0.00    +0.000 C 
ATOM      2  C   UNL     1      -7.533  12.261  18.392  0.00  0.00    +0.000 C 
ATOM      3  C   UNL     1      -6.402  11.316  18.022  0.00  0.00    +0.000 C 
ATOM      4  C   UNL     1      -5.311  11.496  19.115  0.00  0.00    +0.000 C 
ATOM      5  C   UNL     1      -3.907  11.557  18.447  0.00  0.00    +0.000 C 
ATOM      6  C   UNL     1      -3.591  10.183  17.871  0.00  0.00    +0.000 C 
ATOM      7  C   UNL     1      -2.223  10.203  17.261  0.00  0.00    +0.000 C 
ATOM      8  C   UNL     1      -1.167  10.236  18.355  0.00  0.00    +0.000 C 
ATOM      9  N   UNL     1       0.089  10.135  17.628  0.00  0.00    +0.000 N 
ATOM     10  C   UNL     1       1.259  10.044  18.346  0.00  0.00    +0.000 C 
ATOM     11  O   UNL     1       1.539   9.143  19.118  0.00  0.00    +0.000 OA
ATOM     12  C   UNL     1       2.005  11.337  18.240  0.00  0.00    +0.000 C 
ATOM     13  C   UNL     1       1.318  12.329  19.181  0.00  0.00    +0.000 C 
ATOM     14  C   UNL     1      -0.191  12.607  18.912  0.00  0.00    +0.000 C 
ATOM     15  C   UNL     1      -1.277  11.505  19.309  0.00  0.00    +0.000 C 
ATOM     16  C   UNL     1      -0.959  11.079  20.772  0.00  0.00    +0.000 C 
ATOM     17  C   UNL     1      -2.743  12.215  19.260  0.00  0.00    +0.000 C 
ATOM     18  C   UNL     1      -3.288  12.765  20.598  0.00  0.00    +0.000 C 
ATOM     19  C   UNL     1      -4.548  13.613  20.356  0.00  0.00    +0.000 C 
ATOM     20  C   UNL     1      -5.749  12.745  19.935  0.00  0.00    +0.000 C 
ATOM     21  C   UNL     1      -6.487  12.301  21.230  0.00  0.00    +0.000 C 
ATOM     22  H   UNL     1       0.137  10.765  16.838  0.00  0.00    +0.000 HD
ENDROOT
BRANCH   1  23
ATOM     23  O   UNL     1      -6.100  14.182  17.976  0.00  0.00    +0.000 OA
BRANCH  23  25
ATOM     24  C   UNL     1      -7.648  15.933  18.211  0.00  0.00    +0.000 C 
ATOM     25  C   UNL     1      -6.845  15.080  17.276  0.00  0.00    +0.000 C 
ATOM     26  O   UNL     1      -6.865  15.197  16.062  0.00  0.00    +0.000 OA
ENDBRANCH  23  25
ENDBRANCH   1  23
TORSDOF 2
ENDMDL
MODEL 4
REMARK VINA RESULT:      -6.3      5.594      8.171
REMARK  Name = 
REMARK  5 active torsions:
REMARK  status: ('A' for Active; 'I' for Inactive)
REMARK    1  A    between atoms: C_1  and  C_2
REMARK    2  A    between atoms: C_2  and  O_4
REMARK    3  A    between atoms: O_4  and  C_5
REMARK    4  A    between atoms: C_19  and  C_20
REMARK    5  A    between atoms: C_24  and  C_25
REMARK                            x       y       z     vdW  Elec       q    Type
REMARK                         _______ _______ _______ _____ _____    ______ ____
ROOT
ATOM      1  C   UNL     1       0.341  12.207  19.691  0.00  0.00    +0.000 C 
ATOM      2  C   UNL     1       1.025  11.425  20.815  0.00  0.00    +0.000 C 
ATOM      3  C   UNL     1      -0.004  11.482  21.931  0.00  0.00    +0.000 C 
ATOM      4  C   UNL     1      -1.397  11.445  21.239  0.00  0.00    +0.000 C 
ATOM      5  C   UNL     1      -2.340  12.486  21.908  0.00  0.00    +0.000 C 
ATOM      6  C   UNL     1      -2.649  12.011  23.323  0.00  0.00    +0.000 C 
ATOM      7  C   UNL     1      -3.594  12.974  23.974  0.00  0.00    +0.000 C 
ATOM      8  C   UNL     1      -4.984  12.820  23.377  0.00  0.00    +0.000 C 
ATOM      9  N   UNL     1      -5.805  13.719  24.175  0.00  0.00    +0.000 N 
ATOM     10  C   UNL     1      -7.161  13.748  23.947  0.00  0.00    +0.000 C 
ATOM     11  O   UNL     1      -7.916  12.801  24.088  0.00  0.00    +0.000 OA
ATOM     12  C   UNL     1      -7.518  15.024  23.250  0.00  0.00    +0.000 C 
ATOM     13  C   UNL     1      -7.113  14.861  21.783  0.00  0.00    +0.000 C 
ATOM     14  C   UNL     1      -5.611  14.552  21.509  0.00  0.00    +0.000 C 
ATOM     15  C   UNL     1      -5.039  13.092  21.811  0.00  0.00    +0.000 C 
ATOM     16  C   UNL     1      -6.027  12.087  21.149  0.00  0.00    +0.000 C 
ATOM     17  C   UNL     1      -3.583  12.972  21.091  0.00  0.00    +0.000 C 
ATOM     18  C   UNL     1      -3.560  12.336  19.682  0.00  0.00    +0.000 C 
ATOM     19  C   UNL     1      -2.176  12.513  19.035  0.00  0.00    +0.000 C 
ATOM     20  C   UNL     1      -1.109  11.638  19.721  0.00  0.00    +0.000 C 
ATOM     21  C   UNL     1      -1.096  10.259  19.001  0.00  0.00    +0.000 C 
ATOM     22  H   UNL     1      -5.386  14.632  24.293  0.00  0.00    +0.000 HD
ENDROOT
BRANCH   1  23
ATOM     23  O   UNL     1       0.319  13.613  20.016  0.00  0.00    +0.000 OA
BRANCH  23  25
ATOM     24  C   UNL     1       0.073  15.687  18.942  0.00  0.00    +0.000 C 
ATOM     25  C   UNL     1       0.902  14.450  19.117  0.00  0.00    +0.000 C 
ATOM     26  O   UNL     1       1.954  14.248  18.532  0.00  0.00    +0.000 OA
ENDBRANCH  23  25
ENDBRANCH   1  23
TORSDOF 2
ENDMDL
MODEL 5
REMARK VINA RESULT:      -6.1      4.548      7.555
REMARK  Name = 
REMARK  5 active torsions:
REMARK  status: ('A' for Active; 'I' for Inactive)
REMARK    1  A    between atoms: C_1  and  C_2
REMARK    2  A    between atoms: C_2  and  O_4
REMARK    3  A    between atoms: O_4  and  C_5
REMARK    4  A    between atoms: C_19  and  C_20
REMARK    5  A    between atoms: C_24  and  C_25
REMARK                            x       y       z     vdW  Elec       q    Type
REMARK                         _______ _______ _______ _____ _____    ______ ____
ROOT
ATOM      1  C   UNL     1       0.311  10.550  19.648  0.00  0.00    +0.000 C 
ATOM      2  C   UNL     1       0.144  10.079  18.202  0.00  0.00    +0.000 C 
ATOM      3  C   UNL     1      -1.295  10.456  17.895  0.00  0.00    +0.000 C 
ATOM      4  C   UNL     1      -1.575  11.772  18.675  0.00  0.00    +0.000 C 
ATOM      5  C   UNL     1      -2.974  11.691  19.350  0.00  0.00    +0.000 C 
ATOM      6  C   UNL     1      -4.035  11.710  18.257  0.00  0.00    +0.000 C 
ATOM      7  C   UNL     1      -5.395  11.680  18.885  0.00  0.00    +0.000 C 
ATOM      8  C   UNL     1      -5.703  13.027  19.520  0.00  0.00    +0.000 C 
ATOM      9  N   UNL     1      -7.078  12.888  19.977  0.00  0.00    +0.000 N 
ATOM     10  C   UNL     1      -7.703  13.983  20.527  0.00  0.00    +0.000 C 
ATOM     11  O   UNL     1      -7.915  15.033  19.946  0.00  0.00    +0.000 OA
ATOM     12  C   UNL     1      -7.833  13.787  22.005  0.00  0.00    +0.000 C 
ATOM     13  C   UNL     1      -6.458  14.063  22.617  0.00  0.00    +0.000 C 
ATOM     14  C   UNL     1      -5.281  13.180  22.105  0.00  0.00    +0.000 C 
ATOM     15  C   UNL     1      -4.670  13.448  20.654  0.00  0.00    +0.000 C 
ATOM     16  C   UNL     1      -4.403  14.980  20.564  0.00  0.00    +0.000 C 
ATOM     17  C   UNL     1      -3.255  12.647  20.558  0.00  0.00    +0.000 C 
ATOM     18  C   UNL     1      -1.980  13.456  20.888  0.00  0.00    +0.000 C 
ATOM     19  C   UNL     1      -0.763  12.521  20.996  0.00  0.00    +0.000 C 
ATOM     20  C   UNL     1      -0.352  11.959  19.622  0.00  0.00    +0.000 C 
ATOM     21  C   UNL     1       0.664  12.953  18.989  0.00  0.00    +0.000 C 
ATOM     22  H   UNL     1      -7.238  12.024  20.480  0.00  0.00    +0.000 HD
ENDROOT
BRANCH   1  23
ATOM     23  O   UNL     1      -0.428   9.681  20.533  0.00  0.00    +0.000 OA
BRANCH  23  25
ATOM     24  C   UNL     1      -0.274   9.382  22.858  0.00  0.00    +0.000 C 
ATOM     25  C   UNL     1       0.289   9.057  21.506  0.00  0.00    +0.000 C 
ATOM     26  O   UNL     1       1.250   8.328  21.327  0.00  0.00    +0.000 OA
ENDBRANCH  23  25
ENDBRANCH   1  23
TORSDOF 2
ENDMDL
MODEL 6
REMARK VINA RESULT:      -5.9      5.292      7.700
REMARK  Name = 
REMARK  5 active torsions:
REMARK  status: ('A' for Active; 'I' for Inactive)
REMARK    1  A    between atoms: C_1  and  C_2
REMARK    2  A    between atoms: C_2  and  O_4
REMARK    3  A    between atoms: O_4  and  C_5
REMARK    4  A    between atoms: C_19  and  C_20
REMARK    5  A    between atoms: C_24  and  C_25
REMARK                            x       y       z     vdW  Elec       q    Type
REMARK                         _______ _______ _______ _____ _____    ______ ____
ROOT
ATOM      1  C   UNL     1       0.627  11.716  20.149  0.00  0.00    +0.000 C 
ATOM      2  C   UNL     1       1.010  10.697  21.226  0.00  0.00    +0.000 C 
ATOM      3  C   UNL     1      -0.107  10.858  22.244  0.00  0.00    +0.000 C 
ATOM      4  C   UNL     1      -1.391  11.188  21.431  0.00  0.00    +0.000 C 
ATOM      5  C   UNL     1      -2.176  12.332  22.136  0.00  0.00    +0.000 C 
ATOM      6  C   UNL     1      -2.731  11.793  23.448  0.00  0.00    +0.000 C 
ATOM      7  C   UNL     1      -3.531  12.864  24.125  0.00  0.00    +0.000 C 
ATOM      8  C   UNL     1      -4.847  13.069  23.393  0.00  0.00    +0.000 C 
ATOM      9  N   UNL     1      -5.555  14.037  24.218  0.00  0.00    +0.000 N 
ATOM     10  C   UNL     1      -6.844  14.376  23.875  0.00  0.00    +0.000 C 
ATOM     11  O   UNL     1      -7.784  13.601  23.831  0.00  0.00    +0.000 OA
ATOM     12  C   UNL     1      -6.856  15.762  23.310  0.00  0.00    +0.000 C 
ATOM     13  C   UNL     1      -6.329  15.666  21.876  0.00  0.00    +0.000 C 
ATOM     14  C   UNL     1      -4.898  15.075  21.702  0.00  0.00    +0.000 C 
ATOM     15  C   UNL     1      -4.669  13.503  21.873  0.00  0.00    +0.000 C 
ATOM     16  C   UNL     1      -5.758  12.803  21.007  0.00  0.00    +0.000 C 
ATOM     17  C   UNL     1      -3.196  13.151  21.276  0.00  0.00    +0.000 C 
ATOM     18  C   UNL     1      -3.142  12.670  19.808  0.00  0.00    +0.000 C 
ATOM     19  C   UNL     1      -1.686  12.614  19.314  0.00  0.00    +0.000 C 
ATOM     20  C   UNL     1      -0.901  11.468  19.980  0.00  0.00    +0.000 C 
ATOM     21  C   UNL     1      -1.084  10.197  19.101  0.00  0.00    +0.000 C 
ATOM     22  H   UNL     1      -4.977  14.824  24.483  0.00  0.00    +0.000 HD
ENDROOT
BRANCH   1  23
ATOM     23  O   UNL     1       0.851  13.054  20.641  0.00  0.00    +0.000 OA
BRANCH  23  25
ATOM     24  C   UNL     1       2.645  13.521  19.197  0.00  0.00    +0.000 C 
ATOM     25  C   UNL     1       2.136  13.503  20.608  0.00  0.00    +0.000 C 
ATOM     26  O   UNL     1       2.793  13.854  21.573  0.00  0.00    +0.000 OA
ENDBRANCH  23  25
ENDBRANCH   1  23
TORSDOF 2
ENDMDL
MODEL 7
REMARK VINA RESULT:      -5.8      1.982      3.665
REMARK  Name = 
REMARK  5 active torsions:
REMARK  status: ('A' for Active; 'I' for Inactive)
REMARK    1  A    between atoms: C_1  and  C_2
REMARK    2  A    between atoms: C_2  and  O_4
REMARK    3  A    between atoms: O_4  and  C_5
REMARK    4  A    between atoms: C_19  and  C_20
REMARK    5  A    between atoms: C_24  and  C_25
REMARK                            x       y       z     vdW  Elec       q    Type
REMARK                         _______ _______ _______ _____ _____    ______ ____
ROOT
ATOM      1  C   UNL     1       3.260   3.924  18.218  0.00  0.00    +0.000 C 
ATOM      2  C   UNL     1       3.945   4.490  16.971  0.00  0.00    +0.000 C 
ATOM      3  C   UNL     1       3.548   5.956  17.015  0.00  0.00    +0.000 C 
ATOM      4  C   UNL     1       3.481   6.344  18.519  0.00  0.00    +0.000 C 
ATOM      5  C   UNL     1       2.212   7.205  18.780  0.00  0.00    +0.000 C 
ATOM      6  C   UNL     1       2.396   8.550  18.089  0.00  0.00    +0.000 C 
ATOM      7  C   UNL     1       1.205   9.417  18.365  0.00  0.00    +0.000 C 
ATOM      8  C   UNL     1       1.237   9.899  19.806  0.00  0.00    +0.000 C 
ATOM      9  N   UNL     1       0.104  10.809  19.892  0.00  0.00    +0.000 N 
ATOM     10  C   UNL     1      -0.098  11.500  21.064  0.00  0.00    +0.000 C 
ATOM     11  O   UNL     1       0.686  12.298  21.550  0.00  0.00    +0.000 OA
ATOM     12  C   UNL     1      -1.282  10.927  21.778  0.00  0.00    +0.000 C 
ATOM     13  C   UNL     1      -0.822   9.625  22.437  0.00  0.00    +0.000 C 
ATOM     14  C   UNL     1      -0.244   8.534  21.488  0.00  0.00    +0.000 C 
ATOM     15  C   UNL     1       1.219   8.720  20.873  0.00  0.00    +0.000 C 
ATOM     16  C   UNL     1       2.153   9.088  22.064  0.00  0.00    +0.000 C 
ATOM     17  C   UNL     1       1.679   7.287  20.250  0.00  0.00    +0.000 C 
ATOM     18  C   UNL     1       2.531   6.378  21.164  0.00  0.00    +0.000 C 
ATOM     19  C   UNL     1       2.678   4.978  20.543  0.00  0.00    +0.000 C 
ATOM     20  C   UNL     1       3.585   4.999  19.297  0.00  0.00    +0.000 C 
ATOM     21  C   UNL     1       5.048   4.770  19.774  0.00  0.00    +0.000 C 
ATOM     22  H   UNL     1      -0.740  10.422  19.489  0.00  0.00    +0.000 HD
ENDROOT
BRANCH   1  23
ATOM     23  O   UNL     1       1.834   3.862  18.006  0.00  0.00    +0.000 OA
BRANCH  23  25
ATOM     24  C   UNL     1       2.221   1.701  18.843  0.00  0.00    +0.000 C 
ATOM     25  C   UNL     1       1.211   2.724  18.417  0.00  0.00    +0.000 C 
ATOM     26  O   UNL     1       0.005   2.544  18.452  0.00  0.00    +0.000 OA
ENDBRANCH  23  25
ENDBRANCH   1  23
TORSDOF 2
ENDMDL
MODEL 8
REMARK VINA RESULT:      -5.8      4.361      7.485
REMARK  Name = 
REMARK  5 active torsions:
REMARK  status: ('A' for Active; 'I' for Inactive)
REMARK    1  A    between atoms: C_1  and  C_2
REMARK    2  A    between atoms: C_2  and  O_4
REMARK    3  A    between atoms: O_4  and  C_5
REMARK    4  A    between atoms: C_19  and  C_20
REMARK    5  A    between atoms: C_24  and  C_25
REMARK                            x       y       z     vdW  Elec       q    Type
REMARK                         _______ _______ _______ _____ _____    ______ ____
ROOT
ATOM      1  C   UNL     1       0.956  11.246  20.511  0.00  0.00    +0.000 C 
ATOM      2  C   UNL     1       1.130  10.931  19.024  0.00  0.00    +0.000 C 
ATOM      3  C   UNL     1      -0.278  11.111  18.482  0.00  0.00    +0.000 C 
ATOM      4  C   UNL     1      -0.918  12.263  19.307  0.00  0.00    +0.000 C 
ATOM      5  C   UNL     1      -2.377  11.883  19.691  0.00  0.00    +0.000 C 
ATOM      6  C   UNL     1      -3.217  11.866  18.421  0.00  0.00    +0.000 C 
ATOM      7  C   UNL     1      -4.639  11.546  18.771  0.00  0.00    +0.000 C 
ATOM      8  C   UNL     1      -5.286  12.741  19.452  0.00  0.00    +0.000 C 
ATOM      9  N   UNL     1      -6.673  12.334  19.623  0.00  0.00    +0.000 N 
ATOM     10  C   UNL     1      -7.567  13.243  20.138  0.00  0.00    +0.000 C 
ATOM     11  O   UNL     1      -7.858  14.309  19.622  0.00  0.00    +0.000 OA
ATOM     12  C   UNL     1      -7.916  12.853  21.540  0.00  0.00    +0.000 C 
ATOM     13  C   UNL     1      -6.740  13.267  22.427  0.00  0.00    +0.000 C 
ATOM     14  C   UNL     1      -5.354  12.648  22.073  0.00  0.00    +0.000 C 
ATOM     15  C   UNL     1      -4.557  13.181  20.796  0.00  0.00    +0.000 C 
ATOM     16  C   UNL     1      -4.554  14.735  20.895  0.00  0.00    +0.000 C 
ATOM     17  C   UNL     1      -3.028  12.631  20.902  0.00  0.00    +0.000 C 
ATOM     18  C   UNL     1      -1.994  13.585  21.542  0.00  0.00    +0.000 C 
ATOM     19  C   UNL     1      -0.668  12.847  21.797  0.00  0.00    +0.000 C 
ATOM     20  C   UNL     1       0.069  12.526  20.483  0.00  0.00    +0.000 C 
ATOM     21  C   UNL     1       0.987  13.736  20.148  0.00  0.00    +0.000 C 
ATOM     22  H   UNL     1      -6.763  11.402  20.007  0.00  0.00    +0.000 HD
ENDROOT
BRANCH   1  23
ATOM     23  O   UNL     1       0.240  10.172  21.157  0.00  0.00    +0.000 OA
BRANCH  23  25
ATOM     24  C   UNL     1       1.149   8.006  21.200  0.00  0.00    +0.000 C 
ATOM     25  C   UNL     1       0.983   9.316  21.910  0.00  0.00    +0.000 C 
ATOM     26  O   UNL     1       1.465   9.563  23.003  0.00  0.00    +0.000 OA
ENDBRANCH  23  25
ENDBRANCH   1  23
TORSDOF 2
ENDMDL
MODEL 9
REMARK VINA RESULT:      -5.8      5.970      9.664
REMARK  Name = 
REMARK  5 active torsions:
REMARK  status: ('A' for Active; 'I' for Inactive)
REMARK    1  A    between atoms: C_1  and  C_2
REMARK    2  A    between atoms: C_2  and  O_4
REMARK    3  A    between atoms: O_4  and  C_5
REMARK    4  A    between atoms: C_19  and  C_20
REMARK    5  A    between atoms: C_24  and  C_25
REMARK                            x       y       z     vdW  Elec       q    Type
REMARK                         _______ _______ _______ _____ _____    ______ ____
ROOT
ATOM      1  C   UNL     1      -6.232  13.248  22.868  0.00  0.00    +0.000 C 
ATOM      2  C   UNL     1      -5.973  12.697  24.272  0.00  0.00    +0.000 C 
ATOM      3  C   UNL     1      -4.483  12.399  24.240  0.00  0.00    +0.000 C 
ATOM      4  C   UNL     1      -3.841  13.491  23.338  0.00  0.00    +0.000 C 
ATOM      5  C   UNL     1      -2.799  12.837  22.386  0.00  0.00    +0.000 C 
ATOM      6  C   UNL     1      -1.623  12.352  23.224  0.00  0.00    +0.000 C 
ATOM      7  C   UNL     1      -0.584  11.758  22.324  0.00  0.00    +0.000 C 
ATOM      8  C   UNL     1       0.128  12.860  21.555  0.00  0.00    +0.000 C 
ATOM      9  N   UNL     1       1.171  12.155  20.824  0.00  0.00    +0.000 N 
ATOM     10  C   UNL     1       2.070  12.890  20.087  0.00  0.00    +0.000 C 
ATOM     11  O   UNL     1       2.836  13.721  20.544  0.00  0.00    +0.000 OA
ATOM     12  C   UNL     1       1.776  12.713  18.630  0.00  0.00    +0.000 C 
ATOM     13  C   UNL     1       0.557  13.583  18.310  0.00  0.00    +0.000 C 
ATOM     14  C   UNL     1      -0.741  13.280  19.116  0.00  0.00    +0.000 C 
ATOM     15  C   UNL     1      -0.842  13.731  20.645  0.00  0.00    +0.000 C 
ATOM     16  C   UNL     1      -0.395  15.222  20.695  0.00  0.00    +0.000 C 
ATOM     17  C   UNL     1      -2.405  13.621  21.090  0.00  0.00    +0.000 C 
ATOM     18  C   UNL     1      -3.244  14.916  20.990  0.00  0.00    +0.000 C 
ATOM     19  C   UNL     1      -4.736  14.607  21.203  0.00  0.00    +0.000 C 
ATOM     20  C   UNL     1      -5.038  14.227  22.665  0.00  0.00    +0.000 C 
ATOM     21  C   UNL     1      -5.359  15.539  23.437  0.00  0.00    +0.000 C 
ATOM     22  H   UNL     1       0.828  11.327  20.353  0.00  0.00    +0.000 HD
ENDROOT
BRANCH   1  23
ATOM     23  O   UNL     1      -6.154  12.179  21.901  0.00  0.00    +0.000 OA
BRANCH  23  25
ATOM     24  C   UNL     1      -7.913  10.687  21.455  0.00  0.00    +0.000 C 
ATOM     25  C   UNL     1      -7.251  11.990  21.119  0.00  0.00    +0.000 C 
ATOM     26  O   UNL     1      -7.661  12.761  20.268  0.00  0.00    +0.000 OA
ENDBRANCH  23  25
ENDBRANCH   1  23
TORSDOF 2
ENDMDL
