MODEL 1
REMARK VINA RESULT:      -7.4      0.000      0.000
REMARK  Name = 
REMARK  10 active torsions:
REMARK  status: ('A' for Active; 'I' for Inactive)
REMARK    1  A    between atoms: C_1  and  C_2
REMARK    2  A    between atoms: C_2  and  O_3
REMARK    3  A    between atoms: O_3  and  C_4
REMARK    4  A    between atoms: C_6  and  N_7
REMARK    5  A    between atoms: C_8  and  C_10
REMARK    6  A    between atoms: C_13  and  O_14
REMARK    7  A    between atoms: O_14  and  C_15
REMARK    8  A    between atoms: C_15  and  C_16
REMARK    9  A    between atoms: C_18  and  N_19
REMARK   10  A    between atoms: C_20  and  C_22
REMARK                            x       y       z     vdW  Elec       q    Type
REMARK                         _______ _______ _______ _____ _____    ______ ____
ROOT
ATOM      1  C   UNL     1       2.575   5.403  18.306  0.00  0.00    +0.000 A 
ATOM      2  C   UNL     1       3.366   4.738  17.351  0.00  0.00    +0.000 A 
ATOM      3  C   UNL     1       4.556   5.278  16.863  0.00  0.00    +0.000 A 
ATOM      4  C   UNL     1       4.946   6.546  17.312  0.00  0.00    +0.000 A 
ATOM      5  C   UNL     1       4.132   7.246  18.215  0.00  0.00    +0.000 A 
ATOM      6  C   UNL     1       2.941   6.696  18.721  0.00  0.00    +0.000 A 
ENDROOT
BRANCH   3   7
ATOM      7  N   UNL     1       5.410   4.575  15.973  0.00  0.00    +0.000 N 
ATOM      8  C   UNL     1       5.700   4.909  14.664  0.00  0.00    +0.000 C 
ATOM      9  O   UNL     1       5.319   5.911  14.074  0.00  0.00    +0.000 OA
ATOM     10  H   UNL     1       5.843   3.754  16.379  0.00  0.00    +0.000 HD
BRANCH   8  11
ATOM     11  C   UNL     1       6.561   3.969  13.881  0.00  0.00    +0.000 C 
ATOM     12  C   UNL     1       6.190   3.348  12.560  0.00  0.00    +0.000 C 
ATOM     13  C   UNL     1       7.254   4.407  12.612  0.00  0.00    +0.000 C 
ENDBRANCH   8  11
ENDBRANCH   3   7
BRANCH   6  14
ATOM     14  N   UNL     1       2.127   7.394  19.660  0.00  0.00    +0.000 N 
ATOM     15  C   UNL     1       1.425   8.564  19.395  0.00  0.00    +0.000 C 
ATOM     16  O   UNL     1       1.311   9.104  18.296  0.00  0.00    +0.000 OA
ATOM     17  H   UNL     1       1.965   6.905  20.536  0.00  0.00    +0.000 HD
BRANCH  15  18
ATOM     18  C   UNL     1       0.712   9.228  20.520  0.00  0.00    +0.000 A 
ATOM     19  C   UNL     1      -0.012  10.402  20.234  0.00  0.00    +0.000 A 
ATOM     20  C   UNL     1      -0.610  11.144  21.254  0.00  0.00    +0.000 A 
ATOM     21  C   UNL     1      -0.476  10.723  22.573  0.00  0.00    +0.000 A 
ATOM     22  C   UNL     1       0.253   9.569  22.854  0.00  0.00    +0.000 A 
ATOM     23  F   UNL     1       0.407   9.195  24.132  0.00  0.00    +0.000 F 
ATOM     24  C   UNL     1       0.849   8.812  21.845  0.00  0.00    +0.000 A 
ENDBRANCH  15  18
ENDBRANCH   6  14
BRANCH   1  25
ATOM     25  O   UNL     1       1.447   4.830  18.864  0.00  0.00    +0.000 OA
BRANCH  25  27
ATOM     26  C   UNL     1       1.267   3.515  20.893  0.00  0.00    +0.000 C 
ATOM     27  C   UNL     1       1.657   3.525  19.429  0.00  0.00    +0.000 C 
ENDBRANCH  25  27
ENDBRANCH   1  25
BRANCH   4  28
ATOM     28  O   UNL     1       6.129   7.018  16.800  0.00  0.00    +0.000 OA
BRANCH  28  29
ATOM     29  C   UNL     1       7.267   6.999  17.663  0.00  0.00    +0.000 C 
ATOM     30  C   UNL     1       7.840   8.402  17.668  0.00  0.00    +0.000 C 
ENDBRANCH  28  29
ENDBRANCH   4  28
TORSDOF 8
ENDMDL
MODEL 2
REMARK VINA RESULT:      -7.4      0.863      1.254
REMARK  Name = 
REMARK  10 active torsions:
REMARK  status: ('A' for Active; 'I' for Inactive)
REMARK    1  A    between atoms: C_1  and  C_2
REMARK    2  A    between atoms: C_2  and  O_3
REMARK    3  A    between atoms: O_3  and  C_4
REMARK    4  A    between atoms: C_6  and  N_7
REMARK    5  A    between atoms: C_8  and  C_10
REMARK    6  A    between atoms: C_13  and  O_14
REMARK    7  A    between atoms: O_14  and  C_15
REMARK    8  A    between atoms: C_15  and  C_16
REMARK    9  A    between atoms: C_18  and  N_19
REMARK   10  A    between atoms: C_20  and  C_22
REMARK                            x       y       z     vdW  Elec       q    Type
REMARK                         _______ _______ _______ _____ _____    ______ ____
ROOT
ATOM      1  C   UNL     1       2.585   5.436  18.412  0.00  0.00    +0.000 A 
ATOM      2  C   UNL     1       3.331   4.733  17.449  0.00  0.00    +0.000 A 
ATOM      3  C   UNL     1       4.516   5.236  16.912  0.00  0.00    +0.000 A 
ATOM      4  C   UNL     1       4.948   6.505  17.319  0.00  0.00    +0.000 A 
ATOM      5  C   UNL     1       4.178   7.242  18.231  0.00  0.00    +0.000 A 
ATOM      6  C   UNL     1       2.991   6.730  18.786  0.00  0.00    +0.000 A 
ENDROOT
BRANCH   3   7
ATOM      7  N   UNL     1       5.327   4.495  16.011  0.00  0.00    +0.000 N 
ATOM      8  C   UNL     1       5.622   4.819  14.701  0.00  0.00    +0.000 C 
ATOM      9  O   UNL     1       5.287   5.842  14.118  0.00  0.00    +0.000 OA
ATOM     10  H   UNL     1       5.722   3.652  16.411  0.00  0.00    +0.000 HD
BRANCH   8  11
ATOM     11  C   UNL     1       6.429   3.841  13.907  0.00  0.00    +0.000 C 
ATOM     12  C   UNL     1       6.071   3.332  12.536  0.00  0.00    +0.000 C 
ATOM     13  C   UNL     1       7.228   4.274  12.701  0.00  0.00    +0.000 C 
ENDBRANCH   8  11
ENDBRANCH   3   7
BRANCH   6  14
ATOM     14  N   UNL     1       2.222   7.466  19.734  0.00  0.00    +0.000 N 
ATOM     15  C   UNL     1       1.519   8.634  19.459  0.00  0.00    +0.000 C 
ATOM     16  O   UNL     1       1.364   9.138  18.348  0.00  0.00    +0.000 OA
ATOM     17  H   UNL     1       2.093   7.008  20.632  0.00  0.00    +0.000 HD
BRANCH  15  18
ATOM     18  C   UNL     1       0.858   9.341  20.589  0.00  0.00    +0.000 A 
ATOM     19  C   UNL     1       1.042   8.821  21.884  0.00  0.00    +0.000 A 
ATOM     20  C   UNL     1       0.362   9.359  22.978  0.00  0.00    +0.000 A 
ATOM     21  C   UNL     1      -0.520  10.417  22.781  0.00  0.00    +0.000 A 
ATOM     22  C   UNL     1      -0.709  10.921  21.496  0.00  0.00    +0.000 A 
ATOM     23  F   UNL     1      -1.589  11.916  21.313  0.00  0.00    +0.000 F 
ATOM     24  C   UNL     1      -0.031  10.399  20.394  0.00  0.00    +0.000 A 
ENDBRANCH  15  18
ENDBRANCH   6  14
BRANCH   1  25
ATOM     25  O   UNL     1       1.463   4.901  19.018  0.00  0.00    +0.000 OA
BRANCH  25  27
ATOM     26  C   UNL     1       1.135   2.935  20.398  0.00  0.00    +0.000 C 
ATOM     27  C   UNL     1       1.405   3.465  19.005  0.00  0.00    +0.000 C 
ENDBRANCH  25  27
ENDBRANCH   1  25
BRANCH   4  28
ATOM     28  O   UNL     1       6.123   6.939  16.760  0.00  0.00    +0.000 OA
BRANCH  28  29
ATOM     29  C   UNL     1       7.287   6.915  17.588  0.00  0.00    +0.000 C 
ATOM     30  C   UNL     1       7.804   8.338  17.663  0.00  0.00    +0.000 C 
ENDBRANCH  28  29
ENDBRANCH   4  28
TORSDOF 8
ENDMDL
MODEL 3
REMARK VINA RESULT:      -7.3      3.020      8.674
REMARK  Name = 
REMARK  10 active torsions:
REMARK  status: ('A' for Active; 'I' for Inactive)
REMARK    1  A    between atoms: C_1  and  C_2
REMARK    2  A    between atoms: C_2  and  O_3
REMARK    3  A    between atoms: O_3  and  C_4
REMARK    4  A    between atoms: C_6  and  N_7
REMARK    5  A    between atoms: C_8  and  C_10
REMARK    6  A    between atoms: C_13  and  O_14
REMARK    7  A    between atoms: O_14  and  C_15
REMARK    8  A    between atoms: C_15  and  C_16
REMARK    9  A    between atoms: C_18  and  N_19
REMARK   10  A    between atoms: C_20  and  C_22
REMARK                            x       y       z     vdW  Elec       q    Type
REMARK                         _______ _______ _______ _____ _____    ______ ____
ROOT
ATOM      1  C   UNL     1       2.365   6.844  19.815  0.00  0.00    +0.000 A 
ATOM      2  C   UNL     1       1.575   7.669  20.635  0.00  0.00    +0.000 A 
ATOM      3  C   UNL     1       0.934   8.809  20.148  0.00  0.00    +0.000 A 
ATOM      4  C   UNL     1       1.126   9.160  18.806  0.00  0.00    +0.000 A 
ATOM      5  C   UNL     1       1.964   8.380  17.995  0.00  0.00    +0.000 A 
ATOM      6  C   UNL     1       2.598   7.222  18.480  0.00  0.00    +0.000 A 
ENDROOT
BRANCH   3   7
ATOM      7  N   UNL     1       0.057   9.595  20.942  0.00  0.00    +0.000 N 
ATOM      8  C   UNL     1       0.350  10.795  21.562  0.00  0.00    +0.000 C 
ATOM      9  O   UNL     1       1.401  11.416  21.470  0.00  0.00    +0.000 OA
ATOM     10  H   UNL     1      -0.875   9.209  21.031  0.00  0.00    +0.000 HD
BRANCH   8  11
ATOM     11  C   UNL     1      -0.706  11.407  22.426  0.00  0.00    +0.000 C 
ATOM     12  C   UNL     1      -0.879  12.882  22.672  0.00  0.00    +0.000 C 
ATOM     13  C   UNL     1      -1.881  12.147  21.831  0.00  0.00    +0.000 C 
ENDBRANCH   8  11
ENDBRANCH   3   7
BRANCH   6  14
ATOM     14  N   UNL     1       3.428   6.412  17.650  0.00  0.00    +0.000 N 
ATOM     15  C   UNL     1       4.752   6.688  17.332  0.00  0.00    +0.000 C 
ATOM     16  O   UNL     1       5.433   7.599  17.803  0.00  0.00    +0.000 OA
ATOM     17  H   UNL     1       3.033   5.511  17.396  0.00  0.00    +0.000 HD
BRANCH  15  18
ATOM     18  C   UNL     1       5.444   5.799  16.360  0.00  0.00    +0.000 A 
ATOM     19  C   UNL     1       6.844   5.683  16.461  0.00  0.00    +0.000 A 
ATOM     20  C   UNL     1       7.575   4.962  15.515  0.00  0.00    +0.000 A 
ATOM     21  C   UNL     1       6.910   4.360  14.452  0.00  0.00    +0.000 A 
ATOM     22  C   UNL     1       5.526   4.488  14.348  0.00  0.00    +0.000 A 
ATOM     23  F   UNL     1       4.901   3.936  13.298  0.00  0.00    +0.000 F 
ATOM     24  C   UNL     1       4.781   5.199  15.289  0.00  0.00    +0.000 A 
ENDBRANCH  15  18
ENDBRANCH   6  14
BRANCH   1  25
ATOM     25  O   UNL     1       2.922   5.662  20.268  0.00  0.00    +0.000 OA
BRANCH  25  27
ATOM     26  C   UNL     1       1.160   4.012  20.050  0.00  0.00    +0.000 C 
ATOM     27  C   UNL     1       2.019   4.818  21.001  0.00  0.00    +0.000 C 
ENDBRANCH  25  27
ENDBRANCH   1  25
BRANCH   4  28
ATOM     28  O   UNL     1       0.464  10.287  18.387  0.00  0.00    +0.000 OA
BRANCH  28  29
ATOM     29  C   UNL     1      -0.740  10.096  17.644  0.00  0.00    +0.000 C 
ATOM     30  C   UNL     1      -1.808  10.942  18.310  0.00  0.00    +0.000 C 
ENDBRANCH  28  29
ENDBRANCH   4  28
TORSDOF 8
ENDMDL
MODEL 4
REMARK VINA RESULT:      -7.2      2.323      4.643
REMARK  Name = 
REMARK  10 active torsions:
REMARK  status: ('A' for Active; 'I' for Inactive)
REMARK    1  A    between atoms: C_1  and  C_2
REMARK    2  A    between atoms: C_2  and  O_3
REMARK    3  A    between atoms: O_3  and  C_4
REMARK    4  A    between atoms: C_6  and  N_7
REMARK    5  A    between atoms: C_8  and  C_10
REMARK    6  A    between atoms: C_13  and  O_14
REMARK    7  A    between atoms: O_14  and  C_15
REMARK    8  A    between atoms: C_15  and  C_16
REMARK    9  A    between atoms: C_18  and  N_19
REMARK   10  A    between atoms: C_20  and  C_22
REMARK                            x       y       z     vdW  Elec       q    Type
REMARK                         _______ _______ _______ _____ _____    ______ ____
ROOT
ATOM      1  C   UNL     1       1.936   8.930  18.346  0.00  0.00    +0.000 A 
ATOM      2  C   UNL     1       2.891   8.005  17.887  0.00  0.00    +0.000 A 
ATOM      3  C   UNL     1       3.137   6.801  18.546  0.00  0.00    +0.000 A 
ATOM      4  C   UNL     1       2.437   6.531  19.729  0.00  0.00    +0.000 A 
ATOM      5  C   UNL     1       1.529   7.476  20.231  0.00  0.00    +0.000 A 
ATOM      6  C   UNL     1       1.268   8.683  19.559  0.00  0.00    +0.000 A 
ENDROOT
BRANCH   3   7
ATOM      7  N   UNL     1       4.028   5.816  18.040  0.00  0.00    +0.000 N 
ATOM      8  C   UNL     1       5.196   6.038  17.335  0.00  0.00    +0.000 C 
ATOM      9  O   UNL     1       5.694   7.129  17.090  0.00  0.00    +0.000 OA
ATOM     10  H   UNL     1       3.751   4.864  18.246  0.00  0.00    +0.000 HD
BRANCH   8  11
ATOM     11  C   UNL     1       5.935   4.844  16.820  0.00  0.00    +0.000 C 
ATOM     12  C   UNL     1       7.086   4.887  15.851  0.00  0.00    +0.000 C 
ATOM     13  C   UNL     1       7.335   4.522  17.286  0.00  0.00    +0.000 C 
ENDBRANCH   8  11
ENDBRANCH   3   7
BRANCH   6  14
ATOM     14  N   UNL     1       0.325   9.632  20.053  0.00  0.00    +0.000 N 
ATOM     15  C   UNL     1       0.464  10.360  21.229  0.00  0.00    +0.000 C 
ATOM     16  O   UNL     1       1.459  10.378  21.953  0.00  0.00    +0.000 OA
ATOM     17  H   UNL     1      -0.428   9.865  19.411  0.00  0.00    +0.000 HD
BRANCH  15  18
ATOM     18  C   UNL     1      -0.666  11.227  21.660  0.00  0.00    +0.000 A 
ATOM     19  C   UNL     1      -1.162  11.055  22.966  0.00  0.00    +0.000 A 
ATOM     20  C   UNL     1      -2.292  11.749  23.402  0.00  0.00    +0.000 A 
ATOM     21  C   UNL     1      -2.944  12.612  22.528  0.00  0.00    +0.000 A 
ATOM     22  C   UNL     1      -2.458  12.770  21.231  0.00  0.00    +0.000 A 
ATOM     23  F   UNL     1      -3.116  13.575  20.385  0.00  0.00    +0.000 F 
ATOM     24  C   UNL     1      -1.325  12.090  20.783  0.00  0.00    +0.000 A 
ENDBRANCH  15  18
ENDBRANCH   6  14
BRANCH   1  25
ATOM     25  O   UNL     1       1.619  10.079  17.645  0.00  0.00    +0.000 OA
BRANCH  25  27
ATOM     26  C   UNL     1       1.847  12.359  18.437  0.00  0.00    +0.000 C 
ATOM     27  C   UNL     1       2.545  11.163  17.825  0.00  0.00    +0.000 C 
ENDBRANCH  25  27
ENDBRANCH   1  25
BRANCH   4  28
ATOM     28  O   UNL     1       2.720   5.328  20.325  0.00  0.00    +0.000 OA
BRANCH  28  29
ATOM     29  C   UNL     1       1.620   4.593  20.863  0.00  0.00    +0.000 C 
ATOM     30  C   UNL     1       1.231   3.558  19.827  0.00  0.00    +0.000 C 
ENDBRANCH  28  29
ENDBRANCH   4  28
TORSDOF 8
ENDMDL
MODEL 5
REMARK VINA RESULT:      -7.2      3.125      9.038
REMARK  Name = 
REMARK  10 active torsions:
REMARK  status: ('A' for Active; 'I' for Inactive)
REMARK    1  A    between atoms: C_1  and  C_2
REMARK    2  A    between atoms: C_2  and  O_3
REMARK    3  A    between atoms: O_3  and  C_4
REMARK    4  A    between atoms: C_6  and  N_7
REMARK    5  A    between atoms: C_8  and  C_10
REMARK    6  A    between atoms: C_13  and  O_14
REMARK    7  A    between atoms: O_14  and  C_15
REMARK    8  A    between atoms: C_15  and  C_16
REMARK    9  A    between atoms: C_18  and  N_19
REMARK   10  A    between atoms: C_20  and  C_22
REMARK                            x       y       z     vdW  Elec       q    Type
REMARK                         _______ _______ _______ _____ _____    ______ ____
ROOT
ATOM      1  C   UNL     1       4.780   6.091  17.908  0.00  0.00    +0.000 A 
ATOM      2  C   UNL     1       4.071   6.660  18.981  0.00  0.00    +0.000 A 
ATOM      3  C   UNL     1       2.843   6.159  19.412  0.00  0.00    +0.000 A 
ATOM      4  C   UNL     1       2.284   5.078  18.719  0.00  0.00    +0.000 A 
ATOM      5  C   UNL     1       2.952   4.543  17.607  0.00  0.00    +0.000 A 
ATOM      6  C   UNL     1       4.197   5.038  17.181  0.00  0.00    +0.000 A 
ENDROOT
BRANCH   3   7
ATOM      7  N   UNL     1       2.165   6.664  20.554  0.00  0.00    +0.000 N 
ATOM      8  C   UNL     1       1.528   7.885  20.667  0.00  0.00    +0.000 C 
ATOM      9  O   UNL     1       1.385   8.710  19.774  0.00  0.00    +0.000 OA
ATOM     10  H   UNL     1       2.158   6.029  21.343  0.00  0.00    +0.000 HD
BRANCH   8  11
ATOM     11  C   UNL     1       0.953   8.248  22.000  0.00  0.00    +0.000 C 
ATOM     12  C   UNL     1       0.577   9.640  22.432  0.00  0.00    +0.000 C 
ATOM     13  C   UNL     1      -0.500   8.632  22.153  0.00  0.00    +0.000 C 
ENDBRANCH   8  11
ENDBRANCH   3   7
BRANCH   6  14
ATOM     14  N   UNL     1       4.891   4.477  16.069  0.00  0.00    +0.000 N 
ATOM     15  C   UNL     1       5.301   5.184  14.944  0.00  0.00    +0.000 C 
ATOM     16  O   UNL     1       5.229   6.403  14.792  0.00  0.00    +0.000 OA
ATOM     17  H   UNL     1       5.208   3.520  16.196  0.00  0.00    +0.000 HD
BRANCH  15  18
ATOM     18  C   UNL     1       5.915   4.426  13.820  0.00  0.00    +0.000 A 
ATOM     19  C   UNL     1       7.153   4.878  13.325  0.00  0.00    +0.000 A 
ATOM     20  C   UNL     1       7.734   4.292  12.199  0.00  0.00    +0.000 A 
ATOM     21  C   UNL     1       7.072   3.254  11.551  0.00  0.00    +0.000 A 
ATOM     22  C   UNL     1       5.840   2.818  12.036  0.00  0.00    +0.000 A 
ATOM     23  F   UNL     1       5.194   1.844  11.380  0.00  0.00    +0.000 F 
ATOM     24  C   UNL     1       5.250   3.389  13.164  0.00  0.00    +0.000 A 
ENDBRANCH  15  18
ENDBRANCH   6  14
BRANCH   1  25
ATOM     25  O   UNL     1       6.041   6.523  17.539  0.00  0.00    +0.000 OA
BRANCH  25  27
ATOM     26  C   UNL     1       8.153   7.169  18.539  0.00  0.00    +0.000 C 
ATOM     27  C   UNL     1       7.100   6.088  18.409  0.00  0.00    +0.000 C 
ENDBRANCH  25  27
ENDBRANCH   1  25
BRANCH   4  28
ATOM     28  O   UNL     1       1.078   4.627  19.196  0.00  0.00    +0.000 OA
BRANCH  28  29
ATOM     29  C   UNL     1       0.991   3.244  19.543  0.00  0.00    +0.000 C 
ATOM     30  C   UNL     1       1.275   3.143  21.028  0.00  0.00    +0.000 C 
ENDBRANCH  28  29
ENDBRANCH   4  28
TORSDOF 8
ENDMDL
MODEL 6
REMARK VINA RESULT:      -7.2      2.191      4.583
REMARK  Name = 
REMARK  10 active torsions:
REMARK  status: ('A' for Active; 'I' for Inactive)
REMARK    1  A    between atoms: C_1  and  C_2
REMARK    2  A    between atoms: C_2  and  O_3
REMARK    3  A    between atoms: O_3  and  C_4
REMARK    4  A    between atoms: C_6  and  N_7
REMARK    5  A    between atoms: C_8  and  C_10
REMARK    6  A    between atoms: C_13  and  O_14
REMARK    7  A    between atoms: O_14  and  C_15
REMARK    8  A    between atoms: C_15  and  C_16
REMARK    9  A    between atoms: C_18  and  N_19
REMARK   10  A    between atoms: C_20  and  C_22
REMARK                            x       y       z     vdW  Elec       q    Type
REMARK                         _______ _______ _______ _____ _____    ______ ____
ROOT
ATOM      1  C   UNL     1       1.724   9.057  18.531  0.00  0.00    +0.000 A 
ATOM      2  C   UNL     1       2.529   8.039  17.989  0.00  0.00    +0.000 A 
ATOM      3  C   UNL     1       2.739   6.826  18.644  0.00  0.00    +0.000 A 
ATOM      4  C   UNL     1       2.159   6.640  19.906  0.00  0.00    +0.000 A 
ATOM      5  C   UNL     1       1.407   7.674  20.485  0.00  0.00    +0.000 A 
ATOM      6  C   UNL     1       1.182   8.891  19.818  0.00  0.00    +0.000 A 
ENDROOT
BRANCH   3   7
ATOM      7  N   UNL     1       3.471   5.755  18.064  0.00  0.00    +0.000 N 
ATOM      8  C   UNL     1       4.359   5.833  17.009  0.00  0.00    +0.000 C 
ATOM      9  O   UNL     1       4.717   6.857  16.441  0.00  0.00    +0.000 OA
ATOM     10  H   UNL     1       3.305   4.858  18.504  0.00  0.00    +0.000 HD
BRANCH   8  11
ATOM     11  C   UNL     1       4.950   4.556  16.502  0.00  0.00    +0.000 C 
ATOM     12  C   UNL     1       5.724   4.407  15.219  0.00  0.00    +0.000 C 
ATOM     13  C   UNL     1       6.441   4.311  16.535  0.00  0.00    +0.000 C 
ENDBRANCH   8  11
ENDBRANCH   3   7
BRANCH   6  14
ATOM     14  N   UNL     1       0.394   9.932  20.393  0.00  0.00    +0.000 N 
ATOM     15  C   UNL     1       0.456  10.340  21.721  0.00  0.00    +0.000 C 
ATOM     16  O   UNL     1       1.267   9.949  22.559  0.00  0.00    +0.000 OA
ATOM     17  H   UNL     1      -0.145  10.480  19.730  0.00  0.00    +0.000 HD
BRANCH  15  18
ATOM     18  C   UNL     1      -0.515  11.365  22.189  0.00  0.00    +0.000 A 
ATOM     19  C   UNL     1      -0.207  12.718  21.946  0.00  0.00    +0.000 A 
ATOM     20  C   UNL     1      -1.010  13.740  22.456  0.00  0.00    +0.000 A 
ATOM     21  C   UNL     1      -2.122  13.416  23.225  0.00  0.00    +0.000 A 
ATOM     22  C   UNL     1      -2.417  12.077  23.475  0.00  0.00    +0.000 A 
ATOM     23  F   UNL     1      -3.469  11.778  24.249  0.00  0.00    +0.000 F 
ATOM     24  C   UNL     1      -1.629  11.044  22.966  0.00  0.00    +0.000 A 
ENDBRANCH  15  18
ENDBRANCH   6  14
BRANCH   1  25
ATOM     25  O   UNL     1       1.435  10.221  17.843  0.00  0.00    +0.000 OA
BRANCH  25  27
ATOM     26  C   UNL     1       1.929  12.484  18.559  0.00  0.00    +0.000 C 
ATOM     27  C   UNL     1       2.462  11.224  17.908  0.00  0.00    +0.000 C 
ENDBRANCH  25  27
ENDBRANCH   1  25
BRANCH   4  28
ATOM     28  O   UNL     1       2.398   5.424  20.495  0.00  0.00    +0.000 OA
BRANCH  28  29
ATOM     29  C   UNL     1       1.293   4.525  20.602  0.00  0.00    +0.000 C 
ATOM     30  C   UNL     1       1.778   3.322  21.386  0.00  0.00    +0.000 C 
ENDBRANCH  28  29
ENDBRANCH   4  28
TORSDOF 8
ENDMDL
MODEL 7
REMARK VINA RESULT:      -7.1      4.128      9.832
REMARK  Name = 
REMARK  10 active torsions:
REMARK  status: ('A' for Active; 'I' for Inactive)
REMARK    1  A    between atoms: C_1  and  C_2
REMARK    2  A    between atoms: C_2  and  O_3
REMARK    3  A    between atoms: O_3  and  C_4
REMARK    4  A    between atoms: C_6  and  N_7
REMARK    5  A    between atoms: C_8  and  C_10
REMARK    6  A    between atoms: C_13  and  O_14
REMARK    7  A    between atoms: O_14  and  C_15
REMARK    8  A    between atoms: C_15  and  C_16
REMARK    9  A    between atoms: C_18  and  N_19
REMARK   10  A    between atoms: C_20  and  C_22
REMARK                            x       y       z     vdW  Elec       q    Type
REMARK                         _______ _______ _______ _____ _____    ______ ____
ROOT
ATOM      1  C   UNL     1      -0.671  11.002  20.272  0.00  0.00    +0.000 A 
ATOM      2  C   UNL     1      -1.691  11.965  20.184  0.00  0.00    +0.000 A 
ATOM      3  C   UNL     1      -2.638  11.956  19.160  0.00  0.00    +0.000 A 
ATOM      4  C   UNL     1      -2.535  10.977  18.164  0.00  0.00    +0.000 A 
ATOM      5  C   UNL     1      -1.482  10.050  18.206  0.00  0.00    +0.000 A 
ATOM      6  C   UNL     1      -0.536  10.048  19.247  0.00  0.00    +0.000 A 
ENDROOT
BRANCH   3   7
ATOM      7  N   UNL     1      -3.729  12.865  19.114  0.00  0.00    +0.000 N 
ATOM      8  C   UNL     1      -4.847  12.861  19.926  0.00  0.00    +0.000 C 
ATOM      9  O   UNL     1      -5.049  12.109  20.871  0.00  0.00    +0.000 OA
ATOM     10  H   UNL     1      -3.637  13.584  18.406  0.00  0.00    +0.000 HD
BRANCH   8  11
ATOM     11  C   UNL     1      -5.919  13.864  19.639  0.00  0.00    +0.000 C 
ATOM     12  C   UNL     1      -7.095  14.156  20.532  0.00  0.00    +0.000 C 
ATOM     13  C   UNL     1      -5.997  15.171  20.393  0.00  0.00    +0.000 C 
ENDBRANCH   8  11
ENDBRANCH   3   7
BRANCH   6  14
ATOM     14  N   UNL     1       0.518   9.089  19.306  0.00  0.00    +0.000 N 
ATOM     15  C   UNL     1       1.570   9.001  18.402  0.00  0.00    +0.000 C 
ATOM     16  O   UNL     1       1.810   9.796  17.494  0.00  0.00    +0.000 OA
ATOM     17  H   UNL     1       0.543   8.529  20.154  0.00  0.00    +0.000 HD
BRANCH  15  18
ATOM     18  C   UNL     1       2.527   7.871  18.542  0.00  0.00    +0.000 A 
ATOM     19  C   UNL     1       3.481   7.690  17.522  0.00  0.00    +0.000 A 
ATOM     20  C   UNL     1       4.335   6.586  17.524  0.00  0.00    +0.000 A 
ATOM     21  C   UNL     1       4.232   5.645  18.543  0.00  0.00    +0.000 A 
ATOM     22  C   UNL     1       3.278   5.819  19.544  0.00  0.00    +0.000 A 
ATOM     23  F   UNL     1       3.163   4.886  20.500  0.00  0.00    +0.000 F 
ATOM     24  C   UNL     1       2.423   6.921  19.560  0.00  0.00    +0.000 A 
ENDBRANCH  15  18
ENDBRANCH   6  14
BRANCH   1  25
ATOM     25  O   UNL     1       0.210  10.948  21.336  0.00  0.00    +0.000 OA
BRANCH  25  27
ATOM     26  C   UNL     1      -0.115   9.468  23.228  0.00  0.00    +0.000 C 
ATOM     27  C   UNL     1      -0.416  10.823  22.624  0.00  0.00    +0.000 C 
ENDBRANCH  25  27
ENDBRANCH   1  25
BRANCH   4  28
ATOM     28  O   UNL     1      -3.499  11.018  17.189  0.00  0.00    +0.000 OA
BRANCH  28  29
ATOM     29  C   UNL     1      -3.062  11.258  15.850  0.00  0.00    +0.000 C 
ATOM     30  C   UNL     1      -3.455  10.043  15.034  0.00  0.00    +0.000 C 
ENDBRANCH  28  29
ENDBRANCH   4  28
TORSDOF 8
ENDMDL
MODEL 8
REMARK VINA RESULT:      -7.1      3.962      9.781
REMARK  Name = 
REMARK  10 active torsions:
REMARK  status: ('A' for Active; 'I' for Inactive)
REMARK    1  A    between atoms: C_1  and  C_2
REMARK    2  A    between atoms: C_2  and  O_3
REMARK    3  A    between atoms: O_3  and  C_4
REMARK    4  A    between atoms: C_6  and  N_7
REMARK    5  A    between atoms: C_8  and  C_10
REMARK    6  A    between atoms: C_13  and  O_14
REMARK    7  A    between atoms: O_14  and  C_15
REMARK    8  A    between atoms: C_15  and  C_16
REMARK    9  A    between atoms: C_18  and  N_19
REMARK   10  A    between atoms: C_20  and  C_22
REMARK                            x       y       z     vdW  Elec       q    Type
REMARK                         _______ _______ _______ _____ _____    ______ ____
ROOT
ATOM      1  C   UNL     1       0.172  10.919  20.619  0.00  0.00    +0.000 A 
ATOM      2  C   UNL     1      -0.731  11.995  20.684  0.00  0.00    +0.000 A 
ATOM      3  C   UNL     1      -1.728  12.190  19.728  0.00  0.00    +0.000 A 
ATOM      4  C   UNL     1      -1.797  11.304  18.646  0.00  0.00    +0.000 A 
ATOM      5  C   UNL     1      -0.860  10.265  18.536  0.00  0.00    +0.000 A 
ATOM      6  C   UNL     1       0.135  10.058  19.507  0.00  0.00    +0.000 A 
ENDROOT
BRANCH   3   7
ATOM      7  N   UNL     1      -2.705  13.216  19.836  0.00  0.00    +0.000 N 
ATOM      8  C   UNL     1      -3.732  13.290  20.756  0.00  0.00    +0.000 C 
ATOM      9  O   UNL     1      -3.929  12.514  21.682  0.00  0.00    +0.000 OA
ATOM     10  H   UNL     1      -2.598  13.959  19.155  0.00  0.00    +0.000 HD
BRANCH   8  11
ATOM     11  C   UNL     1      -4.702  14.422  20.626  0.00  0.00    +0.000 C 
ATOM     12  C   UNL     1      -5.407  15.097  21.772  0.00  0.00    +0.000 C 
ATOM     13  C   UNL     1      -4.329  15.830  21.026  0.00  0.00    +0.000 C 
ENDBRANCH   8  11
ENDBRANCH   3   7
BRANCH   6  14
ATOM     14  N   UNL     1       1.070   8.985  19.412  0.00  0.00    +0.000 N 
ATOM     15  C   UNL     1       1.914   8.755  18.332  0.00  0.00    +0.000 C 
ATOM     16  O   UNL     1       2.061   9.494  17.360  0.00  0.00    +0.000 OA
ATOM     17  H   UNL     1       1.195   8.447  20.264  0.00  0.00    +0.000 HD
BRANCH  15  18
ATOM     18  C   UNL     1       2.752   7.524  18.342  0.00  0.00    +0.000 A 
ATOM     19  C   UNL     1       2.591   6.632  19.418  0.00  0.00    +0.000 A 
ATOM     20  C   UNL     1       3.420   5.517  19.558  0.00  0.00    +0.000 A 
ATOM     21  C   UNL     1       4.427   5.295  18.625  0.00  0.00    +0.000 A 
ATOM     22  C   UNL     1       4.593   6.188  17.568  0.00  0.00    +0.000 A 
ATOM     23  F   UNL     1       5.591   5.983  16.697  0.00  0.00    +0.000 F 
ATOM     24  C   UNL     1       3.768   7.301  17.411  0.00  0.00    +0.000 A 
ENDBRANCH  15  18
ENDBRANCH   6  14
BRANCH   1  25
ATOM     25  O   UNL     1       1.099  10.665  21.613  0.00  0.00    +0.000 OA
BRANCH  25  27
ATOM     26  C   UNL     1      -0.355   9.657  23.270  0.00  0.00    +0.000 C 
ATOM     27  C   UNL     1       0.849   9.470  22.371  0.00  0.00    +0.000 C 
ENDBRANCH  25  27
ENDBRANCH   1  25
BRANCH   4  28
ATOM     28  O   UNL     1      -2.803  11.546  17.744  0.00  0.00    +0.000 OA
BRANCH  28  29
ATOM     29  C   UNL     1      -3.224  10.452  16.929  0.00  0.00    +0.000 C 
ATOM     30  C   UNL     1      -2.934  10.836  15.492  0.00  0.00    +0.000 C 
ENDBRANCH  28  29
ENDBRANCH   4  28
TORSDOF 8
ENDMDL
MODEL 9
REMARK VINA RESULT:      -7.1      3.262      5.008
REMARK  Name = 
REMARK  10 active torsions:
REMARK  status: ('A' for Active; 'I' for Inactive)
REMARK    1  A    between atoms: C_1  and  C_2
REMARK    2  A    between atoms: C_2  and  O_3
REMARK    3  A    between atoms: O_3  and  C_4
REMARK    4  A    between atoms: C_6  and  N_7
REMARK    5  A    between atoms: C_8  and  C_10
REMARK    6  A    between atoms: C_13  and  O_14
REMARK    7  A    between atoms: O_14  and  C_15
REMARK    8  A    between atoms: C_15  and  C_16
REMARK    9  A    between atoms: C_18  and  N_19
REMARK   10  A    between atoms: C_20  and  C_22
REMARK                            x       y       z     vdW  Elec       q    Type
REMARK                         _______ _______ _______ _____ _____    ______ ____
ROOT
ATOM      1  C   UNL     1       1.653   8.923  18.730  0.00  0.00    +0.000 A 
ATOM      2  C   UNL     1       2.255   7.804  18.127  0.00  0.00    +0.000 A 
ATOM      3  C   UNL     1       2.480   6.615  18.820  0.00  0.00    +0.000 A 
ATOM      4  C   UNL     1       2.131   6.556  20.176  0.00  0.00    +0.000 A 
ATOM      5  C   UNL     1       1.589   7.687  20.804  0.00  0.00    +0.000 A 
ATOM      6  C   UNL     1       1.347   8.882  20.102  0.00  0.00    +0.000 A 
ENDROOT
BRANCH   3   7
ATOM      7  N   UNL     1       2.998   5.448  18.197  0.00  0.00    +0.000 N 
ATOM      8  C   UNL     1       2.276   4.454  17.565  0.00  0.00    +0.000 C 
ATOM      9  O   UNL     1       1.066   4.450  17.377  0.00  0.00    +0.000 OA
ATOM     10  H   UNL     1       4.008   5.378  18.230  0.00  0.00    +0.000 HD
BRANCH   8  11
ATOM     11  C   UNL     1       3.027   3.265  17.056  0.00  0.00    +0.000 C 
ATOM     12  C   UNL     1       4.398   2.843  17.514  0.00  0.00    +0.000 C 
ATOM     13  C   UNL     1       3.200   2.022  17.897  0.00  0.00    +0.000 C 
ENDBRANCH   8  11
ENDBRANCH   3   7
BRANCH   6  14
ATOM     14  N   UNL     1       0.770  10.024  20.732  0.00  0.00    +0.000 N 
ATOM     15  C   UNL     1      -0.233   9.984  21.694  0.00  0.00    +0.000 C 
ATOM     16  O   UNL     1      -0.688   8.970  22.222  0.00  0.00    +0.000 OA
ATOM     17  H   UNL     1       1.238  10.904  20.538  0.00  0.00    +0.000 HD
BRANCH  15  18
ATOM     18  C   UNL     1      -0.804  11.273  22.170  0.00  0.00    +0.000 A 
ATOM     19  C   UNL     1      -0.119  12.457  21.834  0.00  0.00    +0.000 A 
ATOM     20  C   UNL     1      -0.528  13.692  22.340  0.00  0.00    +0.000 A 
ATOM     21  C   UNL     1      -1.620  13.750  23.199  0.00  0.00    +0.000 A 
ATOM     22  C   UNL     1      -2.287  12.575  23.541  0.00  0.00    +0.000 A 
ATOM     23  F   UNL     1      -3.314  12.640  24.400  0.00  0.00    +0.000 F 
ATOM     24  C   UNL     1      -1.896  11.335  23.037  0.00  0.00    +0.000 A 
ENDBRANCH  15  18
ENDBRANCH   6  14
BRANCH   1  25
ATOM     25  O   UNL     1       1.340  10.069  18.023  0.00  0.00    +0.000 OA
BRANCH  25  27
ATOM     26  C   UNL     1       2.122  12.328  18.422  0.00  0.00    +0.000 C 
ATOM     27  C   UNL     1       2.442  10.971  17.830  0.00  0.00    +0.000 C 
ENDBRANCH  25  27
ENDBRANCH   1  25
BRANCH   4  28
ATOM     28  O   UNL     1       2.371   5.357  20.799  0.00  0.00    +0.000 OA
BRANCH  28  29
ATOM     29  C   UNL     1       1.270   4.455  20.922  0.00  0.00    +0.000 C 
ATOM     30  C   UNL     1       1.852   3.086  21.209  0.00  0.00    +0.000 C 
ENDBRANCH  28  29
ENDBRANCH   4  28
TORSDOF 8
ENDMDL
