MODEL 1
REMARK VINA RESULT:      -7.7      0.000      0.000
REMARK  Name = 
REMARK  4 active torsions:
REMARK  status: ('A' for Active; 'I' for Inactive)
REMARK    1  A    between atoms: C_2  and  C_13
REMARK    2  A    between atoms: N_3  and  C_4
REMARK    3  A    between atoms: C_4  and  C_5
REMARK    4  A    between atoms: C_16  and  C_17
REMARK                            x       y       z     vdW  Elec       q    Type
REMARK                         _______ _______ _______ _____ _____    ______ ____
ROOT
ATOM      1  O   UNL     1       5.748   4.957  16.334  0.00  0.00    +0.000 OA
ATOM      2  C   UNL     1       5.965   5.260  17.499  0.00  0.00    +0.000 C 
ATOM      3  N   UNL     1       5.467   4.573  18.580  0.00  0.00    +0.000 N 
ATOM      4  H   UNL     1       5.506   4.994  19.501  0.00  0.00    +0.000 HD
ENDROOT
BRANCH   2   5
ATOM      5  C   UNL     1       6.776   6.446  17.810  0.00  0.00    +0.000 A 
ATOM      6  C   UNL     1       6.562   7.635  17.155  0.00  0.00    +0.000 A 
ATOM      7  N   UNL     1       7.277   8.757  17.398  0.00  0.00    +0.000 NA
ATOM      8  C   UNL     1       8.260   8.666  18.319  0.00  0.00    +0.000 A 
ATOM      9  N   UNL     1       8.553   7.539  19.003  0.00  0.00    +0.000 NA
ATOM     10  C   UNL     1       7.804   6.450  18.726  0.00  0.00    +0.000 A 
BRANCH   8  11
ATOM     11  C   UNL     1       9.066   9.861  18.584  0.00  0.00    +0.000 A 
ATOM     12  C   UNL     1       9.617  10.640  17.554  0.00  0.00    +0.000 A 
ATOM     13  C   UNL     1      10.379  11.769  17.846  0.00  0.00    +0.000 A 
ATOM     14  C   UNL     1      10.580  12.098  19.174  0.00  0.00    +0.000 A 
ATOM     15  N   UNL     1      10.076  11.388  20.203  0.00  0.00    +0.000 NA
ATOM     16  C   UNL     1       9.337  10.295  19.882  0.00  0.00    +0.000 A 
ENDBRANCH   8  11
ENDBRANCH   2   5
BRANCH   3  17
ATOM     17  C   UNL     1       4.622   3.410  18.412  0.00  0.00    +0.000 C 
BRANCH  17  18
ATOM     18  C   UNL     1       3.477   3.300  19.392  0.00  0.00    +0.000 A 
ATOM     19  C   UNL     1       3.564   2.573  20.587  0.00  0.00    +0.000 A 
ATOM     20  F   UNL     1       4.701   1.939  20.918  0.00  0.00    +0.000 F 
ATOM     21  C   UNL     1       2.500   2.478  21.484  0.00  0.00    +0.000 A 
ATOM     22  C   UNL     1       1.301   3.120  21.203  0.00  0.00    +0.000 A 
ATOM     23  C   UNL     1       1.180   3.855  20.026  0.00  0.00    +0.000 A 
ATOM     24  C   UNL     1       2.255   3.946  19.131  0.00  0.00    +0.000 A 
ATOM     25 CL   UNL     1       2.012   4.885  17.699  0.00  0.00    +0.000 Cl
ENDBRANCH  17  18
ENDBRANCH   3  17
TORSDOF 4
ENDMDL
MODEL 2
REMARK VINA RESULT:      -7.7      1.594      2.248
REMARK  Name = 
REMARK  4 active torsions:
REMARK  status: ('A' for Active; 'I' for Inactive)
REMARK    1  A    between atoms: C_2  and  C_13
REMARK    2  A    between atoms: N_3  and  C_4
REMARK    3  A    between atoms: C_4  and  C_5
REMARK    4  A    between atoms: C_16  and  C_17
REMARK                            x       y       z     vdW  Elec       q    Type
REMARK                         _______ _______ _______ _____ _____    ______ ____
ROOT
ATOM      1  O   UNL     1       6.275   4.589  16.385  0.00  0.00    +0.000 OA
ATOM      2  C   UNL     1       6.126   5.164  17.454  0.00  0.00    +0.000 C 
ATOM      3  N   UNL     1       5.257   4.753  18.436  0.00  0.00    +0.000 N 
ATOM      4  H   UNL     1       5.028   5.383  19.196  0.00  0.00    +0.000 HD
ENDROOT
BRANCH   2   5
ATOM      5  C   UNL     1       6.879   6.395  17.736  0.00  0.00    +0.000 A 
ATOM      6  C   UNL     1       7.819   6.430  18.739  0.00  0.00    +0.000 A 
ATOM      7  N   UNL     1       8.539   7.534  19.044  0.00  0.00    +0.000 NA
ATOM      8  C   UNL     1       8.283   8.647  18.325  0.00  0.00    +0.000 A 
ATOM      9  N   UNL     1       7.372   8.712  17.331  0.00  0.00    +0.000 NA
ATOM     10  C   UNL     1       6.684   7.580  17.064  0.00  0.00    +0.000 A 
BRANCH   8  11
ATOM     11  C   UNL     1       9.034   9.863  18.651  0.00  0.00    +0.000 A 
ATOM     12  C   UNL     1       9.330  10.232  19.973  0.00  0.00    +0.000 A 
ATOM     13  C   UNL     1      10.045  11.396  20.243  0.00  0.00    +0.000 A 
ATOM     14  C   UNL     1      10.450  12.178  19.177  0.00  0.00    +0.000 A 
ATOM     15  N   UNL     1      10.194  11.874  17.889  0.00  0.00    +0.000 NA
ATOM     16  C   UNL     1       9.497  10.732  17.663  0.00  0.00    +0.000 A 
ENDBRANCH   8  11
ENDBRANCH   2   5
BRANCH   3  17
ATOM     17  C   UNL     1       4.429   3.578  18.268  0.00  0.00    +0.000 C 
BRANCH  17  18
ATOM     18  C   UNL     1       3.289   3.450  19.252  0.00  0.00    +0.000 A 
ATOM     19  C   UNL     1       2.059   4.102  19.083  0.00  0.00    +0.000 A 
ATOM     20  F   UNL     1       1.841   4.876  18.007  0.00  0.00    +0.000 F 
ATOM     21  C   UNL     1       1.015   3.978  19.999  0.00  0.00    +0.000 A 
ATOM     22  C   UNL     1       1.177   3.183  21.127  0.00  0.00    +0.000 A 
ATOM     23  C   UNL     1       2.384   2.518  21.326  0.00  0.00    +0.000 A 
ATOM     24  C   UNL     1       3.427   2.648  20.400  0.00  0.00    +0.000 A 
ATOM     25 CL   UNL     1       4.887   1.779  20.728  0.00  0.00    +0.000 Cl
ENDBRANCH  17  18
ENDBRANCH   3  17
TORSDOF 4
ENDMDL
MODEL 3
REMARK VINA RESULT:      -7.6      1.014      1.159
REMARK  Name = 
REMARK  4 active torsions:
REMARK  status: ('A' for Active; 'I' for Inactive)
REMARK    1  A    between atoms: C_2  and  C_13
REMARK    2  A    between atoms: N_3  and  C_4
REMARK    3  A    between atoms: C_4  and  C_5
REMARK    4  A    between atoms: C_16  and  C_17
REMARK                            x       y       z     vdW  Elec       q    Type
REMARK                         _______ _______ _______ _____ _____    ______ ____
ROOT
ATOM      1  O   UNL     1       7.160   4.013  17.868  0.00  0.00    +0.000 OA
ATOM      2  C   UNL     1       6.449   4.993  18.040  0.00  0.00    +0.000 C 
ATOM      3  N   UNL     1       5.080   4.942  18.151  0.00  0.00    +0.000 N 
ATOM      4  H   UNL     1       4.540   5.797  18.078  0.00  0.00    +0.000 HD
ENDROOT
BRANCH   2   5
ATOM      5  C   UNL     1       7.049   6.333  18.104  0.00  0.00    +0.000 A 
ATOM      6  C   UNL     1       6.575   7.354  17.314  0.00  0.00    +0.000 A 
ATOM      7  N   UNL     1       7.088   8.606  17.330  0.00  0.00    +0.000 NA
ATOM      8  C   UNL     1       8.133   8.826  18.156  0.00  0.00    +0.000 A 
ATOM      9  N   UNL     1       8.674   7.884  18.959  0.00  0.00    +0.000 NA
ATOM     10  C   UNL     1       8.120   6.653  18.908  0.00  0.00    +0.000 A 
BRANCH   8  11
ATOM     11  C   UNL     1       8.723  10.167  18.174  0.00  0.00    +0.000 A 
ATOM     12  C   UNL     1       9.910  10.459  18.865  0.00  0.00    +0.000 A 
ATOM     13  C   UNL     1      10.437  11.748  18.860  0.00  0.00    +0.000 A 
ATOM     14  C   UNL     1       9.760  12.730  18.161  0.00  0.00    +0.000 A 
ATOM     15  N   UNL     1       8.617  12.509  17.481  0.00  0.00    +0.000 NA
ATOM     16  C   UNL     1       8.132  11.241  17.506  0.00  0.00    +0.000 A 
ENDBRANCH   8  11
ENDBRANCH   2   5
BRANCH   3  17
ATOM     17  C   UNL     1       4.362   3.688  18.066  0.00  0.00    +0.000 C 
BRANCH  17  18
ATOM     18  C   UNL     1       3.330   3.464  19.148  0.00  0.00    +0.000 A 
ATOM     19  C   UNL     1       3.604   2.756  20.327  0.00  0.00    +0.000 A 
ATOM     20  F   UNL     1       4.827   2.247  20.547  0.00  0.00    +0.000 F 
ATOM     21  C   UNL     1       2.643   2.555  21.317  0.00  0.00    +0.000 A 
ATOM     22  C   UNL     1       1.363   3.066  21.152  0.00  0.00    +0.000 A 
ATOM     23  C   UNL     1       1.056   3.779  19.995  0.00  0.00    +0.000 A 
ATOM     24  C   UNL     1       2.028   3.977  19.005  0.00  0.00    +0.000 A 
ATOM     25 CL   UNL     1       1.557   4.878  17.605  0.00  0.00    +0.000 Cl
ENDBRANCH  17  18
ENDBRANCH   3  17
TORSDOF 4
ENDMDL
MODEL 4
REMARK VINA RESULT:      -7.5      0.611      1.392
REMARK  Name = 
REMARK  4 active torsions:
REMARK  status: ('A' for Active; 'I' for Inactive)
REMARK    1  A    between atoms: C_2  and  C_13
REMARK    2  A    between atoms: N_3  and  C_4
REMARK    3  A    between atoms: C_4  and  C_5
REMARK    4  A    between atoms: C_16  and  C_17
REMARK                            x       y       z     vdW  Elec       q    Type
REMARK                         _______ _______ _______ _____ _____    ______ ____
ROOT
ATOM      1  O   UNL     1       5.567   5.236  16.281  0.00  0.00    +0.000 OA
ATOM      2  C   UNL     1       5.887   5.494  17.433  0.00  0.00    +0.000 C 
ATOM      3  N   UNL     1       5.485   4.765  18.526  0.00  0.00    +0.000 N 
ATOM      4  H   UNL     1       5.606   5.150  19.456  0.00  0.00    +0.000 HD
ENDROOT
BRANCH   2   5
ATOM      5  C   UNL     1       6.724   6.669  17.717  0.00  0.00    +0.000 A 
ATOM      6  C   UNL     1       7.755   6.595  18.623  0.00  0.00    +0.000 A 
ATOM      7  N   UNL     1       8.557   7.642  18.925  0.00  0.00    +0.000 NA
ATOM      8  C   UNL     1       8.290   8.811  18.305  0.00  0.00    +0.000 A 
ATOM      9  N   UNL     1       7.294   8.984  17.411  0.00  0.00    +0.000 NA
ATOM     10  C   UNL     1       6.527   7.904  17.142  0.00  0.00    +0.000 A 
BRANCH   8  11
ATOM     11  C   UNL     1       9.130   9.968  18.633  0.00  0.00    +0.000 A 
ATOM     12  C   UNL     1       9.405  10.347  19.956  0.00  0.00    +0.000 A 
ATOM     13  C   UNL     1      10.206  11.454  20.227  0.00  0.00    +0.000 A 
ATOM     14  C   UNL     1      10.718  12.169  19.159  0.00  0.00    +0.000 A 
ATOM     15  N   UNL     1      10.487  11.852  17.869  0.00  0.00    +0.000 NA
ATOM     16  C   UNL     1       9.703  10.766  17.643  0.00  0.00    +0.000 A 
ENDBRANCH   8  11
ENDBRANCH   2   5
BRANCH   3  17
ATOM     17  C   UNL     1       4.627   3.608  18.388  0.00  0.00    +0.000 C 
BRANCH  17  18
ATOM     18  C   UNL     1       3.512   3.510  19.404  0.00  0.00    +0.000 A 
ATOM     19  C   UNL     1       3.566   2.655  20.514  0.00  0.00    +0.000 A 
ATOM     20  F   UNL     1       4.642   1.880  20.725  0.00  0.00    +0.000 F 
ATOM     21  C   UNL     1       2.530   2.572  21.444  0.00  0.00    +0.000 A 
ATOM     22  C   UNL     1       1.395   3.356  21.286  0.00  0.00    +0.000 A 
ATOM     23  C   UNL     1       1.309   4.220  20.197  0.00  0.00    +0.000 A 
ATOM     24  C   UNL     1       2.355   4.297  19.267  0.00  0.00    +0.000 A 
ATOM     25 CL   UNL     1       2.160   5.403  17.950  0.00  0.00    +0.000 Cl
ENDBRANCH  17  18
ENDBRANCH   3  17
TORSDOF 4
ENDMDL
MODEL 5
REMARK VINA RESULT:      -7.4      5.249      7.350
REMARK  Name = 
REMARK  4 active torsions:
REMARK  status: ('A' for Active; 'I' for Inactive)
REMARK    1  A    between atoms: C_2  and  C_13
REMARK    2  A    between atoms: N_3  and  C_4
REMARK    3  A    between atoms: C_4  and  C_5
REMARK    4  A    between atoms: C_16  and  C_17
REMARK                            x       y       z     vdW  Elec       q    Type
REMARK                         _______ _______ _______ _____ _____    ______ ____
ROOT
ATOM      1  O   UNL     1       2.100   4.733  18.918  0.00  0.00    +0.000 OA
ATOM      2  C   UNL     1       2.781   5.682  19.285  0.00  0.00    +0.000 C 
ATOM      3  N   UNL     1       4.151   5.659  19.375  0.00  0.00    +0.000 N 
ATOM      4  H   UNL     1       4.632   6.393  19.881  0.00  0.00    +0.000 HD
ENDROOT
BRANCH   2   5
ATOM      5  C   UNL     1       2.131   6.935  19.696  0.00  0.00    +0.000 A 
ATOM      6  C   UNL     1       1.512   7.038  20.919  0.00  0.00    +0.000 A 
ATOM      7  N   UNL     1       0.897   8.163  21.349  0.00  0.00    +0.000 NA
ATOM      8  C   UNL     1       0.889   9.215  20.503  0.00  0.00    +0.000 A 
ATOM      9  N   UNL     1       1.460   9.205  19.279  0.00  0.00    +0.000 NA
ATOM     10  C   UNL     1       2.064   8.057  18.901  0.00  0.00    +0.000 A 
BRANCH   8  11
ATOM     11  C   UNL     1       0.210  10.439  20.936  0.00  0.00    +0.000 A 
ATOM     12  C   UNL     1      -0.271  10.610  22.244  0.00  0.00    +0.000 A 
ATOM     13  C   UNL     1      -0.914  11.788  22.617  0.00  0.00    +0.000 A 
ATOM     14  C   UNL     1      -1.068  12.780  21.666  0.00  0.00    +0.000 A 
ATOM     15  N   UNL     1      -0.628  12.671  20.396  0.00  0.00    +0.000 NA
ATOM     16  C   UNL     1      -0.004  11.510  20.068  0.00  0.00    +0.000 A 
ENDBRANCH   8  11
ENDBRANCH   2   5
BRANCH   3  17
ATOM     17  C   UNL     1       4.910   4.473  19.037  0.00  0.00    +0.000 C 
BRANCH  17  18
ATOM     18  C   UNL     1       5.530   4.479  17.659  0.00  0.00    +0.000 A 
ATOM     19  C   UNL     1       4.840   4.065  16.510  0.00  0.00    +0.000 A 
ATOM     20  F   UNL     1       3.567   3.647  16.595  0.00  0.00    +0.000 F 
ATOM     21  C   UNL     1       5.424   4.074  15.244  0.00  0.00    +0.000 A 
ATOM     22  C   UNL     1       6.735   4.506  15.091  0.00  0.00    +0.000 A 
ATOM     23  C   UNL     1       7.450   4.928  16.209  0.00  0.00    +0.000 A 
ATOM     24  C   UNL     1       6.855   4.916  17.478  0.00  0.00    +0.000 A 
ATOM     25 CL   UNL     1       7.819   5.464  18.806  0.00  0.00    +0.000 Cl
ENDBRANCH  17  18
ENDBRANCH   3  17
TORSDOF 4
ENDMDL
MODEL 6
REMARK VINA RESULT:      -7.4      1.575      1.764
REMARK  Name = 
REMARK  4 active torsions:
REMARK  status: ('A' for Active; 'I' for Inactive)
REMARK    1  A    between atoms: C_2  and  C_13
REMARK    2  A    between atoms: N_3  and  C_4
REMARK    3  A    between atoms: C_4  and  C_5
REMARK    4  A    between atoms: C_16  and  C_17
REMARK                            x       y       z     vdW  Elec       q    Type
REMARK                         _______ _______ _______ _____ _____    ______ ____
ROOT
ATOM      1  O   UNL     1       6.517   4.579  16.556  0.00  0.00    +0.000 OA
ATOM      2  C   UNL     1       6.037   5.436  17.285  0.00  0.00    +0.000 C 
ATOM      3  N   UNL     1       4.748   5.409  17.761  0.00  0.00    +0.000 N 
ATOM      4  H   UNL     1       4.351   6.243  18.178  0.00  0.00    +0.000 HD
ENDROOT
BRANCH   2   5
ATOM      5  C   UNL     1       6.841   6.604  17.674  0.00  0.00    +0.000 A 
ATOM      6  C   UNL     1       6.628   7.830  17.090  0.00  0.00    +0.000 A 
ATOM      7  N   UNL     1       7.337   8.938  17.406  0.00  0.00    +0.000 NA
ATOM      8  C   UNL     1       8.312   8.794  18.330  0.00  0.00    +0.000 A 
ATOM      9  N   UNL     1       8.602   7.629  18.948  0.00  0.00    +0.000 NA
ATOM     10  C   UNL     1       7.860   6.556  18.598  0.00  0.00    +0.000 A 
BRANCH   8  11
ATOM     11  C   UNL     1       9.110   9.974  18.674  0.00  0.00    +0.000 A 
ATOM     12  C   UNL     1       9.766  10.747  17.703  0.00  0.00    +0.000 A 
ATOM     13  C   UNL     1      10.518  11.861  18.070  0.00  0.00    +0.000 A 
ATOM     14  C   UNL     1      10.603  12.181  19.413  0.00  0.00    +0.000 A 
ATOM     15  N   UNL     1       9.996  11.475  20.388  0.00  0.00    +0.000 NA
ATOM     16  C   UNL     1       9.270  10.397  19.994  0.00  0.00    +0.000 A 
ENDBRANCH   8  11
ENDBRANCH   2   5
BRANCH   3  17
ATOM     17  C   UNL     1       3.840   4.334  17.421  0.00  0.00    +0.000 C 
BRANCH  17  18
ATOM     18  C   UNL     1       2.871   3.942  18.512  0.00  0.00    +0.000 A 
ATOM     19  C   UNL     1       2.052   4.869  19.173  0.00  0.00    +0.000 A 
ATOM     20  F   UNL     1       2.093   6.171  18.844  0.00  0.00    +0.000 F 
ATOM     21  C   UNL     1       1.163   4.496  20.181  0.00  0.00    +0.000 A 
ATOM     22  C   UNL     1       1.068   3.163  20.559  0.00  0.00    +0.000 A 
ATOM     23  C   UNL     1       1.863   2.214  19.921  0.00  0.00    +0.000 A 
ATOM     24  C   UNL     1       2.754   2.598  18.909  0.00  0.00    +0.000 A 
ATOM     25 CL   UNL     1       3.697   1.349  18.172  0.00  0.00    +0.000 Cl
ENDBRANCH  17  18
ENDBRANCH   3  17
TORSDOF 4
ENDMDL
MODEL 7
REMARK VINA RESULT:      -7.3      5.427      7.234
REMARK  Name = 
REMARK  4 active torsions:
REMARK  status: ('A' for Active; 'I' for Inactive)
REMARK    1  A    between atoms: C_2  and  C_13
REMARK    2  A    between atoms: N_3  and  C_4
REMARK    3  A    between atoms: C_4  and  C_5
REMARK    4  A    between atoms: C_16  and  C_17
REMARK                            x       y       z     vdW  Elec       q    Type
REMARK                         _______ _______ _______ _____ _____    ______ ____
ROOT
ATOM      1  O   UNL     1       2.105   5.304  18.283  0.00  0.00    +0.000 OA
ATOM      2  C   UNL     1       2.682   5.963  19.137  0.00  0.00    +0.000 C 
ATOM      3  N   UNL     1       3.887   5.612  19.698  0.00  0.00    +0.000 N 
ATOM      4  H   UNL     1       4.202   6.080  20.539  0.00  0.00    +0.000 HD
ENDROOT
BRANCH   2   5
ATOM      5  C   UNL     1       2.071   7.198  19.649  0.00  0.00    +0.000 A 
ATOM      6  C   UNL     1       1.551   7.250  20.921  0.00  0.00    +0.000 A 
ATOM      7  N   UNL     1       0.976   8.357  21.444  0.00  0.00    +0.000 NA
ATOM      8  C   UNL     1       0.903   9.442  20.644  0.00  0.00    +0.000 A 
ATOM      9  N   UNL     1       1.374   9.482  19.380  0.00  0.00    +0.000 NA
ATOM     10  C   UNL     1       1.943   8.351  18.908  0.00  0.00    +0.000 A 
BRANCH   8  11
ATOM     11  C   UNL     1       0.263  10.647  21.180  0.00  0.00    +0.000 A 
ATOM     12  C   UNL     1       0.100  11.814  20.417  0.00  0.00    +0.000 A 
ATOM     13  C   UNL     1      -0.512  12.940  20.963  0.00  0.00    +0.000 A 
ATOM     14  C   UNL     1      -0.950  12.878  22.274  0.00  0.00    +0.000 A 
ATOM     15  N   UNL     1      -0.819  11.785  23.053  0.00  0.00    +0.000 NA
ATOM     16  C   UNL     1      -0.219  10.706  22.488  0.00  0.00    +0.000 A 
ENDBRANCH   8  11
ENDBRANCH   2   5
BRANCH   3  17
ATOM     17  C   UNL     1       4.576   4.399  19.310  0.00  0.00    +0.000 C 
BRANCH  17  18
ATOM     18  C   UNL     1       5.326   4.478  18.001  0.00  0.00    +0.000 A 
ATOM     19  C   UNL     1       4.802   4.000  16.791  0.00  0.00    +0.000 A 
ATOM     20  F   UNL     1       3.578   3.449  16.750  0.00  0.00    +0.000 F 
ATOM     21  C   UNL     1       5.506   4.077  15.590  0.00  0.00    +0.000 A 
ATOM     22  C   UNL     1       6.773   4.646  15.566  0.00  0.00    +0.000 A 
ATOM     23  C   UNL     1       7.323   5.135  16.748  0.00  0.00    +0.000 A 
ATOM     24  C   UNL     1       6.609   5.053  17.951  0.00  0.00    +0.000 A 
ATOM     25 CL   UNL     1       7.372   5.692  19.367  0.00  0.00    +0.000 Cl
ENDBRANCH  17  18
ENDBRANCH   3  17
TORSDOF 4
ENDMDL
MODEL 8
REMARK VINA RESULT:      -7.3      5.269      7.212
REMARK  Name = 
REMARK  4 active torsions:
REMARK  status: ('A' for Active; 'I' for Inactive)
REMARK    1  A    between atoms: C_2  and  C_13
REMARK    2  A    between atoms: N_3  and  C_4
REMARK    3  A    between atoms: C_4  and  C_5
REMARK    4  A    between atoms: C_16  and  C_17
REMARK                            x       y       z     vdW  Elec       q    Type
REMARK                         _______ _______ _______ _____ _____    ______ ____
ROOT
ATOM      1  O   UNL     1       2.073   4.927  18.677  0.00  0.00    +0.000 OA
ATOM      2  C   UNL     1       2.716   5.761  19.299  0.00  0.00    +0.000 C 
ATOM      3  N   UNL     1       4.036   5.612  19.651  0.00  0.00    +0.000 N 
ATOM      4  H   UNL     1       4.443   6.234  20.339  0.00  0.00    +0.000 HD
ENDROOT
BRANCH   2   5
ATOM      5  C   UNL     1       2.068   7.002  19.747  0.00  0.00    +0.000 A 
ATOM      6  C   UNL     1       2.040   8.113  18.938  0.00  0.00    +0.000 A 
ATOM      7  N   UNL     1       1.461   9.282  19.298  0.00  0.00    +0.000 NA
ATOM      8  C   UNL     1       0.910   9.334  20.529  0.00  0.00    +0.000 A 
ATOM      9  N   UNL     1       0.899   8.301  21.398  0.00  0.00    +0.000 NA
ATOM     10  C   UNL     1       1.487   7.156  20.986  0.00  0.00    +0.000 A 
BRANCH   8  11
ATOM     11  C   UNL     1       0.296  10.596  20.953  0.00  0.00    +0.000 A 
ATOM     12  C   UNL     1      -0.334  10.746  22.198  0.00  0.00    +0.000 A 
ATOM     13  C   UNL     1      -0.908  11.962  22.563  0.00  0.00    +0.000 A 
ATOM     14  C   UNL     1      -0.843  13.013  21.666  0.00  0.00    +0.000 A 
ATOM     15  N   UNL     1      -0.252  12.926  20.457  0.00  0.00    +0.000 NA
ATOM     16  C   UNL     1       0.298  11.727  20.135  0.00  0.00    +0.000 A 
ENDBRANCH   8  11
ENDBRANCH   2   5
BRANCH   3  17
ATOM     17  C   UNL     1       4.779   4.419  19.304  0.00  0.00    +0.000 C 
BRANCH  17  18
ATOM     18  C   UNL     1       5.488   4.470  17.970  0.00  0.00    +0.000 A 
ATOM     19  C   UNL     1       4.925   3.967  16.788  0.00  0.00    +0.000 A 
ATOM     20  F   UNL     1       3.700   3.417  16.798  0.00  0.00    +0.000 F 
ATOM     21  C   UNL     1       5.590   4.018  15.563  0.00  0.00    +0.000 A 
ATOM     22  C   UNL     1       6.856   4.584  15.487  0.00  0.00    +0.000 A 
ATOM     23  C   UNL     1       7.444   5.098  16.640  0.00  0.00    +0.000 A 
ATOM     24  C   UNL     1       6.769   5.043  17.867  0.00  0.00    +0.000 A 
ATOM     25 CL   UNL     1       7.576   5.711  19.243  0.00  0.00    +0.000 Cl
ENDBRANCH  17  18
ENDBRANCH   3  17
TORSDOF 4
ENDMDL
MODEL 9
REMARK VINA RESULT:      -7.3      6.367      7.655
REMARK  Name = 
REMARK  4 active torsions:
REMARK  status: ('A' for Active; 'I' for Inactive)
REMARK    1  A    between atoms: C_2  and  C_13
REMARK    2  A    between atoms: N_3  and  C_4
REMARK    3  A    between atoms: C_4  and  C_5
REMARK    4  A    between atoms: C_16  and  C_17
REMARK                            x       y       z     vdW  Elec       q    Type
REMARK                         _______ _______ _______ _____ _____    ______ ____
ROOT
ATOM      1  O   UNL     1       2.112   8.069  17.972  0.00  0.00    +0.000 OA
ATOM      2  C   UNL     1       2.055   7.966  19.190  0.00  0.00    +0.000 C 
ATOM      3  N   UNL     1       2.621   6.938  19.904  0.00  0.00    +0.000 N 
ATOM      4  H   UNL     1       2.359   6.799  20.873  0.00  0.00    +0.000 HD
ENDROOT
BRANCH   2   5
ATOM      5  C   UNL     1       1.315   8.964  19.976  0.00  0.00    +0.000 A 
ATOM      6  C   UNL     1       0.919  10.153  19.411  0.00  0.00    +0.000 A 
ATOM      7  N   UNL     1       0.238  11.107  20.085  0.00  0.00    +0.000 NA
ATOM      8  C   UNL     1      -0.032  10.859  21.385  0.00  0.00    +0.000 A 
ATOM      9  N   UNL     1       0.326   9.728  22.029  0.00  0.00    +0.000 NA
ATOM     10  C   UNL     1       1.000   8.806  21.307  0.00  0.00    +0.000 A 
BRANCH   8  11
ATOM     11  C   UNL     1      -0.748  11.888  22.145  0.00  0.00    +0.000 A 
ATOM     12  C   UNL     1      -1.901  11.604  22.895  0.00  0.00    +0.000 A 
ATOM     13  C   UNL     1      -2.555  12.610  23.602  0.00  0.00    +0.000 A 
ATOM     14  C   UNL     1      -2.042  13.892  23.543  0.00  0.00    +0.000 A 
ATOM     15  N   UNL     1      -0.940  14.223  22.839  0.00  0.00    +0.000 NA
ATOM     16  C   UNL     1      -0.327  13.218  22.163  0.00  0.00    +0.000 A 
ENDBRANCH   8  11
ENDBRANCH   2   5
BRANCH   3  17
ATOM     17  C   UNL     1       3.345   5.871  19.247  0.00  0.00    +0.000 C 
BRANCH  17  18
ATOM     18  C   UNL     1       2.573   4.583  19.076  0.00  0.00    +0.000 A 
ATOM     19  C   UNL     1       1.515   4.211  19.917  0.00  0.00    +0.000 A 
ATOM     20  F   UNL     1       1.133   5.012  20.926  0.00  0.00    +0.000 F 
ATOM     21  C   UNL     1       0.811   3.018  19.751  0.00  0.00    +0.000 A 
ATOM     22  C   UNL     1       1.153   2.153  18.720  0.00  0.00    +0.000 A 
ATOM     23  C   UNL     1       2.196   2.492  17.862  0.00  0.00    +0.000 A 
ATOM     24  C   UNL     1       2.898   3.692  18.036  0.00  0.00    +0.000 A 
ATOM     25 CL   UNL     1       4.174   4.030  16.918  0.00  0.00    +0.000 Cl
ENDBRANCH  17  18
ENDBRANCH   3  17
TORSDOF 4
ENDMDL
