MODEL 1
REMARK VINA RESULT:      -7.2      0.000      0.000
REMARK  Name = 
REMARK  10 active torsions:
REMARK  status: ('A' for Active; 'I' for Inactive)
REMARK    1  A    between atoms: C_1  and  O_2
REMARK    2  A    between atoms: O_2  and  C_3
REMARK    3  A    between atoms: C_7  and  C_8
REMARK    4  A    between atoms: C_8  and  C_9
REMARK    5  A    between atoms: C_9  and  O_11
REMARK    6  A    between atoms: O_11  and  C_12
REMARK    7  A    between atoms: C_12  and  C_13
REMARK    8  A    between atoms: N_15  and  C_16
REMARK    9  A    between atoms: C_16  and  C_17
REMARK   10  A    between atoms: C_16  and  C_18
REMARK                            x       y       z     vdW  Elec       q    Type
REMARK                         _______ _______ _______ _____ _____    ______ ____
ROOT
ATOM      1  C   UNL     1       2.221   2.961  18.293  0.00  0.00    +0.000 C 
ENDROOT
BRANCH   1   2
ATOM      2  C   UNL     1       3.617   2.805  17.689  0.00  0.00    +0.000 C 
ATOM      3  O   UNL     1       4.198   1.721  17.653  0.00  0.00    +0.000 OA
ATOM      4  N   UNL     1       4.150   3.973  17.193  0.00  0.00    +0.000 N 
ATOM      5  H   UNL     1       3.496   4.733  17.018  0.00  0.00    +0.000 HD
BRANCH   4   6
ATOM      6  C   UNL     1       5.426   4.006  16.497  0.00  0.00    +0.000 C 
ATOM      7  C   UNL     1       5.229   4.249  14.999  0.00  0.00    +0.000 C 
BRANCH   6   8
ATOM      8  C   UNL     1       6.332   5.055  17.124  0.00  0.00    +0.000 A 
ATOM      9  C   UNL     1       7.150   4.717  18.216  0.00  0.00    +0.000 A 
ATOM     10  C   UNL     1       7.957   5.682  18.826  0.00  0.00    +0.000 A 
ATOM     11  C   UNL     1       7.946   6.986  18.346  0.00  0.00    +0.000 A 
ATOM     12  F   UNL     1       8.708   7.915  18.941  0.00  0.00    +0.000 F 
ATOM     13  C   UNL     1       7.159   7.341  17.260  0.00  0.00    +0.000 A 
ATOM     14  C   UNL     1       6.356   6.378  16.648  0.00  0.00    +0.000 A 
ENDBRANCH   6   8
ENDBRANCH   4   6
ENDBRANCH   1   2
BRANCH   1  15
ATOM     15  O   UNL     1       2.238   3.107  19.713  0.00  0.00    +0.000 OA
BRANCH  15  16
ATOM     16  C   UNL     1       1.652   4.243  20.181  0.00  0.00    +0.000 C 
ATOM     17  O   UNL     1       0.446   4.387  20.347  0.00  0.00    +0.000 OA
BRANCH  16  18
ATOM     18  C   UNL     1       2.684   5.307  20.458  0.00  0.00    +0.000 C 
BRANCH  18  23
ATOM     19  C   UNL     1       1.402   8.837  19.799  0.00  0.00    +0.000 A 
ATOM     20  C   UNL     1       1.785   9.021  18.470  0.00  0.00    +0.000 A 
ATOM     21  C   UNL     1       2.483   8.022  17.790  0.00  0.00    +0.000 A 
ATOM     22  C   UNL     1       2.795   6.825  18.433  0.00  0.00    +0.000 A 
ATOM     23  C   UNL     1       2.421   6.621  19.768  0.00  0.00    +0.000 A 
ATOM     24  C   UNL     1       1.730   7.642  20.445  0.00  0.00    +0.000 A 
BRANCH  19  26
ATOM     25  C   UNL     1      -0.566  10.171  19.775  0.00  0.00    +0.000 C 
ATOM     26  O   UNL     1       0.703   9.877  20.347  0.00  0.00    +0.000 OA
ENDBRANCH  19  26
ENDBRANCH  18  23
ENDBRANCH  16  18
ENDBRANCH  15  16
ENDBRANCH   1  15
TORSDOF 8
ENDMDL
MODEL 2
REMARK VINA RESULT:      -7.0      1.274      1.742
REMARK  Name = 
REMARK  10 active torsions:
REMARK  status: ('A' for Active; 'I' for Inactive)
REMARK    1  A    between atoms: C_1  and  O_2
REMARK    2  A    between atoms: O_2  and  C_3
REMARK    3  A    between atoms: C_7  and  C_8
REMARK    4  A    between atoms: C_8  and  C_9
REMARK    5  A    between atoms: C_9  and  O_11
REMARK    6  A    between atoms: O_11  and  C_12
REMARK    7  A    between atoms: C_12  and  C_13
REMARK    8  A    between atoms: N_15  and  C_16
REMARK    9  A    between atoms: C_16  and  C_17
REMARK   10  A    between atoms: C_16  and  C_18
REMARK                            x       y       z     vdW  Elec       q    Type
REMARK                         _______ _______ _______ _____ _____    ______ ____
ROOT
ATOM      1  C   UNL     1       3.552   1.950  19.903  0.00  0.00    +0.000 C 
ENDROOT
BRANCH   1   2
ATOM      2  C   UNL     1       4.082   2.370  18.532  0.00  0.00    +0.000 C 
ATOM      3  O   UNL     1       3.732   1.811  17.494  0.00  0.00    +0.000 OA
ATOM      4  N   UNL     1       4.973   3.419  18.569  0.00  0.00    +0.000 N 
ATOM      5  H   UNL     1       4.979   3.980  19.418  0.00  0.00    +0.000 HD
BRANCH   4   6
ATOM      6  C   UNL     1       5.513   4.019  17.360  0.00  0.00    +0.000 C 
ATOM      7  C   UNL     1       4.396   4.363  16.372  0.00  0.00    +0.000 C 
BRANCH   6   8
ATOM      8  C   UNL     1       6.349   5.238  17.714  0.00  0.00    +0.000 A 
ATOM      9  C   UNL     1       6.174   6.442  17.010  0.00  0.00    +0.000 A 
ATOM     10  C   UNL     1       6.965   7.558  17.300  0.00  0.00    +0.000 A 
ATOM     11  C   UNL     1       7.932   7.472  18.294  0.00  0.00    +0.000 A 
ATOM     12  F   UNL     1       8.700   8.537  18.561  0.00  0.00    +0.000 F 
ATOM     13  C   UNL     1       8.113   6.300  19.015  0.00  0.00    +0.000 A 
ATOM     14  C   UNL     1       7.322   5.187  18.729  0.00  0.00    +0.000 A 
ENDBRANCH   6   8
ENDBRANCH   4   6
ENDBRANCH   1   2
BRANCH   1  15
ATOM     15  O   UNL     1       3.228   3.058  20.743  0.00  0.00    +0.000 OA
BRANCH  15  16
ATOM     16  C   UNL     1       1.956   3.061  21.226  0.00  0.00    +0.000 C 
ATOM     17  O   UNL     1       1.602   2.501  22.259  0.00  0.00    +0.000 OA
BRANCH  16  18
ATOM     18  C   UNL     1       1.036   3.836  20.319  0.00  0.00    +0.000 C 
BRANCH  18  23
ATOM     19  C   UNL     1       1.673   7.589  20.541  0.00  0.00    +0.000 A 
ATOM     20  C   UNL     1       2.286   7.834  19.312  0.00  0.00    +0.000 A 
ATOM     21  C   UNL     1       2.524   6.788  18.419  0.00  0.00    +0.000 A 
ATOM     22  C   UNL     1       2.140   5.488  18.746  0.00  0.00    +0.000 A 
ATOM     23  C   UNL     1       1.524   5.221  19.976  0.00  0.00    +0.000 A 
ATOM     24  C   UNL     1       1.304   6.282  20.872  0.00  0.00    +0.000 A 
BRANCH  19  26
ATOM     25  C   UNL     1       0.851   9.815  20.693  0.00  0.00    +0.000 C 
ATOM     26  O   UNL     1       1.473   8.698  21.316  0.00  0.00    +0.000 OA
ENDBRANCH  19  26
ENDBRANCH  18  23
ENDBRANCH  16  18
ENDBRANCH  15  16
ENDBRANCH   1  15
TORSDOF 8
ENDMDL
MODEL 3
REMARK VINA RESULT:      -6.9      3.801      8.087
REMARK  Name = 
REMARK  10 active torsions:
REMARK  status: ('A' for Active; 'I' for Inactive)
REMARK    1  A    between atoms: C_1  and  O_2
REMARK    2  A    between atoms: O_2  and  C_3
REMARK    3  A    between atoms: C_7  and  C_8
REMARK    4  A    between atoms: C_8  and  C_9
REMARK    5  A    between atoms: C_9  and  O_11
REMARK    6  A    between atoms: O_11  and  C_12
REMARK    7  A    between atoms: C_12  and  C_13
REMARK    8  A    between atoms: N_15  and  C_16
REMARK    9  A    between atoms: C_16  and  C_17
REMARK   10  A    between atoms: C_16  and  C_18
REMARK                            x       y       z     vdW  Elec       q    Type
REMARK                         _______ _______ _______ _____ _____    ______ ____
ROOT
ATOM      1  C   UNL     1       7.101   5.027  17.169  0.00  0.00    +0.000 C 
ENDROOT
BRANCH   1   2
ATOM      2  C   UNL     1       5.926   5.134  18.141  0.00  0.00    +0.000 C 
ATOM      3  O   UNL     1       5.909   4.536  19.216  0.00  0.00    +0.000 OA
ATOM      4  N   UNL     1       4.908   5.953  17.708  0.00  0.00    +0.000 N 
ATOM      5  H   UNL     1       5.136   6.605  16.960  0.00  0.00    +0.000 HD
BRANCH   4   6
ATOM      6  C   UNL     1       3.751   6.252  18.535  0.00  0.00    +0.000 C 
ATOM      7  C   UNL     1       3.039   7.516  18.048  0.00  0.00    +0.000 C 
BRANCH   6   8
ATOM      8  C   UNL     1       2.815   5.054  18.571  0.00  0.00    +0.000 A 
ATOM      9  C   UNL     1       1.987   4.840  19.686  0.00  0.00    +0.000 A 
ATOM     10  C   UNL     1       1.152   3.721  19.748  0.00  0.00    +0.000 A 
ATOM     11  C   UNL     1       1.143   2.814  18.694  0.00  0.00    +0.000 A 
ATOM     12  F   UNL     1       0.353   1.733  18.761  0.00  0.00    +0.000 F 
ATOM     13  C   UNL     1       1.938   3.012  17.575  0.00  0.00    +0.000 A 
ATOM     14  C   UNL     1       2.771   4.130  17.511  0.00  0.00    +0.000 A 
ENDBRANCH   6   8
ENDBRANCH   4   6
ENDBRANCH   1   2
BRANCH   1  15
ATOM     15  O   UNL     1       6.767   4.351  15.957  0.00  0.00    +0.000 OA
BRANCH  15  16
ATOM     16  C   UNL     1       6.424   5.164  14.921  0.00  0.00    +0.000 C 
ATOM     17  O   UNL     1       5.660   6.119  15.009  0.00  0.00    +0.000 OA
BRANCH  16  18
ATOM     18  C   UNL     1       7.101   4.729  13.646  0.00  0.00    +0.000 C 
BRANCH  18  23
ATOM     19  C   UNL     1       6.129   1.793  11.416  0.00  0.00    +0.000 A 
ATOM     20  C   UNL     1       4.819   2.131  11.078  0.00  0.00    +0.000 A 
ATOM     21  C   UNL     1       4.231   3.289  11.590  0.00  0.00    +0.000 A 
ATOM     22  C   UNL     1       4.958   4.125  12.438  0.00  0.00    +0.000 A 
ATOM     23  C   UNL     1       6.275   3.802  12.790  0.00  0.00    +0.000 A 
ATOM     24  C   UNL     1       6.849   2.625  12.278  0.00  0.00    +0.000 A 
BRANCH  19  26
ATOM     25  C   UNL     1       6.048  -0.580  11.288  0.00  0.00    +0.000 C 
ATOM     26  O   UNL     1       6.599   0.649  10.831  0.00  0.00    +0.000 OA
ENDBRANCH  19  26
ENDBRANCH  18  23
ENDBRANCH  16  18
ENDBRANCH  15  16
ENDBRANCH   1  15
TORSDOF 8
ENDMDL
MODEL 4
REMARK VINA RESULT:      -6.7      3.156      7.428
REMARK  Name = 
REMARK  10 active torsions:
REMARK  status: ('A' for Active; 'I' for Inactive)
REMARK    1  A    between atoms: C_1  and  O_2
REMARK    2  A    between atoms: O_2  and  C_3
REMARK    3  A    between atoms: C_7  and  C_8
REMARK    4  A    between atoms: C_8  and  C_9
REMARK    5  A    between atoms: C_9  and  O_11
REMARK    6  A    between atoms: O_11  and  C_12
REMARK    7  A    between atoms: C_12  and  C_13
REMARK    8  A    between atoms: N_15  and  C_16
REMARK    9  A    between atoms: C_16  and  C_17
REMARK   10  A    between atoms: C_16  and  C_18
REMARK                            x       y       z     vdW  Elec       q    Type
REMARK                         _______ _______ _______ _____ _____    ______ ____
ROOT
ATOM      1  C   UNL     1       6.327   4.956  19.168  0.00  0.00    +0.000 C 
ENDROOT
BRANCH   1   2
ATOM      2  C   UNL     1       4.815   4.753  19.066  0.00  0.00    +0.000 C 
ATOM      3  O   UNL     1       4.318   3.663  18.790  0.00  0.00    +0.000 OA
ATOM      4  N   UNL     1       4.076   5.888  19.312  0.00  0.00    +0.000 N 
ATOM      5  H   UNL     1       4.553   6.646  19.796  0.00  0.00    +0.000 HD
BRANCH   4   6
ATOM      6  C   UNL     1       2.623   5.870  19.354  0.00  0.00    +0.000 C 
ATOM      7  C   UNL     1       2.117   5.128  20.592  0.00  0.00    +0.000 C 
BRANCH   6   8
ATOM      8  C   UNL     1       2.085   7.291  19.288  0.00  0.00    +0.000 A 
ATOM      9  C   UNL     1       2.118   8.002  18.076  0.00  0.00    +0.000 A 
ATOM     10  C   UNL     1       1.663   9.323  18.013  0.00  0.00    +0.000 A 
ATOM     11  C   UNL     1       1.175   9.935  19.162  0.00  0.00    +0.000 A 
ATOM     12  F   UNL     1       0.754  11.206  19.104  0.00  0.00    +0.000 F 
ATOM     13  C   UNL     1       1.117   9.249  20.367  0.00  0.00    +0.000 A 
ATOM     14  C   UNL     1       1.568   7.930  20.430  0.00  0.00    +0.000 A 
ENDBRANCH   6   8
ENDBRANCH   4   6
ENDBRANCH   1   2
BRANCH   1  15
ATOM     15  O   UNL     1       6.861   5.742  18.103  0.00  0.00    +0.000 OA
BRANCH  15  16
ATOM     16  C   UNL     1       7.081   5.064  16.943  0.00  0.00    +0.000 C 
ATOM     17  O   UNL     1       7.962   4.227  16.782  0.00  0.00    +0.000 OA
BRANCH  16  18
ATOM     18  C   UNL     1       6.102   5.487  15.878  0.00  0.00    +0.000 C 
BRANCH  18  23
ATOM     19  C   UNL     1       6.016   3.486  12.633  0.00  0.00    +0.000 A 
ATOM     20  C   UNL     1       7.145   3.981  11.979  0.00  0.00    +0.000 A 
ATOM     21  C   UNL     1       7.920   4.982  12.565  0.00  0.00    +0.000 A 
ATOM     22  C   UNL     1       7.578   5.488  13.819  0.00  0.00    +0.000 A 
ATOM     23  C   UNL     1       6.448   5.005  14.491  0.00  0.00    +0.000 A 
ATOM     24  C   UNL     1       5.667   4.007  13.882  0.00  0.00    +0.000 A 
BRANCH  19  26
ATOM     25  C   UNL     1       6.143   1.614  11.172  0.00  0.00    +0.000 C 
ATOM     26  O   UNL     1       5.354   2.491  11.968  0.00  0.00    +0.000 OA
ENDBRANCH  19  26
ENDBRANCH  18  23
ENDBRANCH  16  18
ENDBRANCH  15  16
ENDBRANCH   1  15
TORSDOF 8
ENDMDL
MODEL 5
REMARK VINA RESULT:      -6.7      3.829      8.062
REMARK  Name = 
REMARK  10 active torsions:
REMARK  status: ('A' for Active; 'I' for Inactive)
REMARK    1  A    between atoms: C_1  and  O_2
REMARK    2  A    between atoms: O_2  and  C_3
REMARK    3  A    between atoms: C_7  and  C_8
REMARK    4  A    between atoms: C_8  and  C_9
REMARK    5  A    between atoms: C_9  and  O_11
REMARK    6  A    between atoms: O_11  and  C_12
REMARK    7  A    between atoms: C_12  and  C_13
REMARK    8  A    between atoms: N_15  and  C_16
REMARK    9  A    between atoms: C_16  and  C_17
REMARK   10  A    between atoms: C_16  and  C_18
REMARK                            x       y       z     vdW  Elec       q    Type
REMARK                         _______ _______ _______ _____ _____    ______ ____
ROOT
ATOM      1  C   UNL     1       2.447   7.381  18.235  0.00  0.00    +0.000 C 
ENDROOT
BRANCH   1   2
ATOM      2  C   UNL     1       1.684   8.416  19.064  0.00  0.00    +0.000 C 
ATOM      3  O   UNL     1       1.531   8.299  20.278  0.00  0.00    +0.000 OA
ATOM      4  N   UNL     1       1.195   9.475  18.332  0.00  0.00    +0.000 N 
ATOM      5  H   UNL     1       1.606   9.619  17.412  0.00  0.00    +0.000 HD
BRANCH   4   6
ATOM      6  C   UNL     1       0.526  10.603  18.957  0.00  0.00    +0.000 C 
ATOM      7  C   UNL     1       1.305  11.900  18.730  0.00  0.00    +0.000 C 
BRANCH   6   8
ATOM      8  C   UNL     1      -0.903  10.706  18.447  0.00  0.00    +0.000 A 
ATOM      9  C   UNL     1      -1.786  11.645  19.007  0.00  0.00    +0.000 A 
ATOM     10  C   UNL     1      -3.113  11.722  18.573  0.00  0.00    +0.000 A 
ATOM     11  C   UNL     1      -3.559  10.859  17.579  0.00  0.00    +0.000 A 
ATOM     12  F   UNL     1      -4.836  10.922  17.175  0.00  0.00    +0.000 F 
ATOM     13  C   UNL     1      -2.703   9.934  16.999  0.00  0.00    +0.000 A 
ATOM     14  C   UNL     1      -1.378   9.859  17.429  0.00  0.00    +0.000 A 
ENDBRANCH   6   8
ENDBRANCH   4   6
ENDBRANCH   1   2
BRANCH   1  15
ATOM     15  O   UNL     1       2.692   6.166  18.943  0.00  0.00    +0.000 OA
BRANCH  15  16
ATOM     16  C   UNL     1       2.498   5.030  18.220  0.00  0.00    +0.000 C 
ATOM     17  O   UNL     1       1.501   4.796  17.545  0.00  0.00    +0.000 OA
BRANCH  16  18
ATOM     18  C   UNL     1       3.668   4.091  18.366  0.00  0.00    +0.000 C 
BRANCH  18  23
ATOM     19  C   UNL     1       6.802   5.433  16.657  0.00  0.00    +0.000 A 
ATOM     20  C   UNL     1       7.571   5.811  17.757  0.00  0.00    +0.000 A 
ATOM     21  C   UNL     1       7.073   5.663  19.053  0.00  0.00    +0.000 A 
ATOM     22  C   UNL     1       5.803   5.125  19.257  0.00  0.00    +0.000 A 
ATOM     23  C   UNL     1       5.014   4.741  18.164  0.00  0.00    +0.000 A 
ATOM     24  C   UNL     1       5.522   4.909  16.864  0.00  0.00    +0.000 A 
BRANCH  19  26
ATOM     25  C   UNL     1       6.903   4.836  14.357  0.00  0.00    +0.000 C 
ATOM     26  O   UNL     1       7.409   5.604  15.443  0.00  0.00    +0.000 OA
ENDBRANCH  19  26
ENDBRANCH  18  23
ENDBRANCH  16  18
ENDBRANCH  15  16
ENDBRANCH   1  15
TORSDOF 8
ENDMDL
MODEL 6
REMARK VINA RESULT:      -6.7      1.104      1.926
REMARK  Name = 
REMARK  10 active torsions:
REMARK  status: ('A' for Active; 'I' for Inactive)
REMARK    1  A    between atoms: C_1  and  O_2
REMARK    2  A    between atoms: O_2  and  C_3
REMARK    3  A    between atoms: C_7  and  C_8
REMARK    4  A    between atoms: C_8  and  C_9
REMARK    5  A    between atoms: C_9  and  O_11
REMARK    6  A    between atoms: O_11  and  C_12
REMARK    7  A    between atoms: C_12  and  C_13
REMARK    8  A    between atoms: N_15  and  C_16
REMARK    9  A    between atoms: C_16  and  C_17
REMARK   10  A    between atoms: C_16  and  C_18
REMARK                            x       y       z     vdW  Elec       q    Type
REMARK                         _______ _______ _______ _____ _____    ______ ____
ROOT
ATOM      1  C   UNL     1       1.807   3.646  18.071  0.00  0.00    +0.000 C 
ENDROOT
BRANCH   1   2
ATOM      2  C   UNL     1       3.228   3.279  17.643  0.00  0.00    +0.000 C 
ATOM      3  O   UNL     1       3.625   2.115  17.618  0.00  0.00    +0.000 OA
ATOM      4  N   UNL     1       4.007   4.358  17.292  0.00  0.00    +0.000 N 
ATOM      5  H   UNL     1       3.516   5.224  17.080  0.00  0.00    +0.000 HD
BRANCH   4   6
ATOM      6  C   UNL     1       5.355   4.201  16.769  0.00  0.00    +0.000 C 
ATOM      7  C   UNL     1       5.358   4.231  15.239  0.00  0.00    +0.000 C 
BRANCH   6   8
ATOM      8  C   UNL     1       6.266   5.267  17.357  0.00  0.00    +0.000 A 
ATOM      9  C   UNL     1       6.389   6.516  16.724  0.00  0.00    +0.000 A 
ATOM     10  C   UNL     1       7.254   7.490  17.233  0.00  0.00    +0.000 A 
ATOM     11  C   UNL     1       7.998   7.216  18.374  0.00  0.00    +0.000 A 
ATOM     12  F   UNL     1       8.839   8.143  18.852  0.00  0.00    +0.000 F 
ATOM     13  C   UNL     1       7.883   5.996  19.026  0.00  0.00    +0.000 A 
ATOM     14  C   UNL     1       7.017   5.025  18.521  0.00  0.00    +0.000 A 
ENDBRANCH   6   8
ENDBRANCH   4   6
ENDBRANCH   1   2
BRANCH   1  15
ATOM     15  O   UNL     1       1.714   4.945  18.655  0.00  0.00    +0.000 OA
BRANCH  15  16
ATOM     16  C   UNL     1       1.554   4.958  20.006  0.00  0.00    +0.000 C 
ATOM     17  O   UNL     1       0.910   4.128  20.639  0.00  0.00    +0.000 OA
BRANCH  16  18
ATOM     18  C   UNL     1       2.266   6.135  20.623  0.00  0.00    +0.000 C 
BRANCH  18  23
ATOM     19  C   UNL     1       1.159   9.538  19.307  0.00  0.00    +0.000 A 
ATOM     20  C   UNL     1       0.277   9.943  20.310  0.00  0.00    +0.000 A 
ATOM     21  C   UNL     1       0.012   9.111  21.398  0.00  0.00    +0.000 A 
ATOM     22  C   UNL     1       0.637   7.868  21.496  0.00  0.00    +0.000 A 
ATOM     23  C   UNL     1       1.525   7.442  20.499  0.00  0.00    +0.000 A 
ATOM     24  C   UNL     1       1.771   8.286  19.401  0.00  0.00    +0.000 A 
BRANCH  19  26
ATOM     25  C   UNL     1       1.809  11.742  18.695  0.00  0.00    +0.000 C 
ATOM     26  O   UNL     1       1.354  10.452  18.307  0.00  0.00    +0.000 OA
ENDBRANCH  19  26
ENDBRANCH  18  23
ENDBRANCH  16  18
ENDBRANCH  15  16
ENDBRANCH   1  15
TORSDOF 8
ENDMDL
MODEL 7
REMARK VINA RESULT:      -6.6      2.731      6.294
REMARK  Name = 
REMARK  10 active torsions:
REMARK  status: ('A' for Active; 'I' for Inactive)
REMARK    1  A    between atoms: C_1  and  O_2
REMARK    2  A    between atoms: O_2  and  C_3
REMARK    3  A    between atoms: C_7  and  C_8
REMARK    4  A    between atoms: C_8  and  C_9
REMARK    5  A    between atoms: C_9  and  O_11
REMARK    6  A    between atoms: O_11  and  C_12
REMARK    7  A    between atoms: C_12  and  C_13
REMARK    8  A    between atoms: N_15  and  C_16
REMARK    9  A    between atoms: C_16  and  C_17
REMARK   10  A    between atoms: C_16  and  C_18
REMARK                            x       y       z     vdW  Elec       q    Type
REMARK                         _______ _______ _______ _____ _____    ______ ____
ROOT
ATOM      1  C   UNL     1       5.926   4.088  19.640  0.00  0.00    +0.000 C 
ENDROOT
BRANCH   1   2
ATOM      2  C   UNL     1       4.571   4.177  18.937  0.00  0.00    +0.000 C 
ATOM      3  O   UNL     1       4.200   3.335  18.120  0.00  0.00    +0.000 OA
ATOM      4  N   UNL     1       3.816   5.269  19.302  0.00  0.00    +0.000 N 
ATOM      5  H   UNL     1       4.081   5.736  20.167  0.00  0.00    +0.000 HD
BRANCH   4   6
ATOM      6  C   UNL     1       2.463   5.473  18.812  0.00  0.00    +0.000 C 
ATOM      7  C   UNL     1       1.472   4.558  19.535  0.00  0.00    +0.000 C 
BRANCH   6   8
ATOM      8  C   UNL     1       2.078   6.938  18.945  0.00  0.00    +0.000 A 
ATOM      9  C   UNL     1       2.147   7.789  17.828  0.00  0.00    +0.000 A 
ATOM     10  C   UNL     1       1.835   9.146  17.947  0.00  0.00    +0.000 A 
ATOM     11  C   UNL     1       1.453   9.655  19.183  0.00  0.00    +0.000 A 
ATOM     12  F   UNL     1       1.169  10.960  19.300  0.00  0.00    +0.000 F 
ATOM     13  C   UNL     1       1.362   8.833  20.296  0.00  0.00    +0.000 A 
ATOM     14  C   UNL     1       1.671   7.477  20.178  0.00  0.00    +0.000 A 
ENDBRANCH   6   8
ENDBRANCH   4   6
ENDBRANCH   1   2
BRANCH   1  15
ATOM     15  O   UNL     1       6.478   5.366  19.957  0.00  0.00    +0.000 OA
BRANCH  15  16
ATOM     16  C   UNL     1       7.758   5.558  19.540  0.00  0.00    +0.000 C 
ATOM     17  O   UNL     1       8.742   5.026  20.043  0.00  0.00    +0.000 OA
BRANCH  16  18
ATOM     18  C   UNL     1       7.810   6.522  18.382  0.00  0.00    +0.000 C 
BRANCH  18  23
ATOM     19  C   UNL     1       6.352   4.715  15.356  0.00  0.00    +0.000 A 
ATOM     20  C   UNL     1       5.292   5.558  15.021  0.00  0.00    +0.000 A 
ATOM     21  C   UNL     1       5.023   6.694  15.785  0.00  0.00    +0.000 A 
ATOM     22  C   UNL     1       5.822   7.002  16.886  0.00  0.00    +0.000 A 
ATOM     23  C   UNL     1       6.890   6.168  17.240  0.00  0.00    +0.000 A 
ATOM     24  C   UNL     1       7.141   5.018  16.470  0.00  0.00    +0.000 A 
BRANCH  19  26
ATOM     25  C   UNL     1       6.384   3.895  13.124  0.00  0.00    +0.000 C 
ATOM     26  O   UNL     1       6.529   3.648  14.518  0.00  0.00    +0.000 OA
ENDBRANCH  19  26
ENDBRANCH  18  23
ENDBRANCH  16  18
ENDBRANCH  15  16
ENDBRANCH   1  15
TORSDOF 8
ENDMDL
MODEL 8
REMARK VINA RESULT:      -6.6      4.156      8.242
REMARK  Name = 
REMARK  10 active torsions:
REMARK  status: ('A' for Active; 'I' for Inactive)
REMARK    1  A    between atoms: C_1  and  O_2
REMARK    2  A    between atoms: O_2  and  C_3
REMARK    3  A    between atoms: C_7  and  C_8
REMARK    4  A    between atoms: C_8  and  C_9
REMARK    5  A    between atoms: C_9  and  O_11
REMARK    6  A    between atoms: O_11  and  C_12
REMARK    7  A    between atoms: C_12  and  C_13
REMARK    8  A    between atoms: N_15  and  C_16
REMARK    9  A    between atoms: C_16  and  C_17
REMARK   10  A    between atoms: C_16  and  C_18
REMARK                            x       y       z     vdW  Elec       q    Type
REMARK                         _______ _______ _______ _____ _____    ______ ____
ROOT
ATOM      1  C   UNL     1       2.515   8.282  17.915  0.00  0.00    +0.000 C 
ENDROOT
BRANCH   1   2
ATOM      2  C   UNL     1       1.557   9.019  18.851  0.00  0.00    +0.000 C 
ATOM      3  O   UNL     1       1.465   8.742  20.045  0.00  0.00    +0.000 OA
ATOM      4  N   UNL     1       0.820  10.008  18.239  0.00  0.00    +0.000 N 
ATOM      5  H   UNL     1       1.163  10.340  17.340  0.00  0.00    +0.000 HD
BRANCH   4   6
ATOM      6  C   UNL     1      -0.075  10.878  18.983  0.00  0.00    +0.000 C 
ATOM      7  C   UNL     1       0.499  12.292  19.092  0.00  0.00    +0.000 C 
BRANCH   6   8
ATOM      8  C   UNL     1      -1.453  10.876  18.341  0.00  0.00    +0.000 A 
ATOM      9  C   UNL     1      -1.699  10.089  17.203  0.00  0.00    +0.000 A 
ATOM     10  C   UNL     1      -2.951  10.110  16.580  0.00  0.00    +0.000 A 
ATOM     11  C   UNL     1      -3.958  10.917  17.094  0.00  0.00    +0.000 A 
ATOM     12  F   UNL     1      -5.153  10.949  16.487  0.00  0.00    +0.000 F 
ATOM     13  C   UNL     1      -3.745  11.691  18.226  0.00  0.00    +0.000 A 
ATOM     14  C   UNL     1      -2.498  11.669  18.850  0.00  0.00    +0.000 A 
ENDBRANCH   6   8
ENDBRANCH   4   6
ENDBRANCH   1   2
BRANCH   1  15
ATOM     15  O   UNL     1       2.109   6.942  17.637  0.00  0.00    +0.000 OA
BRANCH  15  16
ATOM     16  C   UNL     1       2.797   5.981  18.310  0.00  0.00    +0.000 C 
ATOM     17  O   UNL     1       2.546   5.617  19.454  0.00  0.00    +0.000 OA
BRANCH  16  18
ATOM     18  C   UNL     1       3.917   5.428  17.466  0.00  0.00    +0.000 C 
BRANCH  18  23
ATOM     19  C   UNL     1       7.239   7.288  17.678  0.00  0.00    +0.000 A 
ATOM     20  C   UNL     1       7.913   6.533  18.638  0.00  0.00    +0.000 A 
ATOM     21  C   UNL     1       7.291   5.440  19.243  0.00  0.00    +0.000 A 
ATOM     22  C   UNL     1       5.990   5.088  18.883  0.00  0.00    +0.000 A 
ATOM     23  C   UNL     1       5.296   5.835  17.922  0.00  0.00    +0.000 A 
ATOM     24  C   UNL     1       5.930   6.942  17.331  0.00  0.00    +0.000 A 
BRANCH  19  26
ATOM     25  C   UNL     1       8.361   9.355  18.029  0.00  0.00    +0.000 C 
ATOM     26  O   UNL     1       7.963   8.317  17.141  0.00  0.00    +0.000 OA
ENDBRANCH  19  26
ENDBRANCH  18  23
ENDBRANCH  16  18
ENDBRANCH  15  16
ENDBRANCH   1  15
TORSDOF 8
ENDMDL
MODEL 9
REMARK VINA RESULT:      -6.6      3.834      6.618
REMARK  Name = 
REMARK  10 active torsions:
REMARK  status: ('A' for Active; 'I' for Inactive)
REMARK    1  A    between atoms: C_1  and  O_2
REMARK    2  A    between atoms: O_2  and  C_3
REMARK    3  A    between atoms: C_7  and  C_8
REMARK    4  A    between atoms: C_8  and  C_9
REMARK    5  A    between atoms: C_9  and  O_11
REMARK    6  A    between atoms: O_11  and  C_12
REMARK    7  A    between atoms: C_12  and  C_13
REMARK    8  A    between atoms: N_15  and  C_16
REMARK    9  A    between atoms: C_16  and  C_17
REMARK   10  A    between atoms: C_16  and  C_18
REMARK                            x       y       z     vdW  Elec       q    Type
REMARK                         _______ _______ _______ _____ _____    ______ ____
ROOT
ATOM      1  C   UNL     1       1.169   9.723  19.563  0.00  0.00    +0.000 C 
ENDROOT
BRANCH   1   2
ATOM      2  C   UNL     1       1.752   8.854  18.448  0.00  0.00    +0.000 C 
ATOM      3  O   UNL     1       1.939   9.285  17.312  0.00  0.00    +0.000 OA
ATOM      4  N   UNL     1       2.045   7.565  18.833  0.00  0.00    +0.000 N 
ATOM      5  H   UNL     1       2.119   7.395  19.834  0.00  0.00    +0.000 HD
BRANCH   4   6
ATOM      6  C   UNL     1       2.692   6.620  17.938  0.00  0.00    +0.000 C 
ATOM      7  C   UNL     1       4.204   6.853  17.891  0.00  0.00    +0.000 C 
BRANCH   6   8
ATOM      8  C   UNL     1       2.353   5.197  18.354  0.00  0.00    +0.000 A 
ATOM      9  C   UNL     1       1.903   4.933  19.659  0.00  0.00    +0.000 A 
ATOM     10  C   UNL     1       1.626   3.624  20.065  0.00  0.00    +0.000 A 
ATOM     11  C   UNL     1       1.800   2.577  19.168  0.00  0.00    +0.000 A 
ATOM     12  F   UNL     1       1.550   1.321  19.563  0.00  0.00    +0.000 F 
ATOM     13  C   UNL     1       2.228   2.813  17.870  0.00  0.00    +0.000 A 
ATOM     14  C   UNL     1       2.502   4.120  17.462  0.00  0.00    +0.000 A 
ENDBRANCH   6   8
ENDBRANCH   4   6
ENDBRANCH   1   2
BRANCH   1  15
ATOM     15  O   UNL     1       1.217  11.119  19.270  0.00  0.00    +0.000 OA
BRANCH  15  16
ATOM     16  C   UNL     1       0.021  11.679  18.944  0.00  0.00    +0.000 C 
ATOM     17  O   UNL     1      -0.132  12.849  18.608  0.00  0.00    +0.000 OA
BRANCH  16  18
ATOM     18  C   UNL     1      -1.095  10.673  19.060  0.00  0.00    +0.000 C 
BRANCH  18  23
ATOM     19  C   UNL     1      -4.188  11.472  16.977  0.00  0.00    +0.000 A 
ATOM     20  C   UNL     1      -3.985  10.655  15.865  0.00  0.00    +0.000 A 
ATOM     21  C   UNL     1      -2.838   9.866  15.766  0.00  0.00    +0.000 A 
ATOM     22  C   UNL     1      -1.888   9.882  16.787  0.00  0.00    +0.000 A 
ATOM     23  C   UNL     1      -2.073  10.697  17.912  0.00  0.00    +0.000 A 
ATOM     24  C   UNL     1      -3.227  11.497  17.992  0.00  0.00    +0.000 A 
BRANCH  19  26
ATOM     25  C   UNL     1      -5.906  12.534  18.233  0.00  0.00    +0.000 C 
ATOM     26  O   UNL     1      -5.361  12.177  16.969  0.00  0.00    +0.000 OA
ENDBRANCH  19  26
ENDBRANCH  18  23
ENDBRANCH  16  18
ENDBRANCH  15  16
ENDBRANCH   1  15
TORSDOF 8
ENDMDL
