MODEL 1
REMARK VINA RESULT:      -8.5      0.000      0.000
REMARK  Name = 
REMARK  3 active torsions:
REMARK  status: ('A' for Active; 'I' for Inactive)
REMARK    1  A    between atoms: C_2  and  C_4
REMARK    2  A    between atoms: C_4  and  C_5
REMARK    3  A    between atoms: C_16  and  C_18
REMARK                            x       y       z     vdW  Elec       q    Type
REMARK                         _______ _______ _______ _____ _____    ______ ____
ROOT
ATOM      1  C   UNL     1       2.653   5.262  19.143  0.00  0.00    +0.000 C 
ATOM      2  C   UNL     1       3.868   4.457  19.595  0.00  0.00    +0.000 C 
ATOM      3  O   UNL     1       4.392   3.720  18.499  0.00  0.00    +0.000 OA
ATOM      4  C   UNL     1       4.629   4.533  17.412  0.00  0.00    +0.000 A 
ATOM      5  C   UNL     1       5.436   3.938  16.441  0.00  0.00    +0.000 A 
ATOM      6  C   UNL     1       5.789   4.664  15.315  0.00  0.00    +0.000 A 
ATOM      7 CL   UNL     1       6.789   3.943  14.119  0.00  0.00    +0.000 Cl
ATOM      8  C   UNL     1       5.336   5.969  15.158  0.00  0.00    +0.000 A 
ATOM      9  C   UNL     1       4.490   6.551  16.117  0.00  0.00    +0.000 A 
ATOM     10  C   UNL     1       4.103   5.840  17.259  0.00  0.00    +0.000 A 
ATOM     11  N   UNL     1       3.161   6.351  18.244  0.00  0.00    +0.000 N 
ATOM     12  C   UNL     1       2.860   7.726  18.364  0.00  0.00    +0.000 C 
ATOM     13  O   UNL     1       3.363   8.611  17.668  0.00  0.00    +0.000 OA
ENDROOT
BRANCH  12  14
ATOM     14  C   UNL     1       1.949   8.229  19.441  0.00  0.00    +0.000 A 
ATOM     15  C   UNL     1       1.701   7.534  20.630  0.00  0.00    +0.000 A 
ATOM     16  C   UNL     1       0.890   8.067  21.626  0.00  0.00    +0.000 A 
ATOM     17  C   UNL     1       0.229   9.262  21.404  0.00  0.00    +0.000 A 
ATOM     18  C   UNL     1       0.378   9.925  20.182  0.00  0.00    +0.000 A 
ATOM     19  C   UNL     1       1.248   9.424  19.211  0.00  0.00    +0.000 A 
ATOM     20  N   UNL     1      -0.406  11.049  19.912  0.00  0.00    +0.000 N 
ATOM     21  C   UNL     1      -1.261  11.557  20.855  0.00  0.00    +0.000 C 
ATOM     22  O   UNL     1      -2.077  12.434  20.588  0.00  0.00    +0.000 OA
ATOM     23  C   UNL     1      -1.035  11.017  22.266  0.00  0.00    +0.000 C 
ATOM     24  O   UNL     1      -0.614   9.671  22.399  0.00  0.00    +0.000 OA
ATOM     25  H   UNL     1      -0.451  11.446  18.982  0.00  0.00    +0.000 HD
ENDBRANCH  12  14
BRANCH   1  26
ATOM     26  C   UNL     1       1.566   4.453  18.379  0.00  0.00    +0.000 C 
BRANCH  26  28
ATOM     27  N   UNL     1       0.568   3.473  20.353  0.00  0.00    +0.000 N 
ATOM     28  C   UNL     1       1.059   3.234  19.103  0.00  0.00    +0.000 C 
ATOM     29  O   UNL     1       1.100   2.096  18.646  0.00  0.00    +0.000 OA
ATOM     30  H   UNL     1       0.174   2.690  20.862  0.00  0.00    +0.000 HD
ATOM     31  H   UNL     1       0.394   4.401  20.716  0.00  0.00    +0.000 HD
ENDBRANCH  26  28
ENDBRANCH   1  26
TORSDOF 3
ENDMDL
MODEL 2
REMARK VINA RESULT:      -8.4      3.920      8.847
REMARK  Name = 
REMARK  3 active torsions:
REMARK  status: ('A' for Active; 'I' for Inactive)
REMARK    1  A    between atoms: C_2  and  C_4
REMARK    2  A    between atoms: C_4  and  C_5
REMARK    3  A    between atoms: C_16  and  C_18
REMARK                            x       y       z     vdW  Elec       q    Type
REMARK                         _______ _______ _______ _____ _____    ______ ____
ROOT
ATOM      1  C   UNL     1      -0.594  10.891  18.799  0.00  0.00    +0.000 C 
ATOM      2  C   UNL     1      -0.453  12.391  18.563  0.00  0.00    +0.000 C 
ATOM      3  O   UNL     1      -1.543  13.078  19.163  0.00  0.00    +0.000 OA
ATOM      4  C   UNL     1      -1.690  12.729  20.488  0.00  0.00    +0.000 A 
ATOM      5  C   UNL     1      -2.516  13.599  21.201  0.00  0.00    +0.000 A 
ATOM      6  C   UNL     1      -2.713  13.390  22.557  0.00  0.00    +0.000 A 
ATOM      7 CL   UNL     1      -3.720  14.460  23.444  0.00  0.00    +0.000 Cl
ATOM      8  C   UNL     1      -2.095  12.318  23.191  0.00  0.00    +0.000 A 
ATOM      9  C   UNL     1      -1.297  11.419  22.463  0.00  0.00    +0.000 A 
ATOM     10  C   UNL     1      -1.090  11.595  21.089  0.00  0.00    +0.000 A 
ATOM     11  N   UNL     1      -0.349  10.655  20.261  0.00  0.00    +0.000 N 
ATOM     12  C   UNL     1       0.551   9.712  20.805  0.00  0.00    +0.000 C 
ATOM     13  O   UNL     1       0.801   9.601  22.007  0.00  0.00    +0.000 OA
ENDROOT
BRANCH  12  14
ATOM     14  C   UNL     1       1.360   8.813  19.920  0.00  0.00    +0.000 A 
ATOM     15  C   UNL     1       1.614   9.083  18.570  0.00  0.00    +0.000 A 
ATOM     16  C   UNL     1       2.417   8.246  17.802  0.00  0.00    +0.000 A 
ATOM     17  C   UNL     1       2.895   7.067  18.347  0.00  0.00    +0.000 A 
ATOM     18  C   UNL     1       2.568   6.723  19.662  0.00  0.00    +0.000 A 
ATOM     19  C   UNL     1       1.821   7.599  20.453  0.00  0.00    +0.000 A 
ATOM     20  N   UNL     1       2.931   5.467  20.152  0.00  0.00    +0.000 N 
ATOM     21  C   UNL     1       3.669   4.598  19.391  0.00  0.00    +0.000 C 
ATOM     22  O   UNL     1       3.855   3.433  19.731  0.00  0.00    +0.000 OA
ATOM     23  C   UNL     1       4.313   5.230  18.159  0.00  0.00    +0.000 C 
ATOM     24  O   UNL     1       3.603   6.264  17.499  0.00  0.00    +0.000 OA
ATOM     25  H   UNL     1       2.564   5.120  21.029  0.00  0.00    +0.000 HD
ENDBRANCH  12  14
BRANCH   1  26
ATOM     26  C   UNL     1      -1.976  10.284  18.424  0.00  0.00    +0.000 C 
BRANCH  26  28
ATOM     27  N   UNL     1      -3.396  11.746  17.117  0.00  0.00    +0.000 N 
ATOM     28  C   UNL     1      -2.509  10.710  17.080  0.00  0.00    +0.000 C 
ATOM     29  O   UNL     1      -2.212  10.168  16.020  0.00  0.00    +0.000 OA
ATOM     30  H   UNL     1      -3.747  12.096  16.233  0.00  0.00    +0.000 HD
ATOM     31  H   UNL     1      -3.567  12.304  17.943  0.00  0.00    +0.000 HD
ENDBRANCH  26  28
ENDBRANCH   1  26
TORSDOF 3
ENDMDL
MODEL 3
REMARK VINA RESULT:      -8.0      1.550      1.619
REMARK  Name = 
REMARK  3 active torsions:
REMARK  status: ('A' for Active; 'I' for Inactive)
REMARK    1  A    between atoms: C_2  and  C_4
REMARK    2  A    between atoms: C_4  and  C_5
REMARK    3  A    between atoms: C_16  and  C_18
REMARK                            x       y       z     vdW  Elec       q    Type
REMARK                         _______ _______ _______ _____ _____    ______ ____
ROOT
ATOM      1  C   UNL     1       4.228   5.292  19.234  0.00  0.00    +0.000 C 
ATOM      2  C   UNL     1       5.730   5.219  19.494  0.00  0.00    +0.000 C 
ATOM      3  O   UNL     1       6.362   4.476  18.461  0.00  0.00    +0.000 OA
ATOM      4  C   UNL     1       6.030   4.963  17.215  0.00  0.00    +0.000 A 
ATOM      5  C   UNL     1       6.863   4.494  16.198  0.00  0.00    +0.000 A 
ATOM      6  C   UNL     1       6.669   4.942  14.901  0.00  0.00    +0.000 A 
ATOM      7 CL   UNL     1       7.694   4.378  13.644  0.00  0.00    +0.000 Cl
ATOM      8  C   UNL     1       5.648   5.845  14.623  0.00  0.00    +0.000 A 
ATOM      9  C   UNL     1       4.784   6.283  15.641  0.00  0.00    +0.000 A 
ATOM     10  C   UNL     1       4.946   5.839  16.960  0.00  0.00    +0.000 A 
ATOM     11  N   UNL     1       4.036   6.184  18.042  0.00  0.00    +0.000 N 
ATOM     12  C   UNL     1       3.158   7.289  17.971  0.00  0.00    +0.000 C 
ATOM     13  O   UNL     1       3.086   8.059  17.012  0.00  0.00    +0.000 OA
ENDROOT
BRANCH  12  14
ATOM     14  C   UNL     1       2.293   7.666  19.135  0.00  0.00    +0.000 A 
ATOM     15  C   UNL     1       1.980   6.792  20.181  0.00  0.00    +0.000 A 
ATOM     16  C   UNL     1       1.218   7.205  21.268  0.00  0.00    +0.000 A 
ATOM     17  C   UNL     1       0.667   8.474  21.274  0.00  0.00    +0.000 A 
ATOM     18  C   UNL     1       0.877   9.331  20.191  0.00  0.00    +0.000 A 
ATOM     19  C   UNL     1       1.701   8.940  19.133  0.00  0.00    +0.000 A 
ATOM     20  N   UNL     1       0.197  10.550  20.139  0.00  0.00    +0.000 N 
ATOM     21  C   UNL     1      -0.612  10.952  21.170  0.00  0.00    +0.000 C 
ATOM     22  O   UNL     1      -1.346  11.932  21.077  0.00  0.00    +0.000 OA
ATOM     23  C   UNL     1      -0.439  10.148  22.456  0.00  0.00    +0.000 C 
ATOM     24  O   UNL     1      -0.139   8.768  22.339  0.00  0.00    +0.000 OA
ATOM     25  H   UNL     1       0.190  11.112  19.297  0.00  0.00    +0.000 HD
ENDBRANCH  12  14
BRANCH   1  26
ATOM     26  C   UNL     1       3.533   3.930  18.953  0.00  0.00    +0.000 C 
BRANCH  26  28
ATOM     27  N   UNL     1       4.805   2.033  19.755  0.00  0.00    +0.000 N 
ATOM     28  C   UNL     1       3.761   2.875  20.004  0.00  0.00    +0.000 C 
ATOM     29  O   UNL     1       3.061   2.738  21.002  0.00  0.00    +0.000 OA
ATOM     30  H   UNL     1       5.024   1.335  20.456  0.00  0.00    +0.000 HD
ATOM     31  H   UNL     1       5.483   2.187  19.021  0.00  0.00    +0.000 HD
ENDBRANCH  26  28
ENDBRANCH   1  26
TORSDOF 3
ENDMDL
MODEL 4
REMARK VINA RESULT:      -7.9      4.111      9.245
REMARK  Name = 
REMARK  3 active torsions:
REMARK  status: ('A' for Active; 'I' for Inactive)
REMARK    1  A    between atoms: C_2  and  C_4
REMARK    2  A    between atoms: C_4  and  C_5
REMARK    3  A    between atoms: C_16  and  C_18
REMARK                            x       y       z     vdW  Elec       q    Type
REMARK                         _______ _______ _______ _____ _____    ______ ____
ROOT
ATOM      1  C   UNL     1       1.338  12.070  20.205  0.00  0.00    +0.000 C 
ATOM      2  C   UNL     1       2.020  12.926  21.269  0.00  0.00    +0.000 C 
ATOM      3  O   UNL     1       1.110  13.903  21.756  0.00  0.00    +0.000 OA
ATOM      4  C   UNL     1      -0.072  13.329  22.170  0.00  0.00    +0.000 A 
ATOM      5  C   UNL     1      -0.858  14.180  22.948  0.00  0.00    +0.000 A 
ATOM      6  C   UNL     1      -2.054  13.711  23.468  0.00  0.00    +0.000 A 
ATOM      7 CL   UNL     1      -3.024  14.748  24.435  0.00  0.00    +0.000 Cl
ATOM      8  C   UNL     1      -2.463  12.408  23.207  0.00  0.00    +0.000 A 
ATOM      9  C   UNL     1      -1.691  11.567  22.389  0.00  0.00    +0.000 A 
ATOM     10  C   UNL     1      -0.484  12.014  21.837  0.00  0.00    +0.000 A 
ATOM     11  N   UNL     1       0.318  11.226  20.913  0.00  0.00    +0.000 N 
ATOM     12  C   UNL     1       0.182   9.825  20.795  0.00  0.00    +0.000 C 
ATOM     13  O   UNL     1      -0.605   9.145  21.456  0.00  0.00    +0.000 OA
ENDROOT
BRANCH  12  14
ATOM     14  C   UNL     1       1.079   9.033  19.894  0.00  0.00    +0.000 A 
ATOM     15  C   UNL     1       1.272   9.329  18.540  0.00  0.00    +0.000 A 
ATOM     16  C   UNL     1       2.158   8.597  17.757  0.00  0.00    +0.000 A 
ATOM     17  C   UNL     1       2.790   7.488  18.292  0.00  0.00    +0.000 A 
ATOM     18  C   UNL     1       2.533   7.109  19.613  0.00  0.00    +0.000 A 
ATOM     19  C   UNL     1       1.698   7.886  20.419  0.00  0.00    +0.000 A 
ATOM     20  N   UNL     1       3.059   5.908  20.095  0.00  0.00    +0.000 N 
ATOM     21  C   UNL     1       3.885   5.136  19.320  0.00  0.00    +0.000 C 
ATOM     22  O   UNL     1       4.221   4.005  19.656  0.00  0.00    +0.000 OA
ATOM     23  C   UNL     1       4.421   5.842  18.076  0.00  0.00    +0.000 C 
ATOM     24  O   UNL     1       3.576   6.778  17.430  0.00  0.00    +0.000 OA
ATOM     25  H   UNL     1       2.755   5.521  20.979  0.00  0.00    +0.000 HD
ENDBRANCH  12  14
BRANCH   1  26
ATOM     26  C   UNL     1       0.628  12.860  19.069  0.00  0.00    +0.000 C 
BRANCH  26  28
ATOM     27  N   UNL     1       2.395  13.203  17.452  0.00  0.00    +0.000 N 
ATOM     28  C   UNL     1       1.517  13.806  18.305  0.00  0.00    +0.000 C 
ATOM     29  O   UNL     1       1.501  15.025  18.440  0.00  0.00    +0.000 OA
ATOM     30  H   UNL     1       2.984  13.801  16.883  0.00  0.00    +0.000 HD
ATOM     31  H   UNL     1       2.355  12.221  17.212  0.00  0.00    +0.000 HD
ENDBRANCH  26  28
ENDBRANCH   1  26
TORSDOF 3
ENDMDL
MODEL 5
REMARK VINA RESULT:      -7.8      1.270      1.909
REMARK  Name = 
REMARK  3 active torsions:
REMARK  status: ('A' for Active; 'I' for Inactive)
REMARK    1  A    between atoms: C_2  and  C_4
REMARK    2  A    between atoms: C_4  and  C_5
REMARK    3  A    between atoms: C_16  and  C_18
REMARK                            x       y       z     vdW  Elec       q    Type
REMARK                         _______ _______ _______ _____ _____    ______ ____
ROOT
ATOM      1  C   UNL     1       2.564   5.834  19.029  0.00  0.00    +0.000 C 
ATOM      2  C   UNL     1       3.778   5.175  19.676  0.00  0.00    +0.000 C 
ATOM      3  O   UNL     1       4.391   4.285  18.753  0.00  0.00    +0.000 OA
ATOM      4  C   UNL     1       4.662   4.909  17.555  0.00  0.00    +0.000 A 
ATOM      5  C   UNL     1       5.545   4.193  16.745  0.00  0.00    +0.000 A 
ATOM      6  C   UNL     1       5.939   4.730  15.530  0.00  0.00    +0.000 A 
ATOM      7 CL   UNL     1       7.032   3.861  14.530  0.00  0.00    +0.000 Cl
ATOM      8  C   UNL     1       5.449   5.968  15.125  0.00  0.00    +0.000 A 
ATOM      9  C   UNL     1       4.529   6.667  15.923  0.00  0.00    +0.000 A 
ATOM     10  C   UNL     1       4.101   6.145  17.150  0.00  0.00    +0.000 A 
ATOM     11  N   UNL     1       3.086   6.775  17.982  0.00  0.00    +0.000 N 
ATOM     12  C   UNL     1       2.730   8.136  17.845  0.00  0.00    +0.000 C 
ATOM     13  O   UNL     1       3.241   8.910  17.033  0.00  0.00    +0.000 OA
ENDROOT
BRANCH  12  14
ATOM     14  C   UNL     1       1.740   8.774  18.771  0.00  0.00    +0.000 A 
ATOM     15  C   UNL     1       0.767   9.687  18.351  0.00  0.00    +0.000 A 
ATOM     16  C   UNL     1      -0.167  10.212  19.239  0.00  0.00    +0.000 A 
ATOM     17  C   UNL     1      -0.074   9.910  20.586  0.00  0.00    +0.000 A 
ATOM     18  C   UNL     1       0.955   9.084  21.047  0.00  0.00    +0.000 A 
ATOM     19  C   UNL     1       1.847   8.501  20.145  0.00  0.00    +0.000 A 
ATOM     20  N   UNL     1       1.127   8.906  22.422  0.00  0.00    +0.000 N 
ATOM     21  C   UNL     1       0.257   9.466  23.321  0.00  0.00    +0.000 C 
ATOM     22  O   UNL     1       0.480   9.466  24.528  0.00  0.00    +0.000 OA
ATOM     23  C   UNL     1      -1.039   9.985  22.703  0.00  0.00    +0.000 C 
ATOM     24  O   UNL     1      -0.977  10.536  21.399  0.00  0.00    +0.000 OA
ATOM     25  H   UNL     1       1.956   8.461  22.793  0.00  0.00    +0.000 HD
ENDBRANCH  12  14
BRANCH   1  26
ATOM     26  C   UNL     1       1.553   4.859  18.361  0.00  0.00    +0.000 C 
BRANCH  26  28
ATOM     27  N   UNL     1       1.714   2.453  18.565  0.00  0.00    +0.000 N 
ATOM     28  C   UNL     1       1.272   3.605  19.147  0.00  0.00    +0.000 C 
ATOM     29  O   UNL     1       0.667   3.584  20.214  0.00  0.00    +0.000 OA
ATOM     30  H   UNL     1       1.588   1.588  19.078  0.00  0.00    +0.000 HD
ATOM     31  H   UNL     1       2.327   2.434  17.761  0.00  0.00    +0.000 HD
ENDBRANCH  26  28
ENDBRANCH   1  26
TORSDOF 3
ENDMDL
MODEL 6
REMARK VINA RESULT:      -7.8      4.042      9.011
REMARK  Name = 
REMARK  3 active torsions:
REMARK  status: ('A' for Active; 'I' for Inactive)
REMARK    1  A    between atoms: C_2  and  C_4
REMARK    2  A    between atoms: C_4  and  C_5
REMARK    3  A    between atoms: C_16  and  C_18
REMARK                            x       y       z     vdW  Elec       q    Type
REMARK                         _______ _______ _______ _____ _____    ______ ____
ROOT
ATOM      1  C   UNL     1      -0.599  11.589  19.070  0.00  0.00    +0.000 C 
ATOM      2  C   UNL     1      -0.289  13.041  18.719  0.00  0.00    +0.000 C 
ATOM      3  O   UNL     1      -1.247  13.898  19.326  0.00  0.00    +0.000 OA
ATOM      4  C   UNL     1      -1.353  13.657  20.678  0.00  0.00    +0.000 A 
ATOM      5  C   UNL     1      -2.019  14.669  21.370  0.00  0.00    +0.000 A 
ATOM      6  C   UNL     1      -2.156  14.574  22.746  0.00  0.00    +0.000 A 
ATOM      7 CL   UNL     1      -2.967  15.819  23.608  0.00  0.00    +0.000 Cl
ATOM      8  C   UNL     1      -1.637  13.476  23.422  0.00  0.00    +0.000 A 
ATOM      9  C   UNL     1      -1.003  12.438  22.719  0.00  0.00    +0.000 A 
ATOM     10  C   UNL     1      -0.861  12.497  21.327  0.00  0.00    +0.000 A 
ATOM     11  N   UNL     1      -0.295  11.419  20.530  0.00  0.00    +0.000 N 
ATOM     12  C   UNL     1       0.514  10.405  21.091  0.00  0.00    +0.000 C 
ATOM     13  O   UNL     1       0.822  10.341  22.283  0.00  0.00    +0.000 OA
ENDROOT
BRANCH  12  14
ATOM     14  C   UNL     1       1.149   9.356  20.230  0.00  0.00    +0.000 A 
ATOM     15  C   UNL     1       1.350   9.504  18.853  0.00  0.00    +0.000 A 
ATOM     16  C   UNL     1       1.995   8.524  18.105  0.00  0.00    +0.000 A 
ATOM     17  C   UNL     1       2.357   7.331  18.707  0.00  0.00    +0.000 A 
ATOM     18  C   UNL     1       2.072   7.117  20.059  0.00  0.00    +0.000 A 
ATOM     19  C   UNL     1       1.489   8.130  20.824  0.00  0.00    +0.000 A 
ATOM     20  N   UNL     1       2.306   5.859  20.617  0.00  0.00    +0.000 N 
ATOM     21  C   UNL     1       2.883   4.856  19.882  0.00  0.00    +0.000 C 
ATOM     22  O   UNL     1       2.944   3.701  20.294  0.00  0.00    +0.000 OA
ATOM     23  C   UNL     1       3.522   5.320  18.576  0.00  0.00    +0.000 C 
ATOM     24  O   UNL     1       2.906   6.391  17.882  0.00  0.00    +0.000 OA
ATOM     25  H   UNL     1       1.955   5.619  21.536  0.00  0.00    +0.000 HD
ENDBRANCH  12  14
BRANCH   1  26
ATOM     26  C   UNL     1      -2.066  11.141  18.813  0.00  0.00    +0.000 C 
BRANCH  26  28
ATOM     27  N   UNL     1      -1.607   9.980  16.740  0.00  0.00    +0.000 N 
ATOM     28  C   UNL     1      -2.407  10.890  17.367  0.00  0.00    +0.000 C 
ATOM     29  O   UNL     1      -3.306  11.465  16.763  0.00  0.00    +0.000 OA
ATOM     30  H   UNL     1      -1.825   9.745  15.778  0.00  0.00    +0.000 HD
ATOM     31  H   UNL     1      -0.945   9.390  17.226  0.00  0.00    +0.000 HD
ENDBRANCH  26  28
ENDBRANCH   1  26
TORSDOF 3
ENDMDL
MODEL 7
REMARK VINA RESULT:      -7.7      4.618      7.750
REMARK  Name = 
REMARK  3 active torsions:
REMARK  status: ('A' for Active; 'I' for Inactive)
REMARK    1  A    between atoms: C_2  and  C_4
REMARK    2  A    between atoms: C_4  and  C_5
REMARK    3  A    between atoms: C_16  and  C_18
REMARK                            x       y       z     vdW  Elec       q    Type
REMARK                         _______ _______ _______ _____ _____    ______ ____
ROOT
ATOM      1  C   UNL     1      -0.643  12.281  20.243  0.00  0.00    +0.000 C 
ATOM      2  C   UNL     1      -1.101  11.545  18.988  0.00  0.00    +0.000 C 
ATOM      3  O   UNL     1      -0.040  10.745  18.485  0.00  0.00    +0.000 OA
ATOM      4  C   UNL     1       0.478   9.922  19.462  0.00  0.00    +0.000 A 
ATOM      5  C   UNL     1       1.282   8.900  18.955  0.00  0.00    +0.000 A 
ATOM      6  C   UNL     1       1.830   7.973  19.828  0.00  0.00    +0.000 A 
ATOM      7 CL   UNL     1       2.814   6.706  19.213  0.00  0.00    +0.000 Cl
ATOM      8  C   UNL     1       1.582   8.071  21.192  0.00  0.00    +0.000 A 
ATOM      9  C   UNL     1       0.807   9.125  21.704  0.00  0.00    +0.000 A 
ATOM     10  C   UNL     1       0.250  10.086  20.851  0.00  0.00    +0.000 A 
ATOM     11  N   UNL     1      -0.488  11.249  21.322  0.00  0.00    +0.000 N 
ATOM     12  C   UNL     1      -1.050  11.317  22.616  0.00  0.00    +0.000 C 
ATOM     13  O   UNL     1      -0.982  10.414  23.452  0.00  0.00    +0.000 OA
ENDROOT
BRANCH  12  14
ATOM     14  C   UNL     1      -1.873  12.494  23.042  0.00  0.00    +0.000 A 
ATOM     15  C   UNL     1      -1.325  13.679  23.546  0.00  0.00    +0.000 A 
ATOM     16  C   UNL     1      -2.127  14.766  23.877  0.00  0.00    +0.000 A 
ATOM     17  C   UNL     1      -3.504  14.646  23.806  0.00  0.00    +0.000 A 
ATOM     18  C   UNL     1      -4.080  13.437  23.406  0.00  0.00    +0.000 A 
ATOM     19  C   UNL     1      -3.272  12.371  23.006  0.00  0.00    +0.000 A 
ATOM     20  N   UNL     1      -5.466  13.281  23.480  0.00  0.00    +0.000 N 
ATOM     21  C   UNL     1      -6.274  14.319  23.865  0.00  0.00    +0.000 C 
ATOM     22  O   UNL     1      -7.469  14.160  24.098  0.00  0.00    +0.000 OA
ATOM     23  C   UNL     1      -5.588  15.682  23.872  0.00  0.00    +0.000 C 
ATOM     24  O   UNL     1      -4.218  15.732  24.230  0.00  0.00    +0.000 OA
ATOM     25  H   UNL     1      -5.898  12.373  23.366  0.00  0.00    +0.000 HD
ENDBRANCH  12  14
BRANCH   1  26
ATOM     26  C   UNL     1       0.695  13.062  20.106  0.00  0.00    +0.000 C 
BRANCH  26  28
ATOM     27  N   UNL     1       1.739  13.282  17.934  0.00  0.00    +0.000 N 
ATOM     28  C   UNL     1       0.852  13.825  18.817  0.00  0.00    +0.000 C 
ATOM     29  O   UNL     1       0.266  14.872  18.562  0.00  0.00    +0.000 OA
ATOM     30  H   UNL     1       1.845  13.736  17.034  0.00  0.00    +0.000 HD
ATOM     31  H   UNL     1       2.141  12.360  18.044  0.00  0.00    +0.000 HD
ENDBRANCH  26  28
ENDBRANCH   1  26
TORSDOF 3
ENDMDL
MODEL 8
REMARK VINA RESULT:      -7.6      4.681      7.953
REMARK  Name = 
REMARK  3 active torsions:
REMARK  status: ('A' for Active; 'I' for Inactive)
REMARK    1  A    between atoms: C_2  and  C_4
REMARK    2  A    between atoms: C_4  and  C_5
REMARK    3  A    between atoms: C_16  and  C_18
REMARK                            x       y       z     vdW  Elec       q    Type
REMARK                         _______ _______ _______ _____ _____    ______ ____
ROOT
ATOM      1  C   UNL     1      -0.534  12.456  20.362  0.00  0.00    +0.000 C 
ATOM      2  C   UNL     1      -0.931  11.843  19.023  0.00  0.00    +0.000 C 
ATOM      3  O   UNL     1       0.128  11.033  18.531  0.00  0.00    +0.000 OA
ATOM      4  C   UNL     1       0.536  10.112  19.470  0.00  0.00    +0.000 A 
ATOM      5  C   UNL     1       1.328   9.094  18.939  0.00  0.00    +0.000 A 
ATOM      6  C   UNL     1       1.770   8.075  19.769  0.00  0.00    +0.000 A 
ATOM      7 CL   UNL     1       2.738   6.812  19.123  0.00  0.00    +0.000 Cl
ATOM      8  C   UNL     1       1.427   8.078  21.117  0.00  0.00    +0.000 A 
ATOM      9  C   UNL     1       0.664   9.126  21.658  0.00  0.00    +0.000 A 
ATOM     10  C   UNL     1       0.215  10.178  20.849  0.00  0.00    +0.000 A 
ATOM     11  N   UNL     1      -0.503  11.336  21.361  0.00  0.00    +0.000 N 
ATOM     12  C   UNL     1      -1.155  11.331  22.615  0.00  0.00    +0.000 C 
ATOM     13  O   UNL     1      -1.189  10.363  23.377  0.00  0.00    +0.000 OA
ENDROOT
BRANCH  12  14
ATOM     14  C   UNL     1      -1.954  12.511  23.077  0.00  0.00    +0.000 A 
ATOM     15  C   UNL     1      -1.389  13.636  23.685  0.00  0.00    +0.000 A 
ATOM     16  C   UNL     1      -2.165  14.732  24.048  0.00  0.00    +0.000 A 
ATOM     17  C   UNL     1      -3.540  14.674  23.901  0.00  0.00    +0.000 A 
ATOM     18  C   UNL     1      -4.140  13.519  23.394  0.00  0.00    +0.000 A 
ATOM     19  C   UNL     1      -3.353  12.448  22.964  0.00  0.00    +0.000 A 
ATOM     20  N   UNL     1      -5.533  13.415  23.389  0.00  0.00    +0.000 N 
ATOM     21  C   UNL     1      -6.320  14.458  23.801  0.00  0.00    +0.000 C 
ATOM     22  O   UNL     1      -7.530  14.334  23.964  0.00  0.00    +0.000 OA
ATOM     23  C   UNL     1      -5.584  15.789  23.933  0.00  0.00    +0.000 C 
ATOM     24  O   UNL     1      -4.233  15.758  24.362  0.00  0.00    +0.000 OA
ATOM     25  H   UNL     1      -5.992  12.535  23.192  0.00  0.00    +0.000 HD
ENDBRANCH  12  14
BRANCH   1  26
ATOM     26  C   UNL     1       0.844  13.177  20.383  0.00  0.00    +0.000 C 
BRANCH  26  28
ATOM     27  N   UNL     1       0.089  15.431  20.840  0.00  0.00    +0.000 N 
ATOM     28  C   UNL     1       0.899  14.411  21.246  0.00  0.00    +0.000 C 
ATOM     29  O   UNL     1       1.627  14.532  22.226  0.00  0.00    +0.000 OA
ATOM     30  H   UNL     1       0.058  16.265  21.414  0.00  0.00    +0.000 HD
ATOM     31  H   UNL     1      -0.618  15.330  20.124  0.00  0.00    +0.000 HD
ENDBRANCH  26  28
ENDBRANCH   1  26
TORSDOF 3
ENDMDL
MODEL 9
REMARK VINA RESULT:      -7.4      3.872      8.517
REMARK  Name = 
REMARK  3 active torsions:
REMARK  status: ('A' for Active; 'I' for Inactive)
REMARK    1  A    between atoms: C_2  and  C_4
REMARK    2  A    between atoms: C_4  and  C_5
REMARK    3  A    between atoms: C_16  and  C_18
REMARK                            x       y       z     vdW  Elec       q    Type
REMARK                         _______ _______ _______ _____ _____    ______ ____
ROOT
ATOM      1  C   UNL     1      -0.177  10.599  19.100  0.00  0.00    +0.000 C 
ATOM      2  C   UNL     1       0.307  11.952  18.587  0.00  0.00    +0.000 C 
ATOM      3  O   UNL     1      -0.605  12.970  18.976  0.00  0.00    +0.000 OA
ATOM      4  C   UNL     1      -0.846  12.938  20.332  0.00  0.00    +0.000 A 
ATOM      5  C   UNL     1      -1.461  14.095  20.813  0.00  0.00    +0.000 A 
ATOM      6  C   UNL     1      -1.719  14.213  22.169  0.00  0.00    +0.000 A 
ATOM      7 CL   UNL     1      -2.467  15.637  22.771  0.00  0.00    +0.000 Cl
ATOM      8  C   UNL     1      -1.372  13.182  23.036  0.00  0.00    +0.000 A 
ATOM      9  C   UNL     1      -0.792  12.001  22.544  0.00  0.00    +0.000 A 
ATOM     10  C   UNL     1      -0.530  11.844  21.177  0.00  0.00    +0.000 A 
ATOM     11  N   UNL     1      -0.013  10.616  20.592  0.00  0.00    +0.000 N 
ATOM     12  C   UNL     1       0.640   9.626  21.361  0.00  0.00    +0.000 C 
ATOM     13  O   UNL     1       0.841   9.709  22.575  0.00  0.00    +0.000 OA
ENDROOT
BRANCH  12  14
ATOM     14  C   UNL     1       1.233   8.411  20.717  0.00  0.00    +0.000 A 
ATOM     15  C   UNL     1       1.146   7.126  21.263  0.00  0.00    +0.000 A 
ATOM     16  C   UNL     1       1.666   6.019  20.600  0.00  0.00    +0.000 A 
ATOM     17  C   UNL     1       2.375   6.197  19.424  0.00  0.00    +0.000 A 
ATOM     18  C   UNL     1       2.567   7.483  18.913  0.00  0.00    +0.000 A 
ATOM     19  C   UNL     1       1.984   8.585  19.542  0.00  0.00    +0.000 A 
ATOM     20  N   UNL     1       3.407   7.664  17.812  0.00  0.00    +0.000 N 
ATOM     21  C   UNL     1       3.983   6.593  17.179  0.00  0.00    +0.000 C 
ATOM     22  O   UNL     1       4.850   6.735  16.322  0.00  0.00    +0.000 OA
ATOM     23  C   UNL     1       3.381   5.242  17.555  0.00  0.00    +0.000 C 
ATOM     24  O   UNL     1       2.924   5.068  18.885  0.00  0.00    +0.000 OA
ATOM     25  H   UNL     1       3.703   8.588  17.525  0.00  0.00    +0.000 HD
ENDBRANCH  12  14
BRANCH   1  26
ATOM     26  C   UNL     1      -1.656  10.251  18.768  0.00  0.00    +0.000 C 
BRANCH  26  28
ATOM     27  N   UNL     1      -2.714  11.743  17.183  0.00  0.00    +0.000 N 
ATOM     28  C   UNL     1      -2.073  10.550  17.352  0.00  0.00    +0.000 C 
ATOM     29  O   UNL     1      -1.893   9.789  16.407  0.00  0.00    +0.000 OA
ATOM     30  H   UNL     1      -2.974  12.008  16.239  0.00  0.00    +0.000 HD
ATOM     31  H   UNL     1      -2.767  12.454  17.900  0.00  0.00    +0.000 HD
ENDBRANCH  26  28
ENDBRANCH   1  26
TORSDOF 3
ENDMDL
