MODEL 1
REMARK VINA RESULT:      -8.5      0.000      0.000
REMARK  Name = 
REMARK  6 active torsions:
REMARK  status: ('A' for Active; 'I' for Inactive)
REMARK    1  A    between atoms: C_1  and  C_2
REMARK    2  A    between atoms: C_2  and  C_21
REMARK    3  A    between atoms: N_3  and  N_4
REMARK    4  A    between atoms: C_5  and  C_7
REMARK    5  A    between atoms: C_10  and  C_11
REMARK    6  A    between atoms: C_14  and  N_15
REMARK                            x       y       z     vdW  Elec       q    Type
REMARK                         _______ _______ _______ _____ _____    ______ ____
ROOT
ATOM      1  C   UNL     1       3.005   4.420  19.560  0.00  0.00    +0.000 A 
ATOM      2  C   UNL     1       3.382   3.116  19.814  0.00  0.00    +0.000 A 
ATOM      3  C   UNL     1       4.362   2.777  18.851  0.00  0.00    +0.000 A 
ATOM      4  C   UNL     1       4.537   3.888  18.050  0.00  0.00    +0.000 A 
ATOM      5  O   UNL     1       3.716   4.896  18.487  0.00  0.00    +0.000 OA
ENDROOT
BRANCH   4   6
ATOM      6  C   UNL     1       5.361   4.179  16.874  0.00  0.00    +0.000 A 
ATOM      7  C   UNL     1       4.869   3.939  15.579  0.00  0.00    +0.000 A 
ATOM      8  C   UNL     1       5.630   4.252  14.445  0.00  0.00    +0.000 A 
ATOM      9  C   UNL     1       6.903   4.809  14.602  0.00  0.00    +0.000 A 
ATOM     10  C   UNL     1       7.421   5.040  15.881  0.00  0.00    +0.000 A 
ATOM     11  C   UNL     1       6.649   4.723  17.005  0.00  0.00    +0.000 A 
BRANCH   9  12
ATOM     12  N   UNL     1       7.697   5.165  13.418  0.00  0.00    +0.000 N 
ATOM     13  O   UNL     1       7.341   4.704  12.325  0.00  0.00    +0.000 OA
ATOM     14  O   UNL     1       8.675   5.909  13.584  0.00  0.00    +0.000 OA
ENDBRANCH   9  12
ENDBRANCH   4   6
BRANCH   1  16
ATOM     15  N   UNL     1       2.476   6.574  20.414  0.00  0.00    +0.000 N 
ATOM     16  C   UNL     1       2.030   5.271  20.225  0.00  0.00    +0.000 C 
ATOM     17  O   UNL     1       0.927   4.859  20.574  0.00  0.00    +0.000 OA
ATOM     18  H   UNL     1       3.399   6.804  20.075  0.00  0.00    +0.000 HD
BRANCH  15  21
ATOM     19  C   UNL     1       1.639   8.895  18.928  0.00  0.00    +0.000 C 
ATOM     20  C   UNL     1       1.277   8.562  20.364  0.00  0.00    +0.000 C 
ATOM     21  N   UNL     1       1.677   7.504  21.010  0.00  0.00    +0.000 NA
BRANCH  20  22
ATOM     22  C   UNL     1       0.382   9.544  21.085  0.00  0.00    +0.000 A 
ATOM     23  C   UNL     1      -0.195  10.640  20.423  0.00  0.00    +0.000 A 
ATOM     24  C   UNL     1      -1.015  11.538  21.114  0.00  0.00    +0.000 A 
ATOM     25  C   UNL     1      -1.270  11.352  22.470  0.00  0.00    +0.000 A 
ATOM     26  C   UNL     1      -0.706  10.269  23.138  0.00  0.00    +0.000 A 
ATOM     27  C   UNL     1       0.116   9.368  22.451  0.00  0.00    +0.000 A 
ENDBRANCH  20  22
ENDBRANCH  15  21
ENDBRANCH   1  16
TORSDOF 5
ENDMDL
MODEL 2
REMARK VINA RESULT:      -8.5      0.419      1.192
REMARK  Name = 
REMARK  6 active torsions:
REMARK  status: ('A' for Active; 'I' for Inactive)
REMARK    1  A    between atoms: C_1  and  C_2
REMARK    2  A    between atoms: C_2  and  C_21
REMARK    3  A    between atoms: N_3  and  N_4
REMARK    4  A    between atoms: C_5  and  C_7
REMARK    5  A    between atoms: C_10  and  C_11
REMARK    6  A    between atoms: C_14  and  N_15
REMARK                            x       y       z     vdW  Elec       q    Type
REMARK                         _______ _______ _______ _____ _____    ______ ____
ROOT
ATOM      1  C   UNL     1       2.817   4.280  19.187  0.00  0.00    +0.000 A 
ATOM      2  C   UNL     1       2.974   2.908  19.161  0.00  0.00    +0.000 A 
ATOM      3  C   UNL     1       3.907   2.621  18.136  0.00  0.00    +0.000 A 
ATOM      4  C   UNL     1       4.275   3.829  17.579  0.00  0.00    +0.000 A 
ATOM      5  O   UNL     1       3.618   4.845  18.225  0.00  0.00    +0.000 OA
ENDROOT
BRANCH   4   6
ATOM      6  C   UNL     1       5.159   4.218  16.477  0.00  0.00    +0.000 A 
ATOM      7  C   UNL     1       6.306   4.994  16.721  0.00  0.00    +0.000 A 
ATOM      8  C   UNL     1       7.183   5.337  15.684  0.00  0.00    +0.000 A 
ATOM      9  C   UNL     1       6.912   4.905  14.381  0.00  0.00    +0.000 A 
ATOM     10  C   UNL     1       5.767   4.147  14.111  0.00  0.00    +0.000 A 
ATOM     11  C   UNL     1       4.900   3.811  15.159  0.00  0.00    +0.000 A 
BRANCH   9  12
ATOM     12  N   UNL     1       7.839   5.238  13.292  0.00  0.00    +0.000 N 
ATOM     13  O   UNL     1       8.812   5.955  13.562  0.00  0.00    +0.000 OA
ATOM     14  O   UNL     1       7.595   4.778  12.167  0.00  0.00    +0.000 OA
ENDBRANCH   9  12
ENDBRANCH   4   6
BRANCH   1  16
ATOM     15  N   UNL     1       2.352   6.462  20.007  0.00  0.00    +0.000 N 
ATOM     16  C   UNL     1       1.979   5.123  20.025  0.00  0.00    +0.000 C 
ATOM     17  O   UNL     1       1.038   4.675  20.675  0.00  0.00    +0.000 OA
ATOM     18  H   UNL     1       3.138   6.718  19.426  0.00  0.00    +0.000 HD
BRANCH  15  21
ATOM     19  C   UNL     1       1.656   8.979  18.796  0.00  0.00    +0.000 C 
ATOM     20  C   UNL     1       1.326   8.534  20.209  0.00  0.00    +0.000 C 
ATOM     21  N   UNL     1       1.661   7.388  20.729  0.00  0.00    +0.000 NA
BRANCH  20  22
ATOM     22  C   UNL     1       0.547   9.507  21.065  0.00  0.00    +0.000 A 
ATOM     23  C   UNL     1       0.209  10.789  20.602  0.00  0.00    +0.000 A 
ATOM     24  C   UNL     1      -0.507  11.673  21.415  0.00  0.00    +0.000 A 
ATOM     25  C   UNL     1      -0.896  11.289  22.696  0.00  0.00    +0.000 A 
ATOM     26  C   UNL     1      -0.568  10.020  23.166  0.00  0.00    +0.000 A 
ATOM     27  C   UNL     1       0.148   9.132  22.356  0.00  0.00    +0.000 A 
ENDBRANCH  20  22
ENDBRANCH  15  21
ENDBRANCH   1  16
TORSDOF 5
ENDMDL
MODEL 3
REMARK VINA RESULT:      -8.4      0.352      1.000
REMARK  Name = 
REMARK  6 active torsions:
REMARK  status: ('A' for Active; 'I' for Inactive)
REMARK    1  A    between atoms: C_1  and  C_2
REMARK    2  A    between atoms: C_2  and  C_21
REMARK    3  A    between atoms: N_3  and  N_4
REMARK    4  A    between atoms: C_5  and  C_7
REMARK    5  A    between atoms: C_10  and  C_11
REMARK    6  A    between atoms: C_14  and  N_15
REMARK                            x       y       z     vdW  Elec       q    Type
REMARK                         _______ _______ _______ _____ _____    ______ ____
ROOT
ATOM      1  C   UNL     1       3.166   4.583  19.565  0.00  0.00    +0.000 A 
ATOM      2  C   UNL     1       3.609   3.318  19.899  0.00  0.00    +0.000 A 
ATOM      3  C   UNL     1       4.575   2.953  18.930  0.00  0.00    +0.000 A 
ATOM      4  C   UNL     1       4.675   4.009  18.046  0.00  0.00    +0.000 A 
ATOM      5  O   UNL     1       3.822   5.010  18.438  0.00  0.00    +0.000 OA
ENDROOT
BRANCH   4   6
ATOM      6  C   UNL     1       5.449   4.249  16.826  0.00  0.00    +0.000 A 
ATOM      7  C   UNL     1       4.863   4.073  15.560  0.00  0.00    +0.000 A 
ATOM      8  C   UNL     1       5.579   4.340  14.386  0.00  0.00    +0.000 A 
ATOM      9  C   UNL     1       6.902   4.786  14.472  0.00  0.00    +0.000 A 
ATOM     10  C   UNL     1       7.512   4.951  15.720  0.00  0.00    +0.000 A 
ATOM     11  C   UNL     1       6.784   4.681  16.886  0.00  0.00    +0.000 A 
BRANCH   9  12
ATOM     12  N   UNL     1       7.652   5.093  13.247  0.00  0.00    +0.000 N 
ATOM     13  O   UNL     1       7.327   4.501  12.209  0.00  0.00    +0.000 OA
ATOM     14  O   UNL     1       8.563   5.930  13.325  0.00  0.00    +0.000 OA
ENDBRANCH   9  12
ENDBRANCH   4   6
BRANCH   1  16
ATOM     15  N   UNL     1       2.519   6.783  20.187  0.00  0.00    +0.000 N 
ATOM     16  C   UNL     1       2.174   5.437  20.199  0.00  0.00    +0.000 C 
ATOM     17  O   UNL     1       1.139   4.991  20.689  0.00  0.00    +0.000 OA
ATOM     18  H   UNL     1       3.391   7.036  19.746  0.00  0.00    +0.000 HD
BRANCH  15  21
ATOM     19  C   UNL     1       1.717   9.057  18.612  0.00  0.00    +0.000 C 
ATOM     20  C   UNL     1       1.305   8.757  20.042  0.00  0.00    +0.000 C 
ATOM     21  N   UNL     1       1.690   7.720  20.729  0.00  0.00    +0.000 NA
BRANCH  20  22
ATOM     22  C   UNL     1       0.374   9.748  20.703  0.00  0.00    +0.000 A 
ATOM     23  C   UNL     1       0.202   9.781  22.096  0.00  0.00    +0.000 A 
ATOM     24  C   UNL     1      -0.669  10.704  22.684  0.00  0.00    +0.000 A 
ATOM     25  C   UNL     1      -1.374  11.605  21.891  0.00  0.00    +0.000 A 
ATOM     26  C   UNL     1      -1.211  11.584  20.508  0.00  0.00    +0.000 A 
ATOM     27  C   UNL     1      -0.341  10.662  19.916  0.00  0.00    +0.000 A 
ENDBRANCH  20  22
ENDBRANCH  15  21
ENDBRANCH   1  16
TORSDOF 5
ENDMDL
MODEL 4
REMARK VINA RESULT:      -8.2      0.596      1.359
REMARK  Name = 
REMARK  6 active torsions:
REMARK  status: ('A' for Active; 'I' for Inactive)
REMARK    1  A    between atoms: C_1  and  C_2
REMARK    2  A    between atoms: C_2  and  C_21
REMARK    3  A    between atoms: N_3  and  N_4
REMARK    4  A    between atoms: C_5  and  C_7
REMARK    5  A    between atoms: C_10  and  C_11
REMARK    6  A    between atoms: C_14  and  N_15
REMARK                            x       y       z     vdW  Elec       q    Type
REMARK                         _______ _______ _______ _____ _____    ______ ____
ROOT
ATOM      1  C   UNL     1       2.920   4.278  19.222  0.00  0.00    +0.000 A 
ATOM      2  C   UNL     1       2.990   2.902  19.120  0.00  0.00    +0.000 A 
ATOM      3  C   UNL     1       3.872   2.614  18.051  0.00  0.00    +0.000 A 
ATOM      4  C   UNL     1       4.298   3.826  17.545  0.00  0.00    +0.000 A 
ATOM      5  O   UNL     1       3.726   4.844  18.266  0.00  0.00    +0.000 OA
ENDROOT
BRANCH   4   6
ATOM      6  C   UNL     1       5.172   4.219  16.438  0.00  0.00    +0.000 A 
ATOM      7  C   UNL     1       5.928   5.403  16.508  0.00  0.00    +0.000 A 
ATOM      8  C   UNL     1       6.800   5.769  15.474  0.00  0.00    +0.000 A 
ATOM      9  C   UNL     1       6.919   4.946  14.349  0.00  0.00    +0.000 A 
ATOM     10  C   UNL     1       6.163   3.772  14.249  0.00  0.00    +0.000 A 
ATOM     11  C   UNL     1       5.296   3.419  15.291  0.00  0.00    +0.000 A 
BRANCH   9  12
ATOM     12  N   UNL     1       7.849   5.308  13.272  0.00  0.00    +0.000 N 
ATOM     13  O   UNL     1       7.601   4.894  12.132  0.00  0.00    +0.000 OA
ATOM     14  O   UNL     1       8.826   6.011  13.569  0.00  0.00    +0.000 OA
ENDBRANCH   9  12
ENDBRANCH   4   6
BRANCH   1  16
ATOM     15  N   UNL     1       2.351   6.482  19.904  0.00  0.00    +0.000 N 
ATOM     16  C   UNL     1       2.162   5.123  20.130  0.00  0.00    +0.000 C 
ATOM     17  O   UNL     1       1.431   4.662  21.003  0.00  0.00    +0.000 OA
ATOM     18  H   UNL     1       2.969   6.746  19.150  0.00  0.00    +0.000 HD
BRANCH  15  21
ATOM     19  C   UNL     1       1.581   8.992  18.722  0.00  0.00    +0.000 C 
ATOM     20  C   UNL     1       1.335   8.554  20.154  0.00  0.00    +0.000 C 
ATOM     21  N   UNL     1       1.701   7.412  20.661  0.00  0.00    +0.000 NA
BRANCH  20  22
ATOM     22  C   UNL     1       0.606   9.532  21.049  0.00  0.00    +0.000 A 
ATOM     23  C   UNL     1       0.001   9.124  22.248  0.00  0.00    +0.000 A 
ATOM     24  C   UNL     1      -0.672  10.046  23.056  0.00  0.00    +0.000 A 
ATOM     25  C   UNL     1      -0.746  11.384  22.679  0.00  0.00    +0.000 A 
ATOM     26  C   UNL     1      -0.148  11.802  21.493  0.00  0.00    +0.000 A 
ATOM     27  C   UNL     1       0.526  10.883  20.681  0.00  0.00    +0.000 A 
ENDBRANCH  20  22
ENDBRANCH  15  21
ENDBRANCH   1  16
TORSDOF 5
ENDMDL
MODEL 5
REMARK VINA RESULT:      -8.0      0.910      1.003
REMARK  Name = 
REMARK  6 active torsions:
REMARK  status: ('A' for Active; 'I' for Inactive)
REMARK    1  A    between atoms: C_1  and  C_2
REMARK    2  A    between atoms: C_2  and  C_21
REMARK    3  A    between atoms: N_3  and  N_4
REMARK    4  A    between atoms: C_5  and  C_7
REMARK    5  A    between atoms: C_10  and  C_11
REMARK    6  A    between atoms: C_14  and  N_15
REMARK                            x       y       z     vdW  Elec       q    Type
REMARK                         _______ _______ _______ _____ _____    ______ ____
ROOT
ATOM      1  C   UNL     1       3.178   5.026  19.534  0.00  0.00    +0.000 A 
ATOM      2  C   UNL     1       3.601   3.779  19.951  0.00  0.00    +0.000 A 
ATOM      3  C   UNL     1       4.563   3.337  19.011  0.00  0.00    +0.000 A 
ATOM      4  C   UNL     1       4.682   4.332  18.061  0.00  0.00    +0.000 A 
ATOM      5  O   UNL     1       3.844   5.369  18.384  0.00  0.00    +0.000 OA
ENDROOT
BRANCH   4   6
ATOM      6  C   UNL     1       5.463   4.480  16.831  0.00  0.00    +0.000 A 
ATOM      7  C   UNL     1       4.856   4.315  15.574  0.00  0.00    +0.000 A 
ATOM      8  C   UNL     1       5.581   4.496  14.389  0.00  0.00    +0.000 A 
ATOM      9  C   UNL     1       6.935   4.842  14.456  0.00  0.00    +0.000 A 
ATOM     10  C   UNL     1       7.566   4.993  15.696  0.00  0.00    +0.000 A 
ATOM     11  C   UNL     1       6.827   4.810  16.872  0.00  0.00    +0.000 A 
BRANCH   9  12
ATOM     12  N   UNL     1       7.697   5.058  13.219  0.00  0.00    +0.000 N 
ATOM     13  O   UNL     1       7.354   4.424  12.212  0.00  0.00    +0.000 OA
ATOM     14  O   UNL     1       8.636   5.867  13.256  0.00  0.00    +0.000 OA
ENDBRANCH   9  12
ENDBRANCH   4   6
BRANCH   1  16
ATOM     15  N   UNL     1       2.384   7.258  19.724  0.00  0.00    +0.000 N 
ATOM     16  C   UNL     1       2.197   5.935  20.107  0.00  0.00    +0.000 C 
ATOM     17  O   UNL     1       1.300   5.550  20.853  0.00  0.00    +0.000 OA
ATOM     18  H   UNL     1       3.150   7.457  19.097  0.00  0.00    +0.000 HD
BRANCH  15  21
ATOM     19  C   UNL     1       1.815   9.513  18.027  0.00  0.00    +0.000 C 
ATOM     20  C   UNL     1       1.260   9.266  19.417  0.00  0.00    +0.000 C 
ATOM     21  N   UNL     1       1.542   8.236  20.163  0.00  0.00    +0.000 NA
BRANCH  20  22
ATOM     22  C   UNL     1       0.307  10.305  19.964  0.00  0.00    +0.000 A 
ATOM     23  C   UNL     1      -0.845  10.692  19.261  0.00  0.00    +0.000 A 
ATOM     24  C   UNL     1      -1.708  11.660  19.786  0.00  0.00    +0.000 A 
ATOM     25  C   UNL     1      -1.433  12.249  21.017  0.00  0.00    +0.000 A 
ATOM     26  C   UNL     1      -0.295  11.873  21.726  0.00  0.00    +0.000 A 
ATOM     27  C   UNL     1       0.571  10.905  21.204  0.00  0.00    +0.000 A 
ENDBRANCH  20  22
ENDBRANCH  15  21
ENDBRANCH   1  16
TORSDOF 5
ENDMDL
MODEL 6
REMARK VINA RESULT:      -7.9      3.955      5.851
REMARK  Name = 
REMARK  6 active torsions:
REMARK  status: ('A' for Active; 'I' for Inactive)
REMARK    1  A    between atoms: C_1  and  C_2
REMARK    2  A    between atoms: C_2  and  C_21
REMARK    3  A    between atoms: N_3  and  N_4
REMARK    4  A    between atoms: C_5  and  C_7
REMARK    5  A    between atoms: C_10  and  C_11
REMARK    6  A    between atoms: C_14  and  N_15
REMARK                            x       y       z     vdW  Elec       q    Type
REMARK                         _______ _______ _______ _____ _____    ______ ____
ROOT
ATOM      1  C   UNL     1       1.106   9.617  18.976  0.00  0.00    +0.000 A 
ATOM      2  C   UNL     1       1.929   9.743  17.874  0.00  0.00    +0.000 A 
ATOM      3  C   UNL     1       2.662   8.536  17.769  0.00  0.00    +0.000 A 
ATOM      4  C   UNL     1       2.256   7.729  18.814  0.00  0.00    +0.000 A 
ATOM      5  O   UNL     1       1.299   8.384  19.547  0.00  0.00    +0.000 OA
ENDROOT
BRANCH   4   6
ATOM      6  C   UNL     1       2.643   6.397  19.284  0.00  0.00    +0.000 A 
ATOM      7  C   UNL     1       3.742   5.729  18.716  0.00  0.00    +0.000 A 
ATOM      8  C   UNL     1       4.149   4.473  19.185  0.00  0.00    +0.000 A 
ATOM      9  C   UNL     1       3.448   3.869  20.234  0.00  0.00    +0.000 A 
ATOM     10  C   UNL     1       2.340   4.506  20.803  0.00  0.00    +0.000 A 
ATOM     11  C   UNL     1       1.945   5.762  20.324  0.00  0.00    +0.000 A 
BRANCH   9  12
ATOM     12  N   UNL     1       3.883   2.564  20.749  0.00  0.00    +0.000 N 
ATOM     13  O   UNL     1       4.831   2.007  20.179  0.00  0.00    +0.000 OA
ATOM     14  O   UNL     1       3.278   2.101  21.726  0.00  0.00    +0.000 OA
ENDBRANCH   9  12
ENDBRANCH   4   6
BRANCH   1  16
ATOM     15  N   UNL     1       0.554  11.049  20.791  0.00  0.00    +0.000 N 
ATOM     16  C   UNL     1       0.152  10.549  19.558  0.00  0.00    +0.000 C 
ATOM     17  O   UNL     1      -0.898  10.851  18.997  0.00  0.00    +0.000 OA
ATOM     18  H   UNL     1       1.446  10.738  21.151  0.00  0.00    +0.000 HD
BRANCH  15  21
ATOM     19  C   UNL     1      -0.891  10.203  23.133  0.00  0.00    +0.000 C 
ATOM     20  C   UNL     1      -0.881  11.596  22.531  0.00  0.00    +0.000 C 
ATOM     21  N   UNL     1      -0.220  11.946  21.465  0.00  0.00    +0.000 NA
BRANCH  20  22
ATOM     22  C   UNL     1      -1.709  12.647  23.235  0.00  0.00    +0.000 A 
ATOM     23  C   UNL     1      -1.191  13.918  23.531  0.00  0.00    +0.000 A 
ATOM     24  C   UNL     1      -1.974  14.872  24.189  0.00  0.00    +0.000 A 
ATOM     25  C   UNL     1      -3.283  14.570  24.556  0.00  0.00    +0.000 A 
ATOM     26  C   UNL     1      -3.810  13.313  24.267  0.00  0.00    +0.000 A 
ATOM     27  C   UNL     1      -3.029  12.357  23.609  0.00  0.00    +0.000 A 
ENDBRANCH  20  22
ENDBRANCH  15  21
ENDBRANCH   1  16
TORSDOF 5
ENDMDL
MODEL 7
REMARK VINA RESULT:      -7.8      3.837      5.288
REMARK  Name = 
REMARK  6 active torsions:
REMARK  status: ('A' for Active; 'I' for Inactive)
REMARK    1  A    between atoms: C_1  and  C_2
REMARK    2  A    between atoms: C_2  and  C_21
REMARK    3  A    between atoms: N_3  and  N_4
REMARK    4  A    between atoms: C_5  and  C_7
REMARK    5  A    between atoms: C_10  and  C_11
REMARK    6  A    between atoms: C_14  and  N_15
REMARK                            x       y       z     vdW  Elec       q    Type
REMARK                         _______ _______ _______ _____ _____    ______ ____
ROOT
ATOM      1  C   UNL     1       1.224   9.330  18.854  0.00  0.00    +0.000 A 
ATOM      2  C   UNL     1       2.110   9.659  17.847  0.00  0.00    +0.000 A 
ATOM      3  C   UNL     1       2.903   8.511  17.607  0.00  0.00    +0.000 A 
ATOM      4  C   UNL     1       2.469   7.534  18.481  0.00  0.00    +0.000 A 
ATOM      5  O   UNL     1       1.437   8.029  19.237  0.00  0.00    +0.000 OA
ENDROOT
BRANCH   4   6
ATOM      6  C   UNL     1       2.886   6.159  18.763  0.00  0.00    +0.000 A 
ATOM      7  C   UNL     1       1.988   5.090  18.595  0.00  0.00    +0.000 A 
ATOM      8  C   UNL     1       2.386   3.766  18.820  0.00  0.00    +0.000 A 
ATOM      9  C   UNL     1       3.699   3.500  19.223  0.00  0.00    +0.000 A 
ATOM     10  C   UNL     1       4.606   4.549  19.414  0.00  0.00    +0.000 A 
ATOM     11  C   UNL     1       4.193   5.868  19.185  0.00  0.00    +0.000 A 
BRANCH   9  12
ATOM     12  N   UNL     1       4.132   2.113  19.436  0.00  0.00    +0.000 N 
ATOM     13  O   UNL     1       4.916   1.891  20.369  0.00  0.00    +0.000 OA
ATOM     14  O   UNL     1       3.684   1.247  18.671  0.00  0.00    +0.000 OA
ENDBRANCH   9  12
ENDBRANCH   4   6
BRANCH   1  16
ATOM     15  N   UNL     1       0.683  10.939  20.518  0.00  0.00    +0.000 N 
ATOM     16  C   UNL     1       0.193  10.122  19.506  0.00  0.00    +0.000 C 
ATOM     17  O   UNL     1      -0.989  10.062  19.177  0.00  0.00    +0.000 OA
ATOM     18  H   UNL     1       1.678  10.914  20.695  0.00  0.00    +0.000 HD
BRANCH  15  21
ATOM     19  C   UNL     1      -0.442  10.027  23.007  0.00  0.00    +0.000 C 
ATOM     20  C   UNL     1      -0.672  11.376  22.351  0.00  0.00    +0.000 C 
ATOM     21  N   UNL     1      -0.151  11.757  21.220  0.00  0.00    +0.000 NA
BRANCH  20  22
ATOM     22  C   UNL     1      -1.578  12.341  23.082  0.00  0.00    +0.000 A 
ATOM     23  C   UNL     1      -1.166  13.646  23.397  0.00  0.00    +0.000 A 
ATOM     24  C   UNL     1      -2.021  14.518  24.078  0.00  0.00    +0.000 A 
ATOM     25  C   UNL     1      -3.296  14.100  24.450  0.00  0.00    +0.000 A 
ATOM     26  C   UNL     1      -3.718  12.810  24.142  0.00  0.00    +0.000 A 
ATOM     27  C   UNL     1      -2.866  11.934  23.460  0.00  0.00    +0.000 A 
ENDBRANCH  20  22
ENDBRANCH  15  21
ENDBRANCH   1  16
TORSDOF 5
ENDMDL
MODEL 8
REMARK VINA RESULT:      -7.8      2.176      3.129
REMARK  Name = 
REMARK  6 active torsions:
REMARK  status: ('A' for Active; 'I' for Inactive)
REMARK    1  A    between atoms: C_1  and  C_2
REMARK    2  A    between atoms: C_2  and  C_21
REMARK    3  A    between atoms: N_3  and  N_4
REMARK    4  A    between atoms: C_5  and  C_7
REMARK    5  A    between atoms: C_10  and  C_11
REMARK    6  A    between atoms: C_14  and  N_15
REMARK                            x       y       z     vdW  Elec       q    Type
REMARK                         _______ _______ _______ _____ _____    ______ ____
ROOT
ATOM      1  C   UNL     1       1.910   7.085  20.172  0.00  0.00    +0.000 A 
ATOM      2  C   UNL     1       1.675   5.795  20.606  0.00  0.00    +0.000 A 
ATOM      3  C   UNL     1       2.416   4.935  19.759  0.00  0.00    +0.000 A 
ATOM      4  C   UNL     1       3.067   5.738  18.844  0.00  0.00    +0.000 A 
ATOM      5  O   UNL     1       2.768   7.052  19.100  0.00  0.00    +0.000 OA
ENDROOT
BRANCH   4   6
ATOM      6  C   UNL     1       3.945   5.478  17.701  0.00  0.00    +0.000 A 
ATOM      7  C   UNL     1       4.565   6.540  17.018  0.00  0.00    +0.000 A 
ATOM      8  C   UNL     1       5.441   6.302  15.951  0.00  0.00    +0.000 A 
ATOM      9  C   UNL     1       5.700   4.987  15.552  0.00  0.00    +0.000 A 
ATOM     10  C   UNL     1       5.081   3.915  16.204  0.00  0.00    +0.000 A 
ATOM     11  C   UNL     1       4.208   4.168  17.270  0.00  0.00    +0.000 A 
BRANCH   9  12
ATOM     12  N   UNL     1       6.637   4.728  14.450  0.00  0.00    +0.000 N 
ATOM     13  O   UNL     1       6.351   3.825  13.651  0.00  0.00    +0.000 OA
ATOM     14  O   UNL     1       7.655   5.431  14.384  0.00  0.00    +0.000 OA
ENDBRANCH   9  12
ENDBRANCH   4   6
BRANCH   1  16
ATOM     15  N   UNL     1       1.221   9.300  19.655  0.00  0.00    +0.000 N 
ATOM     16  C   UNL     1       1.402   8.357  20.660  0.00  0.00    +0.000 C 
ATOM     17  O   UNL     1       1.162   8.556  21.848  0.00  0.00    +0.000 OA
ATOM     18  H   UNL     1       1.442   9.020  18.710  0.00  0.00    +0.000 HD
BRANCH  15  21
ATOM     19  C   UNL     1      -1.055  10.310  18.210  0.00  0.00    +0.000 C 
ATOM     20  C   UNL     1      -0.294  11.025  19.311  0.00  0.00    +0.000 C 
ATOM     21  N   UNL     1       0.737  10.541  19.943  0.00  0.00    +0.000 NA
BRANCH  20  22
ATOM     22  C   UNL     1      -0.784  12.404  19.693  0.00  0.00    +0.000 A 
ATOM     23  C   UNL     1      -1.897  12.586  20.529  0.00  0.00    +0.000 A 
ATOM     24  C   UNL     1      -2.334  13.872  20.862  0.00  0.00    +0.000 A 
ATOM     25  C   UNL     1      -1.665  14.988  20.369  0.00  0.00    +0.000 A 
ATOM     26  C   UNL     1      -0.558  14.822  19.540  0.00  0.00    +0.000 A 
ATOM     27  C   UNL     1      -0.118  13.537  19.204  0.00  0.00    +0.000 A 
ENDBRANCH  20  22
ENDBRANCH  15  21
ENDBRANCH   1  16
TORSDOF 5
ENDMDL
MODEL 9
REMARK VINA RESULT:      -7.8      2.134      2.961
REMARK  Name = 
REMARK  6 active torsions:
REMARK  status: ('A' for Active; 'I' for Inactive)
REMARK    1  A    between atoms: C_1  and  C_2
REMARK    2  A    between atoms: C_2  and  C_21
REMARK    3  A    between atoms: N_3  and  N_4
REMARK    4  A    between atoms: C_5  and  C_7
REMARK    5  A    between atoms: C_10  and  C_11
REMARK    6  A    between atoms: C_14  and  N_15
REMARK                            x       y       z     vdW  Elec       q    Type
REMARK                         _______ _______ _______ _____ _____    ______ ____
ROOT
ATOM      1  C   UNL     1       1.907   7.052  20.244  0.00  0.00    +0.000 A 
ATOM      2  C   UNL     1       1.638   5.756  20.637  0.00  0.00    +0.000 A 
ATOM      3  C   UNL     1       2.395   4.906  19.794  0.00  0.00    +0.000 A 
ATOM      4  C   UNL     1       3.088   5.722  18.921  0.00  0.00    +0.000 A 
ATOM      5  O   UNL     1       2.799   7.033  19.201  0.00  0.00    +0.000 OA
ENDROOT
BRANCH   4   6
ATOM      6  C   UNL     1       4.000   5.477  17.802  0.00  0.00    +0.000 A 
ATOM      7  C   UNL     1       4.347   4.164  17.436  0.00  0.00    +0.000 A 
ATOM      8  C   UNL     1       5.184   3.913  16.341  0.00  0.00    +0.000 A 
ATOM      9  C   UNL     1       5.688   4.987  15.600  0.00  0.00    +0.000 A 
ATOM     10  C   UNL     1       5.371   6.303  15.955  0.00  0.00    +0.000 A 
ATOM     11  C   UNL     1       4.532   6.538  17.052  0.00  0.00    +0.000 A 
BRANCH   9  12
ATOM     12  N   UNL     1       6.546   4.733  14.434  0.00  0.00    +0.000 N 
ATOM     13  O   UNL     1       6.166   3.888  13.613  0.00  0.00    +0.000 OA
ATOM     14  O   UNL     1       7.597   5.383  14.341  0.00  0.00    +0.000 OA
ENDBRANCH   9  12
ENDBRANCH   4   6
BRANCH   1  16
ATOM     15  N   UNL     1       1.133   9.244  19.744  0.00  0.00    +0.000 N 
ATOM     16  C   UNL     1       1.401   8.319  20.748  0.00  0.00    +0.000 C 
ATOM     17  O   UNL     1       1.233   8.531  21.946  0.00  0.00    +0.000 OA
ATOM     18  H   UNL     1       1.300   8.955  18.790  0.00  0.00    +0.000 HD
BRANCH  15  21
ATOM     19  C   UNL     1      -1.127  10.269  18.285  0.00  0.00    +0.000 C 
ATOM     20  C   UNL     1      -0.384  10.967  19.409  0.00  0.00    +0.000 C 
ATOM     21  N   UNL     1       0.640  10.478  20.047  0.00  0.00    +0.000 NA
BRANCH  20  22
ATOM     22  C   UNL     1      -0.886  12.337  19.807  0.00  0.00    +0.000 A 
ATOM     23  C   UNL     1      -0.253  13.511  19.368  0.00  0.00    +0.000 A 
ATOM     24  C   UNL     1      -0.732  14.767  19.754  0.00  0.00    +0.000 A 
ATOM     25  C   UNL     1      -1.849  14.865  20.580  0.00  0.00    +0.000 A 
ATOM     26  C   UNL     1      -2.487  13.709  21.021  0.00  0.00    +0.000 A 
ATOM     27  C   UNL     1      -2.010  12.451  20.637  0.00  0.00    +0.000 A 
ENDBRANCH  20  22
ENDBRANCH  15  21
ENDBRANCH   1  16
TORSDOF 5
ENDMDL
