MODEL 1
REMARK VINA RESULT:      -7.2      0.000      0.000
REMARK  Name = 
REMARK  5 active torsions:
REMARK  status: ('A' for Active; 'I' for Inactive)
REMARK    1  A    between atoms: C_2  and  C_3
REMARK    2  A    between atoms: C_3  and  S_4
REMARK    3  A    between atoms: S_4  and  C_5
REMARK    4  A    between atoms: C_7  and  O_8
REMARK    5  A    between atoms: C_10  and  O_11
REMARK                            x       y       z     vdW  Elec       q    Type
REMARK                         _______ _______ _______ _____ _____    ______ ____
ROOT
ATOM      1  S   UNL     1       5.952   4.023  16.186  0.00  0.00    +0.000 S 
ENDROOT
BRANCH   1   2
ATOM      2  C   UNL     1       6.837   5.140  17.245  0.00  0.00    +0.000 A 
ATOM      3  N   UNL     1       7.225   4.716  18.452  0.00  0.00    +0.000 NA
ATOM      4  C   UNL     1       7.813   5.635  19.220  0.00  0.00    +0.000 A 
ATOM      5  C   UNL     1       8.074   6.923  18.858  0.00  0.00    +0.000 A 
ATOM      6  C   UNL     1       7.661   7.231  17.591  0.00  0.00    +0.000 A 
ATOM      7  N   UNL     1       7.039   6.374  16.770  0.00  0.00    +0.000 NA
BRANCH   4   8
ATOM      8  O   UNL     1       8.118   5.196  20.469  0.00  0.00    +0.000 OA
ATOM      9  H   UNL     1       8.646   5.948  20.804  0.00  0.00    +0.000 HD
ENDBRANCH   4   8
BRANCH   6  10
ATOM     10  O   UNL     1       7.847   8.481  17.072  0.00  0.00    +0.000 OA
ATOM     11  H   UNL     1       7.749   8.435  16.110  0.00  0.00    +0.000 HD
ENDBRANCH   6  10
ENDBRANCH   1   2
BRANCH   1  12
ATOM     12  C   UNL     1       4.251   4.167  16.825  0.00  0.00    +0.000 C 
BRANCH  12  14
ATOM     13  O   UNL     1       3.730   1.956  17.572  0.00  0.00    +0.000 OA
ATOM     14  C   UNL     1       3.897   3.139  17.894  0.00  0.00    +0.000 C 
ATOM     15  N   UNL     1       3.720   3.556  19.202  0.00  0.00    +0.000 N 
ATOM     16  C   UNL     1       3.568   2.565  20.271  0.00  0.00    +0.000 C 
ATOM     17  C   UNL     1       2.290   2.821  21.075  0.00  0.00    +0.000 C 
ATOM     18  O   UNL     1       2.240   4.176  21.555  0.00  0.00    +0.000 OA
ATOM     19  C   UNL     1       2.289   5.103  20.461  0.00  0.00    +0.000 C 
ATOM     20  C   UNL     1       3.586   4.943  19.659  0.00  0.00    +0.000 C 
ENDBRANCH  12  14
ENDBRANCH   1  12
TORSDOF 5
ENDMDL
MODEL 2
REMARK VINA RESULT:      -7.0      0.776      2.072
REMARK  Name = 
REMARK  5 active torsions:
REMARK  status: ('A' for Active; 'I' for Inactive)
REMARK    1  A    between atoms: C_2  and  C_3
REMARK    2  A    between atoms: C_3  and  S_4
REMARK    3  A    between atoms: S_4  and  C_5
REMARK    4  A    between atoms: C_7  and  O_8
REMARK    5  A    between atoms: C_10  and  O_11
REMARK                            x       y       z     vdW  Elec       q    Type
REMARK                         _______ _______ _______ _____ _____    ______ ____
ROOT
ATOM      1  S   UNL     1       5.526   4.118  16.535  0.00  0.00    +0.000 S 
ENDROOT
BRANCH   1   2
ATOM      2  C   UNL     1       6.512   5.272  17.455  0.00  0.00    +0.000 A 
ATOM      3  N   UNL     1       6.781   6.467  16.918  0.00  0.00    +0.000 NA
ATOM      4  C   UNL     1       7.593   7.247  17.632  0.00  0.00    +0.000 A 
ATOM      5  C   UNL     1       8.118   6.940  18.853  0.00  0.00    +0.000 A 
ATOM      6  C   UNL     1       7.748   5.707  19.314  0.00  0.00    +0.000 A 
ATOM      7  N   UNL     1       6.961   4.854  18.644  0.00  0.00    +0.000 NA
BRANCH   4   8
ATOM      8  O   UNL     1       7.914   8.416  17.020  0.00  0.00    +0.000 OA
ATOM      9  H   UNL     1       8.569   8.107  16.365  0.00  0.00    +0.000 HD
ENDBRANCH   4   8
BRANCH   6  10
ATOM     10  O   UNL     1       8.187   5.244  20.522  0.00  0.00    +0.000 OA
ATOM     11  H   UNL     1       8.829   5.874  20.880  0.00  0.00    +0.000 HD
ENDBRANCH   6  10
ENDBRANCH   1   2
BRANCH   1  12
ATOM     12  C   UNL     1       3.834   4.659  16.944  0.00  0.00    +0.000 C 
BRANCH  12  14
ATOM     13  O   UNL     1       2.291   2.834  16.879  0.00  0.00    +0.000 OA
ATOM     14  C   UNL     1       2.973   3.580  17.591  0.00  0.00    +0.000 C 
ATOM     15  N   UNL     1       2.932   3.485  18.972  0.00  0.00    +0.000 N 
ATOM     16  C   UNL     1       2.267   2.344  19.607  0.00  0.00    +0.000 C 
ATOM     17  C   UNL     1       1.211   2.816  20.610  0.00  0.00    +0.000 C 
ATOM     18  O   UNL     1       1.773   3.738  21.561  0.00  0.00    +0.000 OA
ATOM     19  C   UNL     1       2.320   4.884  20.893  0.00  0.00    +0.000 C 
ATOM     20  C   UNL     1       3.436   4.479  19.925  0.00  0.00    +0.000 C 
ENDBRANCH  12  14
ENDBRANCH   1  12
TORSDOF 5
ENDMDL
MODEL 3
REMARK VINA RESULT:      -6.7      1.160      2.475
REMARK  Name = 
REMARK  5 active torsions:
REMARK  status: ('A' for Active; 'I' for Inactive)
REMARK    1  A    between atoms: C_2  and  C_3
REMARK    2  A    between atoms: C_3  and  S_4
REMARK    3  A    between atoms: S_4  and  C_5
REMARK    4  A    between atoms: C_7  and  O_8
REMARK    5  A    between atoms: C_10  and  O_11
REMARK                            x       y       z     vdW  Elec       q    Type
REMARK                         _______ _______ _______ _____ _____    ______ ____
ROOT
ATOM      1  S   UNL     1       5.733   4.337  16.174  0.00  0.00    +0.000 S 
ENDROOT
BRANCH   1   2
ATOM      2  C   UNL     1       6.660   5.433  17.220  0.00  0.00    +0.000 A 
ATOM      3  N   UNL     1       6.835   6.701  16.834  0.00  0.00    +0.000 NA
ATOM      4  C   UNL     1       7.608   7.440  17.630  0.00  0.00    +0.000 A 
ATOM      5  C   UNL     1       8.181   7.020  18.795  0.00  0.00    +0.000 A 
ATOM      6  C   UNL     1       7.905   5.716  19.101  0.00  0.00    +0.000 A 
ATOM      7  N   UNL     1       7.163   4.901  18.340  0.00  0.00    +0.000 NA
BRANCH   4   8
ATOM      8  O   UNL     1       7.835   8.697  17.168  0.00  0.00    +0.000 OA
ATOM      9  H   UNL     1       8.542   8.528  16.514  0.00  0.00    +0.000 HD
ENDBRANCH   4   8
BRANCH   6  10
ATOM     10  O   UNL     1       8.403   5.137  20.234  0.00  0.00    +0.000 OA
ATOM     11  H   UNL     1       7.974   4.277  20.356  0.00  0.00    +0.000 HD
ENDBRANCH   6  10
ENDBRANCH   1   2
BRANCH   1  12
ATOM     12  C   UNL     1       4.722   3.425  17.386  0.00  0.00    +0.000 C 
BRANCH  12  14
ATOM     13  O   UNL     1       3.282   5.333  17.460  0.00  0.00    +0.000 OA
ATOM     14  C   UNL     1       3.487   4.181  17.863  0.00  0.00    +0.000 C 
ATOM     15  N   UNL     1       2.638   3.583  18.778  0.00  0.00    +0.000 N 
ATOM     16  C   UNL     1       1.354   4.209  19.102  0.00  0.00    +0.000 C 
ATOM     17  C   UNL     1       1.210   4.410  20.614  0.00  0.00    +0.000 C 
ATOM     18  O   UNL     1       1.430   3.179  21.325  0.00  0.00    +0.000 OA
ATOM     19  C   UNL     1       2.740   2.662  21.051  0.00  0.00    +0.000 C 
ATOM     20  C   UNL     1       2.918   2.372  19.557  0.00  0.00    +0.000 C 
ENDBRANCH  12  14
ENDBRANCH   1  12
TORSDOF 5
ENDMDL
MODEL 4
REMARK VINA RESULT:      -6.6      1.240      1.595
REMARK  Name = 
REMARK  5 active torsions:
REMARK  status: ('A' for Active; 'I' for Inactive)
REMARK    1  A    between atoms: C_2  and  C_3
REMARK    2  A    between atoms: C_3  and  S_4
REMARK    3  A    between atoms: S_4  and  C_5
REMARK    4  A    between atoms: C_7  and  O_8
REMARK    5  A    between atoms: C_10  and  O_11
REMARK                            x       y       z     vdW  Elec       q    Type
REMARK                         _______ _______ _______ _____ _____    ______ ____
ROOT
ATOM      1  S   UNL     1       5.387   4.794  16.126  0.00  0.00    +0.000 S 
ENDROOT
BRANCH   1   2
ATOM      2  C   UNL     1       6.513   5.668  17.186  0.00  0.00    +0.000 A 
ATOM      3  N   UNL     1       6.916   5.088  18.321  0.00  0.00    +0.000 NA
ATOM      4  C   UNL     1       7.695   5.837  19.102  0.00  0.00    +0.000 A 
ATOM      5  C   UNL     1       8.130   7.097  18.815  0.00  0.00    +0.000 A 
ATOM      6  C   UNL     1       7.679   7.573  17.614  0.00  0.00    +0.000 A 
ATOM      7  N   UNL     1       6.872   6.894  16.788  0.00  0.00    +0.000 NA
BRANCH   4   8
ATOM      8  O   UNL     1       8.018   5.250  20.284  0.00  0.00    +0.000 OA
ATOM      9  H   UNL     1       8.381   6.014  20.775  0.00  0.00    +0.000 HD
ENDBRANCH   4   8
BRANCH   6  10
ATOM     10  O   UNL     1       8.021   8.820  17.176  0.00  0.00    +0.000 OA
ATOM     11  H   UNL     1       8.724   9.167  17.745  0.00  0.00    +0.000 HD
ENDBRANCH   6  10
ENDBRANCH   1   2
BRANCH   1  12
ATOM     12  C   UNL     1       4.556   3.676  17.301  0.00  0.00    +0.000 C 
BRANCH  12  14
ATOM     13  O   UNL     1       2.894   5.374  17.575  0.00  0.00    +0.000 OA
ATOM     14  C   UNL     1       3.278   4.246  17.907  0.00  0.00    +0.000 C 
ATOM     15  N   UNL     1       2.593   3.509  18.858  0.00  0.00    +0.000 N 
ATOM     16  C   UNL     1       1.270   3.948  19.310  0.00  0.00    +0.000 C 
ATOM     17  C   UNL     1       1.229   4.076  20.836  0.00  0.00    +0.000 C 
ATOM     18  O   UNL     1       1.664   2.861  21.471  0.00  0.00    +0.000 OA
ATOM     19  C   UNL     1       3.002   2.530  21.072  0.00  0.00    +0.000 C 
ATOM     20  C   UNL     1       3.089   2.319  19.556  0.00  0.00    +0.000 C 
ENDBRANCH  12  14
ENDBRANCH   1  12
TORSDOF 5
ENDMDL
MODEL 5
REMARK VINA RESULT:      -6.6      1.702      2.153
REMARK  Name = 
REMARK  5 active torsions:
REMARK  status: ('A' for Active; 'I' for Inactive)
REMARK    1  A    between atoms: C_2  and  C_3
REMARK    2  A    between atoms: C_3  and  S_4
REMARK    3  A    between atoms: S_4  and  C_5
REMARK    4  A    between atoms: C_7  and  O_8
REMARK    5  A    between atoms: C_10  and  O_11
REMARK                            x       y       z     vdW  Elec       q    Type
REMARK                         _______ _______ _______ _____ _____    ______ ____
ROOT
ATOM      1  S   UNL     1       4.644   4.628  17.078  0.00  0.00    +0.000 S 
ENDROOT
BRANCH   1   2
ATOM      2  C   UNL     1       6.054   5.452  17.774  0.00  0.00    +0.000 A 
ATOM      3  N   UNL     1       6.604   4.963  18.890  0.00  0.00    +0.000 NA
ATOM      4  C   UNL     1       7.608   5.680  19.397  0.00  0.00    +0.000 A 
ATOM      5  C   UNL     1       8.124   6.819  18.852  0.00  0.00    +0.000 A 
ATOM      6  C   UNL     1       7.502   7.204  17.696  0.00  0.00    +0.000 A 
ATOM      7  N   UNL     1       6.470   6.554  17.140  0.00  0.00    +0.000 NA
BRANCH   4   8
ATOM      8  O   UNL     1       8.088   5.203  20.574  0.00  0.00    +0.000 OA
ATOM      9  H   UNL     1       8.863   5.784  20.706  0.00  0.00    +0.000 HD
ENDBRANCH   4   8
BRANCH   6  10
ATOM     10  O   UNL     1       7.896   8.325  17.022  0.00  0.00    +0.000 OA
ATOM     11  H   UNL     1       8.664   8.104  16.476  0.00  0.00    +0.000 HD
ENDBRANCH   6  10
ENDBRANCH   1   2
BRANCH   1  12
ATOM     12  C   UNL     1       3.282   5.740  17.562  0.00  0.00    +0.000 C 
BRANCH  12  14
ATOM     13  O   UNL     1       3.260   6.231  19.902  0.00  0.00    +0.000 OA
ATOM     14  C   UNL     1       2.790   5.539  18.990  0.00  0.00    +0.000 C 
ATOM     15  N   UNL     1       1.857   4.551  19.252  0.00  0.00    +0.000 N 
ATOM     16  C   UNL     1       1.232   4.467  20.575  0.00  0.00    +0.000 C 
ATOM     17  C   UNL     1       1.399   3.066  21.170  0.00  0.00    +0.000 C 
ATOM     18  O   UNL     1       0.928   2.055  20.262  0.00  0.00    +0.000 OA
ATOM     19  C   UNL     1       1.642   2.117  19.020  0.00  0.00    +0.000 C 
ATOM     20  C   UNL     1       1.452   3.477  18.340  0.00  0.00    +0.000 C 
ENDBRANCH  12  14
ENDBRANCH   1  12
TORSDOF 5
ENDMDL
MODEL 6
REMARK VINA RESULT:      -6.6      1.556      2.758
REMARK  Name = 
REMARK  5 active torsions:
REMARK  status: ('A' for Active; 'I' for Inactive)
REMARK    1  A    between atoms: C_2  and  C_3
REMARK    2  A    between atoms: C_3  and  S_4
REMARK    3  A    between atoms: S_4  and  C_5
REMARK    4  A    between atoms: C_7  and  O_8
REMARK    5  A    between atoms: C_10  and  O_11
REMARK                            x       y       z     vdW  Elec       q    Type
REMARK                         _______ _______ _______ _____ _____    ______ ____
ROOT
ATOM      1  S   UNL     1       4.933   3.952  17.297  0.00  0.00    +0.000 S 
ENDROOT
BRANCH   1   2
ATOM      2  C   UNL     1       6.145   5.091  17.918  0.00  0.00    +0.000 A 
ATOM      3  N   UNL     1       6.430   6.186  17.206  0.00  0.00    +0.000 NA
ATOM      4  C   UNL     1       7.407   6.950  17.696  0.00  0.00    +0.000 A 
ATOM      5  C   UNL     1       8.086   6.724  18.857  0.00  0.00    +0.000 A 
ATOM      6  C   UNL     1       7.686   5.592  19.514  0.00  0.00    +0.000 A 
ATOM      7  N   UNL     1       6.734   4.759  19.073  0.00  0.00    +0.000 NA
BRANCH   4   8
ATOM      8  O   UNL     1       7.728   8.008  16.907  0.00  0.00    +0.000 OA
ATOM      9  H   UNL     1       8.097   7.549  16.126  0.00  0.00    +0.000 HD
ENDBRANCH   4   8
BRANCH   6  10
ATOM     10  O   UNL     1       8.265   5.219  20.693  0.00  0.00    +0.000 OA
ATOM     11  H   UNL     1       7.614   4.733  21.218  0.00  0.00    +0.000 HD
ENDBRANCH   6  10
ENDBRANCH   1   2
BRANCH   1  12
ATOM     12  C   UNL     1       3.420   4.968  17.313  0.00  0.00    +0.000 C 
BRANCH  12  14
ATOM     13  O   UNL     1       3.207   6.288  19.296  0.00  0.00    +0.000 OA
ATOM     14  C   UNL     1       2.874   5.252  18.708  0.00  0.00    +0.000 C 
ATOM     15  N   UNL     1       2.048   4.320  19.314  0.00  0.00    +0.000 N 
ATOM     16  C   UNL     1       1.363   4.654  20.566  0.00  0.00    +0.000 C 
ATOM     17  C   UNL     1       1.659   3.610  21.646  0.00  0.00    +0.000 C 
ATOM     18  O   UNL     1       1.361   2.282  21.181  0.00  0.00    +0.000 OA
ATOM     19  C   UNL     1       2.133   1.969  20.013  0.00  0.00    +0.000 C 
ATOM     20  C   UNL     1       1.824   2.941  18.869  0.00  0.00    +0.000 C 
ENDBRANCH  12  14
ENDBRANCH   1  12
TORSDOF 5
ENDMDL
MODEL 7
REMARK VINA RESULT:      -6.6      1.478      1.925
REMARK  Name = 
REMARK  5 active torsions:
REMARK  status: ('A' for Active; 'I' for Inactive)
REMARK    1  A    between atoms: C_2  and  C_3
REMARK    2  A    between atoms: C_3  and  S_4
REMARK    3  A    between atoms: S_4  and  C_5
REMARK    4  A    between atoms: C_7  and  O_8
REMARK    5  A    between atoms: C_10  and  O_11
REMARK                            x       y       z     vdW  Elec       q    Type
REMARK                         _______ _______ _______ _____ _____    ______ ____
ROOT
ATOM      1  S   UNL     1       6.063   4.015  16.324  0.00  0.00    +0.000 S 
ENDROOT
BRANCH   1   2
ATOM      2  C   UNL     1       6.935   5.170  17.353  0.00  0.00    +0.000 A 
ATOM      3  N   UNL     1       7.347   4.776  18.562  0.00  0.00    +0.000 NA
ATOM      4  C   UNL     1       7.922   5.720  19.307  0.00  0.00    +0.000 A 
ATOM      5  C   UNL     1       8.152   7.008  18.920  0.00  0.00    +0.000 A 
ATOM      6  C   UNL     1       7.717   7.284  17.653  0.00  0.00    +0.000 A 
ATOM      7  N   UNL     1       7.105   6.400  16.854  0.00  0.00    +0.000 NA
BRANCH   4   8
ATOM      8  O   UNL     1       8.252   5.311  20.560  0.00  0.00    +0.000 OA
ATOM      9  H   UNL     1       7.748   5.950  21.101  0.00  0.00    +0.000 HD
ENDBRANCH   4   8
BRANCH   6  10
ATOM     10  O   UNL     1       7.869   8.528  17.110  0.00  0.00    +0.000 OA
ATOM     11  H   UNL     1       8.320   9.094  17.754  0.00  0.00    +0.000 HD
ENDBRANCH   6  10
ENDBRANCH   1   2
BRANCH   1  12
ATOM     12  C   UNL     1       4.440   4.827  16.140  0.00  0.00    +0.000 C 
BRANCH  12  14
ATOM     13  O   UNL     1       3.965   6.132  18.086  0.00  0.00    +0.000 OA
ATOM     14  C   UNL     1       3.724   5.094  17.458  0.00  0.00    +0.000 C 
ATOM     15  N   UNL     1       2.847   4.145  17.957  0.00  0.00    +0.000 N 
ATOM     16  C   UNL     1       2.008   4.462  19.116  0.00  0.00    +0.000 C 
ATOM     17  C   UNL     1       2.188   3.417  20.221  0.00  0.00    +0.000 C 
ATOM     18  O   UNL     1       1.972   2.087  19.719  0.00  0.00    +0.000 OA
ATOM     19  C   UNL     1       2.886   1.792  18.654  0.00  0.00    +0.000 C 
ATOM     20  C   UNL     1       2.703   2.765  17.484  0.00  0.00    +0.000 C 
ENDBRANCH  12  14
ENDBRANCH   1  12
TORSDOF 5
ENDMDL
MODEL 8
REMARK VINA RESULT:      -6.6      2.794      3.702
REMARK  Name = 
REMARK  5 active torsions:
REMARK  status: ('A' for Active; 'I' for Inactive)
REMARK    1  A    between atoms: C_2  and  C_3
REMARK    2  A    between atoms: C_3  and  S_4
REMARK    3  A    between atoms: S_4  and  C_5
REMARK    4  A    between atoms: C_7  and  O_8
REMARK    5  A    between atoms: C_10  and  O_11
REMARK                            x       y       z     vdW  Elec       q    Type
REMARK                         _______ _______ _______ _____ _____    ______ ____
ROOT
ATOM      1  S   UNL     1       6.020   4.532  16.837  0.00  0.00    +0.000 S 
ENDROOT
BRANCH   1   2
ATOM      2  C   UNL     1       6.461   4.499  15.118  0.00  0.00    +0.000 A 
ATOM      3  N   UNL     1       5.806   3.671  14.298  0.00  0.00    +0.000 NA
ATOM      4  C   UNL     1       6.247   3.643  13.039  0.00  0.00    +0.000 A 
ATOM      5  C   UNL     1       7.258   4.407  12.535  0.00  0.00    +0.000 A 
ATOM      6  C   UNL     1       7.830   5.238  13.459  0.00  0.00    +0.000 A 
ATOM      7  N   UNL     1       7.464   5.302  14.746  0.00  0.00    +0.000 NA
BRANCH   4   8
ATOM      8  O   UNL     1       5.617   2.731  12.254  0.00  0.00    +0.000 OA
ATOM      9  H   UNL     1       6.379   2.323  11.798  0.00  0.00    +0.000 HD
ENDBRANCH   4   8
BRANCH   6  10
ATOM     10  O   UNL     1       8.859   6.069  13.119  0.00  0.00    +0.000 OA
ATOM     11  H   UNL     1       9.689   5.676  13.424  0.00  0.00    +0.000 HD
ENDBRANCH   6  10
ENDBRANCH   1   2
BRANCH   1  12
ATOM     12  C   UNL     1       4.273   4.014  16.788  0.00  0.00    +0.000 C 
BRANCH  12  14
ATOM     13  O   UNL     1       3.676   1.862  17.643  0.00  0.00    +0.000 OA
ATOM     14  C   UNL     1       3.875   3.055  17.904  0.00  0.00    +0.000 C 
ATOM     15  N   UNL     1       3.695   3.545  19.186  0.00  0.00    +0.000 N 
ATOM     16  C   UNL     1       3.501   2.618  20.304  0.00  0.00    +0.000 C 
ATOM     17  C   UNL     1       2.222   2.954  21.076  0.00  0.00    +0.000 C 
ATOM     18  O   UNL     1       2.207   4.333  21.483  0.00  0.00    +0.000 OA
ATOM     19  C   UNL     1       2.298   5.199  20.343  0.00  0.00    +0.000 C 
ATOM     20  C   UNL     1       3.598   4.958  19.568  0.00  0.00    +0.000 C 
ENDBRANCH  12  14
ENDBRANCH   1  12
TORSDOF 5
ENDMDL
MODEL 9
REMARK VINA RESULT:      -6.5      3.163      4.135
REMARK  Name = 
REMARK  5 active torsions:
REMARK  status: ('A' for Active; 'I' for Inactive)
REMARK    1  A    between atoms: C_2  and  C_3
REMARK    2  A    between atoms: C_3  and  S_4
REMARK    3  A    between atoms: S_4  and  C_5
REMARK    4  A    between atoms: C_7  and  O_8
REMARK    5  A    between atoms: C_10  and  O_11
REMARK                            x       y       z     vdW  Elec       q    Type
REMARK                         _______ _______ _______ _____ _____    ______ ____
ROOT
ATOM      1  S   UNL     1       6.632   4.714  16.775  0.00  0.00    +0.000 S 
ENDROOT
BRANCH   1   2
ATOM      2  C   UNL     1       6.806   4.625  15.010  0.00  0.00    +0.000 A 
ATOM      3  N   UNL     1       6.075   3.735  14.332  0.00  0.00    +0.000 NA
ATOM      4  C   UNL     1       6.319   3.673  13.022  0.00  0.00    +0.000 A 
ATOM      5  C   UNL     1       7.204   4.456  12.341  0.00  0.00    +0.000 A 
ATOM      6  C   UNL     1       7.869   5.349  13.135  0.00  0.00    +0.000 A 
ATOM      7  N   UNL     1       7.701   5.454  14.460  0.00  0.00    +0.000 NA
BRANCH   4   8
ATOM      8  O   UNL     1       5.622   2.702  12.376  0.00  0.00    +0.000 OA
ATOM      9  H   UNL     1       5.057   2.369  13.101  0.00  0.00    +0.000 HD
ENDBRANCH   4   8
BRANCH   6  10
ATOM     10  O   UNL     1       8.792   6.209  12.610  0.00  0.00    +0.000 OA
ATOM     11  H   UNL     1       8.675   6.241  11.650  0.00  0.00    +0.000 HD
ENDBRANCH   6  10
ENDBRANCH   1   2
BRANCH   1  12
ATOM     12  C   UNL     1       4.820   4.682  16.976  0.00  0.00    +0.000 C 
BRANCH  12  14
ATOM     13  O   UNL     1       5.169   5.283  19.264  0.00  0.00    +0.000 OA
ATOM     14  C   UNL     1       4.344   4.980  18.393  0.00  0.00    +0.000 C 
ATOM     15  N   UNL     1       2.998   4.861  18.694  0.00  0.00    +0.000 N 
ATOM     16  C   UNL     1       2.495   5.323  19.991  0.00  0.00    +0.000 C 
ATOM     17  C   UNL     1       1.726   4.209  20.707  0.00  0.00    +0.000 C 
ATOM     18  O   UNL     1       0.693   3.667  19.866  0.00  0.00    +0.000 OA
ATOM     19  C   UNL     1       1.252   3.136  18.655  0.00  0.00    +0.000 C 
ATOM     20  C   UNL     1       1.976   4.226  17.857  0.00  0.00    +0.000 C 
ENDBRANCH  12  14
ENDBRANCH   1  12
TORSDOF 5
ENDMDL
