MODEL 1
REMARK VINA RESULT:      -7.6      0.000      0.000
REMARK  Name = 
REMARK  7 active torsions:
REMARK  status: ('A' for Active; 'I' for Inactive)
REMARK    1  A    between atoms: C_1  and  C_2
REMARK    2  A    between atoms: C_6  and  O_7
REMARK    3  A    between atoms: O_7  and  C_8
REMARK    4  A    between atoms: C_8  and  C_9
REMARK    5  A    between atoms: C_11  and  O_12
REMARK    6  A    between atoms: O_12  and  C_13
REMARK    7  A    between atoms: C_13  and  C_14
REMARK                            x       y       z     vdW  Elec       q    Type
REMARK                         _______ _______ _______ _____ _____    ______ ____
ROOT
ATOM      1  C   UNL     1       6.330   5.110  17.890  0.00  0.00    +0.000 A 
ATOM      2  C   UNL     1       5.826   5.631  16.713  0.00  0.00    +0.000 A 
ATOM      3  C   UNL     1       6.746   5.238  15.766  0.00  0.00    +0.000 A 
ATOM      4  N   UNL     1       7.730   4.537  16.350  0.00  0.00    +0.000 NA
ATOM      5  O   UNL     1       7.456   4.489  17.626  0.00  0.00    +0.000 OA
ENDROOT
BRANCH   1   6
ATOM      6  C   UNL     1       5.724   5.216  19.255  0.00  0.00    +0.000 C 
BRANCH   6   7
ATOM      7  O   UNL     1       4.403   5.607  19.143  0.00  0.00    +0.000 OA
BRANCH   7  13
ATOM      8  C   UNL     1       1.383   2.623  21.709  0.00  0.00    +0.000 C 
ATOM      9  C   UNL     1       1.783   3.326  20.444  0.00  0.00    +0.000 A 
ATOM     10  C   UNL     1       1.014   3.180  19.279  0.00  0.00    +0.000 A 
ATOM     11  C   UNL     1       1.398   3.816  18.100  0.00  0.00    +0.000 A 
ATOM     12  C   UNL     1       2.543   4.614  18.072  0.00  0.00    +0.000 A 
ATOM     13  C   UNL     1       3.314   4.796  19.226  0.00  0.00    +0.000 A 
ATOM     14  C   UNL     1       2.930   4.140  20.417  0.00  0.00    +0.000 A 
ENDBRANCH   7  13
ENDBRANCH   6   7
ENDBRANCH   1   6
BRANCH   3  15
ATOM     15  O   UNL     1       6.671   5.516  14.444  0.00  0.00    +0.000 OA
BRANCH  15  16
ATOM     16  C   UNL     1       7.312   4.774  13.472  0.00  0.00    +0.000 C 
BRANCH  16  17
ATOM     17  C   UNL     1       6.412   3.617  13.034  0.00  0.00    +0.000 C 
ATOM     18  C   UNL     1       6.851   2.954  11.739  0.00  0.00    +0.000 C 
ATOM     19  C   UNL     1       5.618   2.130  11.461  0.00  0.00    +0.000 C 
ATOM     20  C   UNL     1       4.522   3.156  11.726  0.00  0.00    +0.000 C 
ATOM     21  N   UNL     1       5.028   4.051  12.785  0.00  0.00    +0.000 NA
ATOM     22  H   UNL     1       4.456   3.983  13.658  0.00  0.00    +0.000 HD
ENDBRANCH  16  17
ENDBRANCH  15  16
ENDBRANCH   3  15
TORSDOF 6
ENDMDL
MODEL 2
REMARK VINA RESULT:      -7.4      1.396      1.578
REMARK  Name = 
REMARK  7 active torsions:
REMARK  status: ('A' for Active; 'I' for Inactive)
REMARK    1  A    between atoms: C_1  and  C_2
REMARK    2  A    between atoms: C_6  and  O_7
REMARK    3  A    between atoms: O_7  and  C_8
REMARK    4  A    between atoms: C_8  and  C_9
REMARK    5  A    between atoms: C_11  and  O_12
REMARK    6  A    between atoms: O_12  and  C_13
REMARK    7  A    between atoms: C_13  and  C_14
REMARK                            x       y       z     vdW  Elec       q    Type
REMARK                         _______ _______ _______ _____ _____    ______ ____
ROOT
ATOM      1  C   UNL     1       6.714   5.225  17.578  0.00  0.00    +0.000 A 
ATOM      2  C   UNL     1       6.314   4.236  16.698  0.00  0.00    +0.000 A 
ATOM      3  C   UNL     1       6.887   4.617  15.504  0.00  0.00    +0.000 A 
ATOM      4  N   UNL     1       7.573   5.759  15.672  0.00  0.00    +0.000 NA
ATOM      5  O   UNL     1       7.439   6.102  16.925  0.00  0.00    +0.000 OA
ENDROOT
BRANCH   1   6
ATOM      6  C   UNL     1       6.393   5.314  19.038  0.00  0.00    +0.000 C 
BRANCH   6   7
ATOM      7  O   UNL     1       5.498   4.316  19.374  0.00  0.00    +0.000 OA
BRANCH   7  13
ATOM      8  C   UNL     1       1.307   2.666  21.454  0.00  0.00    +0.000 C 
ATOM      9  C   UNL     1       2.110   3.734  20.771  0.00  0.00    +0.000 A 
ATOM     10  C   UNL     1       1.539   4.988  20.502  0.00  0.00    +0.000 A 
ATOM     11  C   UNL     1       2.279   5.973  19.849  0.00  0.00    +0.000 A 
ATOM     12  C   UNL     1       3.598   5.723  19.468  0.00  0.00    +0.000 A 
ATOM     13  C   UNL     1       4.200   4.490  19.746  0.00  0.00    +0.000 A 
ATOM     14  C   UNL     1       3.444   3.489  20.396  0.00  0.00    +0.000 A 
ENDBRANCH   7  13
ENDBRANCH   6   7
ENDBRANCH   1   6
BRANCH   3  15
ATOM     15  O   UNL     1       6.775   3.944  14.336  0.00  0.00    +0.000 OA
BRANCH  15  16
ATOM     16  C   UNL     1       7.156   4.467  13.116  0.00  0.00    +0.000 C 
BRANCH  16  17
ATOM     17  C   UNL     1       6.388   3.765  11.995  0.00  0.00    +0.000 C 
ATOM     18  C   UNL     1       4.896   3.644  12.254  0.00  0.00    +0.000 C 
ATOM     19  C   UNL     1       4.541   2.665  11.161  0.00  0.00    +0.000 C 
ATOM     20  C   UNL     1       5.659   1.642  11.320  0.00  0.00    +0.000 C 
ATOM     21  N   UNL     1       6.848   2.382  11.786  0.00  0.00    +0.000 NA
ATOM     22  H   UNL     1       7.624   2.352  11.086  0.00  0.00    +0.000 HD
ENDBRANCH  16  17
ENDBRANCH  15  16
ENDBRANCH   3  15
TORSDOF 6
ENDMDL
MODEL 3
REMARK VINA RESULT:      -7.3      1.219      1.306
REMARK  Name = 
REMARK  7 active torsions:
REMARK  status: ('A' for Active; 'I' for Inactive)
REMARK    1  A    between atoms: C_1  and  C_2
REMARK    2  A    between atoms: C_6  and  O_7
REMARK    3  A    between atoms: O_7  and  C_8
REMARK    4  A    between atoms: C_8  and  C_9
REMARK    5  A    between atoms: C_11  and  O_12
REMARK    6  A    between atoms: O_12  and  C_13
REMARK    7  A    between atoms: C_13  and  C_14
REMARK                            x       y       z     vdW  Elec       q    Type
REMARK                         _______ _______ _______ _____ _____    ______ ____
ROOT
ATOM      1  C   UNL     1       5.283   6.221  17.275  0.00  0.00    +0.000 A 
ATOM      2  C   UNL     1       5.441   5.336  16.226  0.00  0.00    +0.000 A 
ATOM      3  C   UNL     1       6.783   5.429  15.925  0.00  0.00    +0.000 A 
ATOM      4  N   UNL     1       7.372   6.318  16.741  0.00  0.00    +0.000 NA
ATOM      5  O   UNL     1       6.441   6.782  17.531  0.00  0.00    +0.000 OA
ENDROOT
BRANCH   1   6
ATOM      6  C   UNL     1       4.018   6.518  18.020  0.00  0.00    +0.000 C 
BRANCH   6   7
ATOM      7  O   UNL     1       3.017   5.672  17.582  0.00  0.00    +0.000 OA
BRANCH   7  13
ATOM      8  C   UNL     1       1.458   3.115  21.538  0.00  0.00    +0.000 C 
ATOM      9  C   UNL     1       1.844   3.202  20.090  0.00  0.00    +0.000 A 
ATOM     10  C   UNL     1       1.795   2.061  19.274  0.00  0.00    +0.000 A 
ATOM     11  C   UNL     1       2.174   2.137  17.935  0.00  0.00    +0.000 A 
ATOM     12  C   UNL     1       2.592   3.353  17.391  0.00  0.00    +0.000 A 
ATOM     13  C   UNL     1       2.626   4.512  18.176  0.00  0.00    +0.000 A 
ATOM     14  C   UNL     1       2.255   4.429  19.537  0.00  0.00    +0.000 A 
ENDBRANCH   7  13
ENDBRANCH   6   7
ENDBRANCH   1   6
BRANCH   3  15
ATOM     15  O   UNL     1       7.413   4.733  14.952  0.00  0.00    +0.000 OA
BRANCH  15  16
ATOM     16  C   UNL     1       7.136   4.881  13.607  0.00  0.00    +0.000 C 
BRANCH  16  17
ATOM     17  C   UNL     1       6.355   3.665  13.107  0.00  0.00    +0.000 C 
ATOM     18  C   UNL     1       6.895   3.077  11.814  0.00  0.00    +0.000 C 
ATOM     19  C   UNL     1       5.748   2.160  11.470  0.00  0.00    +0.000 C 
ATOM     20  C   UNL     1       4.560   3.081  11.717  0.00  0.00    +0.000 C 
ATOM     21  N   UNL     1       4.949   3.987  12.816  0.00  0.00    +0.000 NA
ATOM     22  H   UNL     1       4.353   3.847  13.664  0.00  0.00    +0.000 HD
ENDBRANCH  16  17
ENDBRANCH  15  16
ENDBRANCH   3  15
TORSDOF 6
ENDMDL
MODEL 4
REMARK VINA RESULT:      -7.2      4.423      6.652
REMARK  Name = 
REMARK  7 active torsions:
REMARK  status: ('A' for Active; 'I' for Inactive)
REMARK    1  A    between atoms: C_1  and  C_2
REMARK    2  A    between atoms: C_6  and  O_7
REMARK    3  A    between atoms: O_7  and  C_8
REMARK    4  A    between atoms: C_8  and  C_9
REMARK    5  A    between atoms: C_11  and  O_12
REMARK    6  A    between atoms: O_12  and  C_13
REMARK    7  A    between atoms: C_13  and  C_14
REMARK                            x       y       z     vdW  Elec       q    Type
REMARK                         _______ _______ _______ _____ _____    ______ ____
ROOT
ATOM      1  C   UNL     1       6.897   5.826  17.562  0.00  0.00    +0.000 A 
ATOM      2  C   UNL     1       7.717   6.368  18.534  0.00  0.00    +0.000 A 
ATOM      3  C   UNL     1       7.963   7.643  18.074  0.00  0.00    +0.000 A 
ATOM      4  N   UNL     1       7.334   7.834  16.904  0.00  0.00    +0.000 NA
ATOM      5  O   UNL     1       6.713   6.721  16.620  0.00  0.00    +0.000 OA
ENDROOT
BRANCH   1   6
ATOM      6  C   UNL     1       6.301   4.452  17.549  0.00  0.00    +0.000 C 
BRANCH   6   7
ATOM      7  O   UNL     1       5.025   4.510  17.021  0.00  0.00    +0.000 OA
BRANCH   7  13
ATOM      8  C   UNL     1       1.793   5.727  20.583  0.00  0.00    +0.000 C 
ATOM      9  C   UNL     1       2.226   4.868  19.431  0.00  0.00    +0.000 A 
ATOM     10  C   UNL     1       1.417   3.809  18.993  0.00  0.00    +0.000 A 
ATOM     11  C   UNL     1       1.830   2.998  17.937  0.00  0.00    +0.000 A 
ATOM     12  C   UNL     1       3.047   3.242  17.299  0.00  0.00    +0.000 A 
ATOM     13  C   UNL     1       3.863   4.306  17.700  0.00  0.00    +0.000 A 
ATOM     14  C   UNL     1       3.448   5.119  18.779  0.00  0.00    +0.000 A 
ENDBRANCH   7  13
ENDBRANCH   6   7
ENDBRANCH   1   6
BRANCH   3  15
ATOM     15  O   UNL     1       8.726   8.565  18.705  0.00  0.00    +0.000 OA
BRANCH  15  16
ATOM     16  C   UNL     1       8.642   9.921  18.457  0.00  0.00    +0.000 C 
BRANCH  16  17
ATOM     17  C   UNL     1       9.785  10.645  19.169  0.00  0.00    +0.000 C 
ATOM     18  C   UNL     1       9.394  11.243  20.510  0.00  0.00    +0.000 C 
ATOM     19  C   UNL     1      10.606  12.108  20.751  0.00  0.00    +0.000 C 
ATOM     20  C   UNL     1      10.765  12.764  19.384  0.00  0.00    +0.000 C 
ATOM     21  N   UNL     1      10.299  11.780  18.386  0.00  0.00    +0.000 NA
ATOM     22  H   UNL     1      11.072  11.473  17.752  0.00  0.00    +0.000 HD
ENDBRANCH  16  17
ENDBRANCH  15  16
ENDBRANCH   3  15
TORSDOF 6
ENDMDL
MODEL 5
REMARK VINA RESULT:      -7.1      2.116      7.347
REMARK  Name = 
REMARK  7 active torsions:
REMARK  status: ('A' for Active; 'I' for Inactive)
REMARK    1  A    between atoms: C_1  and  C_2
REMARK    2  A    between atoms: C_6  and  O_7
REMARK    3  A    between atoms: O_7  and  C_8
REMARK    4  A    between atoms: C_8  and  C_9
REMARK    5  A    between atoms: C_11  and  O_12
REMARK    6  A    between atoms: O_12  and  C_13
REMARK    7  A    between atoms: C_13  and  C_14
REMARK                            x       y       z     vdW  Elec       q    Type
REMARK                         _______ _______ _______ _____ _____    ______ ____
ROOT
ATOM      1  C   UNL     1       5.619   4.757  17.221  0.00  0.00    +0.000 A 
ATOM      2  C   UNL     1       4.528   3.920  17.073  0.00  0.00    +0.000 A 
ATOM      3  C   UNL     1       3.515   4.594  17.720  0.00  0.00    +0.000 A 
ATOM      4  N   UNL     1       3.983   5.747  18.222  0.00  0.00    +0.000 NA
ATOM      5  O   UNL     1       5.250   5.809  17.914  0.00  0.00    +0.000 OA
ENDROOT
BRANCH   1   6
ATOM      6  C   UNL     1       7.003   4.535  16.695  0.00  0.00    +0.000 C 
BRANCH   6   7
ATOM      7  O   UNL     1       7.217   5.353  15.602  0.00  0.00    +0.000 OA
BRANCH   7  13
ATOM      8  C   UNL     1       5.371   2.554  11.945  0.00  0.00    +0.000 C 
ATOM      9  C   UNL     1       6.281   3.636  12.449  0.00  0.00    +0.000 A 
ATOM     10  C   UNL     1       7.116   4.330  11.560  0.00  0.00    +0.000 A 
ATOM     11  C   UNL     1       7.976   5.320  12.031  0.00  0.00    +0.000 A 
ATOM     12  C   UNL     1       8.004   5.639  13.390  0.00  0.00    +0.000 A 
ATOM     13  C   UNL     1       7.163   4.979  14.294  0.00  0.00    +0.000 A 
ATOM     14  C   UNL     1       6.302   3.967  13.816  0.00  0.00    +0.000 A 
ENDBRANCH   7  13
ENDBRANCH   6   7
ENDBRANCH   1   6
BRANCH   3  15
ATOM     15  O   UNL     1       2.239   4.158  17.835  0.00  0.00    +0.000 OA
BRANCH  15  16
ATOM     16  C   UNL     1       1.895   2.823  17.910  0.00  0.00    +0.000 C 
BRANCH  16  17
ATOM     17  C   UNL     1       1.751   2.411  19.376  0.00  0.00    +0.000 C 
ATOM     18  C   UNL     1       0.980   3.410  20.222  0.00  0.00    +0.000 C 
ATOM     19  C   UNL     1       1.307   2.868  21.592  0.00  0.00    +0.000 C 
ATOM     20  C   UNL     1       2.807   2.635  21.457  0.00  0.00    +0.000 C 
ATOM     21  N   UNL     1       3.055   2.276  20.046  0.00  0.00    +0.000 NA
ATOM     22  H   UNL     1       3.421   1.300  19.952  0.00  0.00    +0.000 HD
ENDBRANCH  16  17
ENDBRANCH  15  16
ENDBRANCH   3  15
TORSDOF 6
ENDMDL
MODEL 6
REMARK VINA RESULT:      -7.0      4.901      7.880
REMARK  Name = 
REMARK  7 active torsions:
REMARK  status: ('A' for Active; 'I' for Inactive)
REMARK    1  A    between atoms: C_1  and  C_2
REMARK    2  A    between atoms: C_6  and  O_7
REMARK    3  A    between atoms: O_7  and  C_8
REMARK    4  A    between atoms: C_8  and  C_9
REMARK    5  A    between atoms: C_11  and  O_12
REMARK    6  A    between atoms: O_12  and  C_13
REMARK    7  A    between atoms: C_13  and  C_14
REMARK                            x       y       z     vdW  Elec       q    Type
REMARK                         _______ _______ _______ _____ _____    ______ ____
ROOT
ATOM      1  C   UNL     1       7.508   7.170  17.564  0.00  0.00    +0.000 A 
ATOM      2  C   UNL     1       6.234   6.660  17.735  0.00  0.00    +0.000 A 
ATOM      3  C   UNL     1       6.011   5.954  16.574  0.00  0.00    +0.000 A 
ATOM      4  N   UNL     1       7.081   6.048  15.770  0.00  0.00    +0.000 NA
ATOM      5  O   UNL     1       7.957   6.794  16.389  0.00  0.00    +0.000 OA
ENDROOT
BRANCH   1   6
ATOM      6  C   UNL     1       8.279   8.013  18.531  0.00  0.00    +0.000 C 
BRANCH   6   7
ATOM      7  O   UNL     1       8.434   9.285  18.011  0.00  0.00    +0.000 OA
BRANCH   7  13
ATOM      8  C   UNL     1      11.598  13.059  17.418  0.00  0.00    +0.000 C 
ATOM      9  C   UNL     1      10.778  12.147  18.283  0.00  0.00    +0.000 A 
ATOM     10  C   UNL     1      10.788  12.297  19.679  0.00  0.00    +0.000 A 
ATOM     11  C   UNL     1      10.043  11.436  20.483  0.00  0.00    +0.000 A 
ATOM     12  C   UNL     1       9.272  10.426  19.906  0.00  0.00    +0.000 A 
ATOM     13  C   UNL     1       9.225  10.270  18.515  0.00  0.00    +0.000 A 
ATOM     14  C   UNL     1       9.991  11.136  17.703  0.00  0.00    +0.000 A 
ENDBRANCH   7  13
ENDBRANCH   6   7
ENDBRANCH   1   6
BRANCH   3  15
ATOM     15  O   UNL     1       4.881   5.268  16.285  0.00  0.00    +0.000 OA
BRANCH  15  16
ATOM     16  C   UNL     1       4.812   3.889  16.262  0.00  0.00    +0.000 C 
BRANCH  16  17
ATOM     17  C   UNL     1       3.901   3.401  17.389  0.00  0.00    +0.000 C 
ATOM     18  C   UNL     1       2.766   4.357  17.718  0.00  0.00    +0.000 C 
ATOM     19  C   UNL     1       2.304   3.743  19.017  0.00  0.00    +0.000 C 
ATOM     20  C   UNL     1       3.639   3.513  19.716  0.00  0.00    +0.000 C 
ATOM     21  N   UNL     1       4.627   3.228  18.657  0.00  0.00    +0.000 NA
ATOM     22  H   UNL     1       5.010   2.257  18.734  0.00  0.00    +0.000 HD
ENDBRANCH  16  17
ENDBRANCH  15  16
ENDBRANCH   3  15
TORSDOF 6
ENDMDL
MODEL 7
REMARK VINA RESULT:      -7.0      4.663      6.952
REMARK  Name = 
REMARK  7 active torsions:
REMARK  status: ('A' for Active; 'I' for Inactive)
REMARK    1  A    between atoms: C_1  and  C_2
REMARK    2  A    between atoms: C_6  and  O_7
REMARK    3  A    between atoms: O_7  and  C_8
REMARK    4  A    between atoms: C_8  and  C_9
REMARK    5  A    between atoms: C_11  and  O_12
REMARK    6  A    between atoms: O_12  and  C_13
REMARK    7  A    between atoms: C_13  and  C_14
REMARK                            x       y       z     vdW  Elec       q    Type
REMARK                         _______ _______ _______ _____ _____    ______ ____
ROOT
ATOM      1  C   UNL     1       7.433   6.105  17.741  0.00  0.00    +0.000 A 
ATOM      2  C   UNL     1       8.086   7.052  18.508  0.00  0.00    +0.000 A 
ATOM      3  C   UNL     1       7.770   8.242  17.889  0.00  0.00    +0.000 A 
ATOM      4  N   UNL     1       6.987   8.008  16.824  0.00  0.00    +0.000 NA
ATOM      5  O   UNL     1       6.813   6.715  16.758  0.00  0.00    +0.000 OA
ENDROOT
BRANCH   1   6
ATOM      6  C   UNL     1       7.413   4.624  17.962  0.00  0.00    +0.000 C 
BRANCH   6   7
ATOM      7  O   UNL     1       6.408   4.306  18.856  0.00  0.00    +0.000 OA
BRANCH   7  13
ATOM      8  C   UNL     1       2.078   6.376  20.110  0.00  0.00    +0.000 C 
ATOM      9  C   UNL     1       2.912   5.492  19.231  0.00  0.00    +0.000 A 
ATOM     10  C   UNL     1       2.331   4.821  18.143  0.00  0.00    +0.000 A 
ATOM     11  C   UNL     1       3.103   3.983  17.340  0.00  0.00    +0.000 A 
ATOM     12  C   UNL     1       4.463   3.814  17.603  0.00  0.00    +0.000 A 
ATOM     13  C   UNL     1       5.073   4.490  18.667  0.00  0.00    +0.000 A 
ATOM     14  C   UNL     1       4.287   5.329  19.487  0.00  0.00    +0.000 A 
ENDBRANCH   7  13
ENDBRANCH   6   7
ENDBRANCH   1   6
BRANCH   3  15
ATOM     15  O   UNL     1       8.186   9.464  18.293  0.00  0.00    +0.000 OA
BRANCH  15  16
ATOM     16  C   UNL     1       9.323   9.670  19.049  0.00  0.00    +0.000 C 
BRANCH  16  17
ATOM     17  C   UNL     1       9.336  11.106  19.575  0.00  0.00    +0.000 C 
ATOM     18  C   UNL     1      10.561  11.902  19.157  0.00  0.00    +0.000 C 
ATOM     19  C   UNL     1      10.403  13.087  20.077  0.00  0.00    +0.000 C 
ATOM     20  C   UNL     1      10.079  12.388  21.391  0.00  0.00    +0.000 C 
ATOM     21  N   UNL     1       9.336  11.161  21.046  0.00  0.00    +0.000 NA
ATOM     22  H   UNL     1       8.357  11.181  21.415  0.00  0.00    +0.000 HD
ENDBRANCH  16  17
ENDBRANCH  15  16
ENDBRANCH   3  15
TORSDOF 6
ENDMDL
MODEL 8
REMARK VINA RESULT:      -7.0      4.531      6.445
REMARK  Name = 
REMARK  7 active torsions:
REMARK  status: ('A' for Active; 'I' for Inactive)
REMARK    1  A    between atoms: C_1  and  C_2
REMARK    2  A    between atoms: C_6  and  O_7
REMARK    3  A    between atoms: O_7  and  C_8
REMARK    4  A    between atoms: C_8  and  C_9
REMARK    5  A    between atoms: C_11  and  O_12
REMARK    6  A    between atoms: O_12  and  C_13
REMARK    7  A    between atoms: C_13  and  C_14
REMARK                            x       y       z     vdW  Elec       q    Type
REMARK                         _______ _______ _______ _____ _____    ______ ____
ROOT
ATOM      1  C   UNL     1       7.021   6.110  17.589  0.00  0.00    +0.000 A 
ATOM      2  C   UNL     1       7.899   6.570  18.553  0.00  0.00    +0.000 A 
ATOM      3  C   UNL     1       8.140   7.872  18.175  0.00  0.00    +0.000 A 
ATOM      4  N   UNL     1       7.454   8.157  17.057  0.00  0.00    +0.000 NA
ATOM      5  O   UNL     1       6.802   7.075  16.726  0.00  0.00    +0.000 OA
ENDROOT
BRANCH   1   6
ATOM      6  C   UNL     1       6.403   4.749  17.508  0.00  0.00    +0.000 C 
BRANCH   6   7
ATOM      7  O   UNL     1       6.112   4.299  18.782  0.00  0.00    +0.000 OA
BRANCH   7  13
ATOM      8  C   UNL     1       1.823   6.155  20.446  0.00  0.00    +0.000 C 
ATOM      9  C   UNL     1       2.730   5.000  20.137  0.00  0.00    +0.000 A 
ATOM     10  C   UNL     1       2.308   3.683  20.378  0.00  0.00    +0.000 A 
ATOM     11  C   UNL     1       3.159   2.612  20.110  0.00  0.00    +0.000 A 
ATOM     12  C   UNL     1       4.433   2.841  19.588  0.00  0.00    +0.000 A 
ATOM     13  C   UNL     1       4.870   4.142  19.316  0.00  0.00    +0.000 A 
ATOM     14  C   UNL     1       4.011   5.227  19.600  0.00  0.00    +0.000 A 
ENDBRANCH   7  13
ENDBRANCH   6   7
ENDBRANCH   1   6
BRANCH   3  15
ATOM     15  O   UNL     1       8.949   8.736  18.830  0.00  0.00    +0.000 OA
BRANCH  15  16
ATOM     16  C   UNL     1       8.672  10.082  18.969  0.00  0.00    +0.000 C 
BRANCH  16  17
ATOM     17  C   UNL     1       9.656  10.899  18.131  0.00  0.00    +0.000 C 
ATOM     18  C   UNL     1      10.914  11.304  18.881  0.00  0.00    +0.000 C 
ATOM     19  C   UNL     1      11.462  12.314  17.903  0.00  0.00    +0.000 C 
ATOM     20  C   UNL     1      10.203  13.110  17.579  0.00  0.00    +0.000 C 
ATOM     21  N   UNL     1       9.072  12.166  17.663  0.00  0.00    +0.000 NA
ATOM     22  H   UNL     1       8.603  12.038  16.737  0.00  0.00    +0.000 HD
ENDBRANCH  16  17
ENDBRANCH  15  16
ENDBRANCH   3  15
TORSDOF 6
ENDMDL
MODEL 9
REMARK VINA RESULT:      -7.0      5.020      8.157
REMARK  Name = 
REMARK  7 active torsions:
REMARK  status: ('A' for Active; 'I' for Inactive)
REMARK    1  A    between atoms: C_1  and  C_2
REMARK    2  A    between atoms: C_6  and  O_7
REMARK    3  A    between atoms: O_7  and  C_8
REMARK    4  A    between atoms: C_8  and  C_9
REMARK    5  A    between atoms: C_11  and  O_12
REMARK    6  A    between atoms: O_12  and  C_13
REMARK    7  A    between atoms: C_13  and  C_14
REMARK                            x       y       z     vdW  Elec       q    Type
REMARK                         _______ _______ _______ _____ _____    ______ ____
ROOT
ATOM      1  C   UNL     1       7.641   7.254  18.086  0.00  0.00    +0.000 A 
ATOM      2  C   UNL     1       6.561   6.629  17.491  0.00  0.00    +0.000 A 
ATOM      3  C   UNL     1       6.536   5.389  18.090  0.00  0.00    +0.000 A 
ATOM      4  N   UNL     1       7.541   5.289  18.974  0.00  0.00    +0.000 NA
ATOM      5  O   UNL     1       8.191   6.421  18.939  0.00  0.00    +0.000 OA
ENDROOT
BRANCH   1   6
ATOM      6  C   UNL     1       8.133   8.644  17.827  0.00  0.00    +0.000 C 
BRANCH   6   7
ATOM      7  O   UNL     1       8.830   9.098  18.930  0.00  0.00    +0.000 OA
BRANCH   7  13
ATOM      8  C   UNL     1      10.960  13.157  17.032  0.00  0.00    +0.000 C 
ATOM      9  C   UNL     1      10.444  12.357  18.192  0.00  0.00    +0.000 A 
ATOM     10  C   UNL     1      10.517  12.871  19.496  0.00  0.00    +0.000 A 
ATOM     11  C   UNL     1      10.057  12.118  20.575  0.00  0.00    +0.000 A 
ATOM     12  C   UNL     1       9.507  10.852  20.366  0.00  0.00    +0.000 A 
ATOM     13  C   UNL     1       9.400  10.326  19.073  0.00  0.00    +0.000 A 
ATOM     14  C   UNL     1       9.879  11.085  17.982  0.00  0.00    +0.000 A 
ENDBRANCH   7  13
ENDBRANCH   6   7
ENDBRANCH   1   6
BRANCH   3  15
ATOM     15  O   UNL     1       5.635   4.414  17.827  0.00  0.00    +0.000 OA
BRANCH  15  16
ATOM     16  C   UNL     1       4.984   3.694  18.809  0.00  0.00    +0.000 C 
BRANCH  16  17
ATOM     17  C   UNL     1       3.542   4.189  18.938  0.00  0.00    +0.000 C 
ATOM     18  C   UNL     1       2.645   3.263  19.743  0.00  0.00    +0.000 C 
ATOM     19  C   UNL     1       1.306   3.867  19.397  0.00  0.00    +0.000 C 
ATOM     20  C   UNL     1       1.451   4.041  17.890  0.00  0.00    +0.000 C 
ATOM     21  N   UNL     1       2.878   4.315  17.631  0.00  0.00    +0.000 NA
ATOM     22  H   UNL     1       3.024   5.271  17.232  0.00  0.00    +0.000 HD
ENDBRANCH  16  17
ENDBRANCH  15  16
ENDBRANCH   3  15
TORSDOF 6
ENDMDL
