MODEL 1
REMARK VINA RESULT:      -8.3      0.000      0.000
REMARK  Name = 
REMARK  7 active torsions:
REMARK  status: ('A' for Active; 'I' for Inactive)
REMARK    1  A    between atoms: N_1  and  C_2
REMARK    2  A    between atoms: N_10  and  C_11
REMARK    3  A    between atoms: C_13  and  C_14
REMARK    4  A    between atoms: C_14  and  O_15
REMARK    5  A    between atoms: C_14  and  C_16
REMARK    6  A    between atoms: C_24  and  O_25
REMARK    7  A    between atoms: C_26  and  O_27
REMARK                            x       y       z     vdW  Elec       q    Type
REMARK                         _______ _______ _______ _____ _____    ______ ____
ROOT
ATOM      1  C   UNL     1       3.028   6.376  19.308  0.00  0.00    +0.000 C 
ATOM      2  O   UNL     1       3.624   5.913  18.086  0.00  0.00    +0.000 OA
ATOM      3  C   UNL     1       3.523   4.485  18.018  0.00  0.00    +0.000 C 
ATOM      4  C   UNL     1       2.735   3.984  19.233  0.00  0.00    +0.000 C 
ATOM      5  C   UNL     1       2.171   5.245  19.882  0.00  0.00    +0.000 C 
ENDROOT
BRANCH   1  14
ATOM      6  C   UNL     1       0.434  10.405  20.163  0.00  0.00    +0.000 A 
ATOM      7  N   UNL     1       0.325  10.136  21.479  0.00  0.00    +0.000 NA
ATOM      8  C   UNL     1       0.873   9.001  21.955  0.00  0.00    +0.000 A 
ATOM      9  N   UNL     1       1.557   8.055  21.287  0.00  0.00    +0.000 NA
ATOM     10  C   UNL     1       1.655   8.356  19.979  0.00  0.00    +0.000 A 
ATOM     11  C   UNL     1       1.130   9.483  19.354  0.00  0.00    +0.000 A 
ATOM     12  C   UNL     1       1.477   9.394  17.974  0.00  0.00    +0.000 A 
ATOM     13  C   UNL     1       2.182   8.222  17.800  0.00  0.00    +0.000 A 
ATOM     14  N   UNL     1       2.292   7.602  19.026  0.00  0.00    +0.000 N 
BRANCH   6  15
ATOM     15  N   UNL     1      -0.119  11.579  19.696  0.00  0.00    +0.000 N 
ATOM     16  H   UNL     1      -0.462  12.151  20.453  0.00  0.00    +0.000 HD
ATOM     17  H   UNL     1       0.405  12.049  18.967  0.00  0.00    +0.000 HD
ENDBRANCH   6  15
ENDBRANCH   1  14
BRANCH   4  18
ATOM     18  O   UNL     1       3.551   3.201  20.110  0.00  0.00    +0.000 OA
ATOM     19  H   UNL     1       3.895   2.445  19.597  0.00  0.00    +0.000 HD
ENDBRANCH   4  18
BRANCH   5  20
ATOM     20  O   UNL     1       2.205   5.103  21.306  0.00  0.00    +0.000 OA
ATOM     21  H   UNL     1       3.113   4.902  21.601  0.00  0.00    +0.000 HD
ENDBRANCH   5  20
BRANCH   3  22
ATOM     22  C   UNL     1       4.908   3.811  17.781  0.00  0.00    +0.000 C 
BRANCH  22  23
ATOM     23  C   UNL     1       5.632   4.163  16.477  0.00  0.00    +0.000 A 
ATOM     24  C   UNL     1       6.836   4.889  16.498  0.00  0.00    +0.000 A 
ATOM     25  C   UNL     1       7.530   5.187  15.319  0.00  0.00    +0.000 A 
ATOM     26  C   UNL     1       7.006   4.801  14.090  0.00  0.00    +0.000 A 
ATOM     27 CL   UNL     1       7.869   5.167  12.647  0.00  0.00    +0.000 Cl
ATOM     28  C   UNL     1       5.789   4.132  14.044  0.00  0.00    +0.000 A 
ATOM     29  F   UNL     1       5.250   3.772  12.870  0.00  0.00    +0.000 F 
ATOM     30  C   UNL     1       5.104   3.818  15.219  0.00  0.00    +0.000 A 
ENDBRANCH  22  23
BRANCH  22  31
ATOM     31  O   UNL     1       5.738   4.088  18.917  0.00  0.00    +0.000 OA
ATOM     32  H   UNL     1       5.125   4.365  19.630  0.00  0.00    +0.000 HD
ENDBRANCH  22  31
ENDBRANCH   3  22
TORSDOF 7
ENDMDL
MODEL 2
REMARK VINA RESULT:      -7.5      1.026      1.376
REMARK  Name = 
REMARK  7 active torsions:
REMARK  status: ('A' for Active; 'I' for Inactive)
REMARK    1  A    between atoms: N_1  and  C_2
REMARK    2  A    between atoms: N_10  and  C_11
REMARK    3  A    between atoms: C_13  and  C_14
REMARK    4  A    between atoms: C_14  and  O_15
REMARK    5  A    between atoms: C_14  and  C_16
REMARK    6  A    between atoms: C_24  and  O_25
REMARK    7  A    between atoms: C_26  and  O_27
REMARK                            x       y       z     vdW  Elec       q    Type
REMARK                         _______ _______ _______ _____ _____    ______ ____
ROOT
ATOM      1  C   UNL     1       3.065   6.830  19.200  0.00  0.00    +0.000 C 
ATOM      2  O   UNL     1       3.761   6.571  17.970  0.00  0.00    +0.000 OA
ATOM      3  C   UNL     1       3.885   5.155  17.783  0.00  0.00    +0.000 C 
ATOM      4  C   UNL     1       3.150   4.437  18.919  0.00  0.00    +0.000 C 
ATOM      5  C   UNL     1       2.377   5.536  19.643  0.00  0.00    +0.000 C 
ENDROOT
BRANCH   1  14
ATOM      6  C   UNL     1      -0.005  10.446  20.289  0.00  0.00    +0.000 A 
ATOM      7  N   UNL     1      -0.010  10.137  21.601  0.00  0.00    +0.000 NA
ATOM      8  C   UNL     1       0.711   9.078  22.018  0.00  0.00    +0.000 A 
ATOM      9  N   UNL     1       1.482   8.249  21.292  0.00  0.00    +0.000 NA
ATOM     10  C   UNL     1       1.472   8.588  19.990  0.00  0.00    +0.000 A 
ATOM     11  C   UNL     1       0.767   9.645  19.423  0.00  0.00    +0.000 A 
ATOM     12  C   UNL     1       1.053   9.634  18.026  0.00  0.00    +0.000 A 
ATOM     13  C   UNL     1       1.900   8.574  17.786  0.00  0.00    +0.000 A 
ATOM     14  N   UNL     1       2.156   7.949  18.988  0.00  0.00    +0.000 N 
BRANCH   6  15
ATOM     15  N   UNL     1      -0.736  11.543  19.881  0.00  0.00    +0.000 N 
ATOM     16  H   UNL     1      -0.281  12.406  20.143  0.00  0.00    +0.000 HD
ATOM     17  H   UNL     1      -1.116  11.491  18.944  0.00  0.00    +0.000 HD
ENDBRANCH   6  15
ENDBRANCH   1  14
BRANCH   4  18
ATOM     18  O   UNL     1       4.051   3.715  19.763  0.00  0.00    +0.000 OA
ATOM     19  H   UNL     1       4.405   2.966  19.245  0.00  0.00    +0.000 HD
ENDBRANCH   4  18
BRANCH   5  20
ATOM     20  O   UNL     1       2.392   5.278  21.051  0.00  0.00    +0.000 OA
ATOM     21  H   UNL     1       1.485   5.310  21.408  0.00  0.00    +0.000 HD
ENDBRANCH   5  20
BRANCH   3  22
ATOM     22  C   UNL     1       5.364   4.723  17.550  0.00  0.00    +0.000 C 
BRANCH  22  23
ATOM     23  C   UNL     1       5.814   4.558  16.095  0.00  0.00    +0.000 A 
ATOM     24  C   UNL     1       5.091   3.740  15.208  0.00  0.00    +0.000 A 
ATOM     25  C   UNL     1       5.467   3.608  13.865  0.00  0.00    +0.000 A 
ATOM     26  C   UNL     1       6.602   4.259  13.396  0.00  0.00    +0.000 A 
ATOM     27 CL   UNL     1       7.051   4.094  11.743  0.00  0.00    +0.000 Cl
ATOM     28  C   UNL     1       7.361   5.028  14.269  0.00  0.00    +0.000 A 
ATOM     29  F   UNL     1       8.475   5.645  13.847  0.00  0.00    +0.000 F 
ATOM     30  C   UNL     1       6.979   5.176  15.603  0.00  0.00    +0.000 A 
ENDBRANCH  22  23
BRANCH  22  31
ATOM     31  O   UNL     1       6.212   5.647  18.246  0.00  0.00    +0.000 OA
ATOM     32  H   UNL     1       7.035   5.154  18.441  0.00  0.00    +0.000 HD
ENDBRANCH  22  31
ENDBRANCH   3  22
TORSDOF 7
ENDMDL
MODEL 3
REMARK VINA RESULT:      -7.5      4.856      6.567
REMARK  Name = 
REMARK  7 active torsions:
REMARK  status: ('A' for Active; 'I' for Inactive)
REMARK    1  A    between atoms: N_1  and  C_2
REMARK    2  A    between atoms: N_10  and  C_11
REMARK    3  A    between atoms: C_13  and  C_14
REMARK    4  A    between atoms: C_14  and  O_15
REMARK    5  A    between atoms: C_14  and  C_16
REMARK    6  A    between atoms: C_24  and  O_25
REMARK    7  A    between atoms: C_26  and  O_27
REMARK                            x       y       z     vdW  Elec       q    Type
REMARK                         _______ _______ _______ _____ _____    ______ ____
ROOT
ATOM      1  C   UNL     1       5.441   5.401  18.060  0.00  0.00    +0.000 C 
ATOM      2  O   UNL     1       5.973   6.622  18.599  0.00  0.00    +0.000 OA
ATOM      3  C   UNL     1       6.635   7.353  17.558  0.00  0.00    +0.000 C 
ATOM      4  C   UNL     1       6.454   6.606  16.233  0.00  0.00    +0.000 C 
ATOM      5  C   UNL     1       5.426   5.518  16.533  0.00  0.00    +0.000 C 
ENDROOT
BRANCH   1  14
ATOM      6  C   UNL     1       1.509   2.946  19.543  0.00  0.00    +0.000 A 
ATOM      7  N   UNL     1       1.939   1.793  18.993  0.00  0.00    +0.000 NA
ATOM      8  C   UNL     1       3.106   1.793  18.320  0.00  0.00    +0.000 A 
ATOM      9  N   UNL     1       3.955   2.816  18.112  0.00  0.00    +0.000 NA
ATOM     10  C   UNL     1       3.502   3.949  18.679  0.00  0.00    +0.000 A 
ATOM     11  C   UNL     1       2.315   4.093  19.391  0.00  0.00    +0.000 A 
ATOM     12  C   UNL     1       2.244   5.454  19.811  0.00  0.00    +0.000 A 
ATOM     13  C   UNL     1       3.369   6.092  19.335  0.00  0.00    +0.000 A 
ATOM     14  N   UNL     1       4.132   5.167  18.655  0.00  0.00    +0.000 N 
BRANCH   6  15
ATOM     15  N   UNL     1       0.321   2.924  20.243  0.00  0.00    +0.000 N 
ATOM     16  H   UNL     1       0.244   2.094  20.812  0.00  0.00    +0.000 HD
ATOM     17  H   UNL     1       0.050   3.801  20.673  0.00  0.00    +0.000 HD
ENDBRANCH   6  15
ENDBRANCH   1  14
BRANCH   4  18
ATOM     18  O   UNL     1       7.696   6.104  15.732  0.00  0.00    +0.000 OA
ATOM     19  H   UNL     1       7.582   5.933  14.777  0.00  0.00    +0.000 HD
ENDBRANCH   4  18
BRANCH   5  20
ATOM     20  O   UNL     1       5.773   4.327  15.818  0.00  0.00    +0.000 OA
ATOM     21  H   UNL     1       6.661   4.418  15.425  0.00  0.00    +0.000 HD
ENDBRANCH   5  20
BRANCH   3  22
ATOM     22  C   UNL     1       8.102   7.714  17.940  0.00  0.00    +0.000 C 
BRANCH  22  23
ATOM     23  C   UNL     1       8.412   9.198  18.162  0.00  0.00    +0.000 A 
ATOM     24  C   UNL     1       9.266   9.606  19.202  0.00  0.00    +0.000 A 
ATOM     25  C   UNL     1       9.589  10.955  19.396  0.00  0.00    +0.000 A 
ATOM     26  C   UNL     1       9.025  11.927  18.578  0.00  0.00    +0.000 A 
ATOM     27 CL   UNL     1       9.433  13.581  18.821  0.00  0.00    +0.000 Cl
ATOM     28  C   UNL     1       8.135  11.550  17.580  0.00  0.00    +0.000 A 
ATOM     29  F   UNL     1       7.558  12.472  16.794  0.00  0.00    +0.000 F 
ATOM     30  C   UNL     1       7.826  10.206  17.372  0.00  0.00    +0.000 A 
ENDBRANCH  22  23
BRANCH  22  31
ATOM     31  O   UNL     1       8.467   6.938  19.089  0.00  0.00    +0.000 OA
ATOM     32  H   UNL     1       9.245   6.411  18.815  0.00  0.00    +0.000 HD
ENDBRANCH  22  31
ENDBRANCH   3  22
TORSDOF 7
ENDMDL
MODEL 4
REMARK VINA RESULT:      -7.3      1.061      1.378
REMARK  Name = 
REMARK  7 active torsions:
REMARK  status: ('A' for Active; 'I' for Inactive)
REMARK    1  A    between atoms: N_1  and  C_2
REMARK    2  A    between atoms: N_10  and  C_11
REMARK    3  A    between atoms: C_13  and  C_14
REMARK    4  A    between atoms: C_14  and  O_15
REMARK    5  A    between atoms: C_14  and  C_16
REMARK    6  A    between atoms: C_24  and  O_25
REMARK    7  A    between atoms: C_26  and  O_27
REMARK                            x       y       z     vdW  Elec       q    Type
REMARK                         _______ _______ _______ _____ _____    ______ ____
ROOT
ATOM      1  C   UNL     1       2.912   6.274  19.370  0.00  0.00    +0.000 C 
ATOM      2  O   UNL     1       3.395   5.700  18.145  0.00  0.00    +0.000 OA
ATOM      3  C   UNL     1       3.183   4.282  18.167  0.00  0.00    +0.000 C 
ATOM      4  C   UNL     1       2.436   3.911  19.452  0.00  0.00    +0.000 C 
ATOM      5  C   UNL     1       2.008   5.246  20.056  0.00  0.00    +0.000 C 
ENDROOT
BRANCH   1  14
ATOM      6  C   UNL     1       0.541  10.456  20.126  0.00  0.00    +0.000 A 
ATOM      7  N   UNL     1       0.390  10.210  21.442  0.00  0.00    +0.000 NA
ATOM      8  C   UNL     1       0.861   9.051  21.942  0.00  0.00    +0.000 A 
ATOM      9  N   UNL     1       1.502   8.059  21.299  0.00  0.00    +0.000 NA
ATOM     10  C   UNL     1       1.644   8.338  19.990  0.00  0.00    +0.000 A 
ATOM     11  C   UNL     1       1.198   9.485  19.342  0.00  0.00    +0.000 A 
ATOM     12  C   UNL     1       1.567   9.360  17.971  0.00  0.00    +0.000 A 
ATOM     13  C   UNL     1       2.206   8.147  17.825  0.00  0.00    +0.000 A 
ATOM     14  N   UNL     1       2.254   7.537  19.060  0.00  0.00    +0.000 N 
BRANCH   6  15
ATOM     15  N   UNL     1       0.067  11.655  19.634  0.00  0.00    +0.000 N 
ATOM     16  H   UNL     1      -0.798  11.530  19.130  0.00  0.00    +0.000 HD
ATOM     17  H   UNL     1       0.115  12.439  20.275  0.00  0.00    +0.000 HD
ENDBRANCH   6  15
ENDBRANCH   1  14
BRANCH   4  18
ATOM     18  O   UNL     1       3.242   3.115  20.325  0.00  0.00    +0.000 OA
ATOM     19  H   UNL     1       3.110   2.179  20.077  0.00  0.00    +0.000 HD
ENDBRANCH   4  18
BRANCH   5  20
ATOM     20  O   UNL     1       2.118   5.178  21.482  0.00  0.00    +0.000 OA
ATOM     21  H   UNL     1       1.465   5.770  21.898  0.00  0.00    +0.000 HD
ENDBRANCH   5  20
BRANCH   3  22
ATOM     22  C   UNL     1       4.496   3.490  17.892  0.00  0.00    +0.000 C 
BRANCH  22  23
ATOM     23  C   UNL     1       5.389   4.007  16.759  0.00  0.00    +0.000 A 
ATOM     24  C   UNL     1       5.382   3.386  15.497  0.00  0.00    +0.000 A 
ATOM     25  C   UNL     1       6.164   3.868  14.441  0.00  0.00    +0.000 A 
ATOM     26  C   UNL     1       7.004   4.959  14.641  0.00  0.00    +0.000 A 
ATOM     27 CL   UNL     1       7.955   5.547  13.334  0.00  0.00    +0.000 Cl
ATOM     28  C   UNL     1       7.067   5.552  15.896  0.00  0.00    +0.000 A 
ATOM     29  F   UNL     1       7.888   6.589  16.121  0.00  0.00    +0.000 F 
ATOM     30  C   UNL     1       6.276   5.085  16.946  0.00  0.00    +0.000 A 
ENDBRANCH  22  23
BRANCH  22  31
ATOM     31  O   UNL     1       5.229   3.402  19.121  0.00  0.00    +0.000 OA
ATOM     32  H   UNL     1       4.693   2.829  19.707  0.00  0.00    +0.000 HD
ENDBRANCH  22  31
ENDBRANCH   3  22
TORSDOF 7
ENDMDL
MODEL 5
REMARK VINA RESULT:      -7.3      5.430      9.243
REMARK  Name = 
REMARK  7 active torsions:
REMARK  status: ('A' for Active; 'I' for Inactive)
REMARK    1  A    between atoms: N_1  and  C_2
REMARK    2  A    between atoms: N_10  and  C_11
REMARK    3  A    between atoms: C_13  and  C_14
REMARK    4  A    between atoms: C_14  and  O_15
REMARK    5  A    between atoms: C_14  and  C_16
REMARK    6  A    between atoms: C_24  and  O_25
REMARK    7  A    between atoms: C_26  and  O_27
REMARK                            x       y       z     vdW  Elec       q    Type
REMARK                         _______ _______ _______ _____ _____    ______ ____
ROOT
ATOM      1  C   UNL     1       2.430   7.834  19.551  0.00  0.00    +0.000 C 
ATOM      2  O   UNL     1       1.564   8.321  20.588  0.00  0.00    +0.000 OA
ATOM      3  C   UNL     1       0.657   9.285  20.038  0.00  0.00    +0.000 C 
ATOM      4  C   UNL     1       0.883   9.374  18.526  0.00  0.00    +0.000 C 
ATOM      5  C   UNL     1       1.817   8.212  18.199  0.00  0.00    +0.000 C 
ENDROOT
BRANCH   1  14
ATOM      6  C   UNL     1       4.586   3.476  19.330  0.00  0.00    +0.000 A 
ATOM      7  N   UNL     1       5.601   3.942  18.575  0.00  0.00    +0.000 NA
ATOM      8  C   UNL     1       5.592   5.239  18.208  0.00  0.00    +0.000 A 
ATOM      9  N   UNL     1       4.688   6.189  18.506  0.00  0.00    +0.000 NA
ATOM     10  C   UNL     1       3.693   5.695  19.266  0.00  0.00    +0.000 A 
ATOM     11  C   UNL     1       3.571   4.380  19.706  0.00  0.00    +0.000 A 
ATOM     12  C   UNL     1       2.377   4.310  20.481  0.00  0.00    +0.000 A 
ATOM     13  C   UNL     1       1.807   5.565  20.478  0.00  0.00    +0.000 A 
ATOM     14  N   UNL     1       2.620   6.402  19.743  0.00  0.00    +0.000 N 
BRANCH   6  15
ATOM     15  N   UNL     1       4.619   2.150  19.709  0.00  0.00    +0.000 N 
ATOM     16  H   UNL     1       5.459   1.695  19.383  0.00  0.00    +0.000 HD
ATOM     17  H   UNL     1       4.336   1.962  20.664  0.00  0.00    +0.000 HD
ENDBRANCH   6  15
ENDBRANCH   1  14
BRANCH   4  18
ATOM     18  O   UNL     1       1.397  10.652  18.140  0.00  0.00    +0.000 OA
ATOM     19  H   UNL     1       2.328  10.527  17.870  0.00  0.00    +0.000 HD
ENDBRANCH   4  18
BRANCH   5  20
ATOM     20  O   UNL     1       2.747   8.618  17.189  0.00  0.00    +0.000 OA
ATOM     21  H   UNL     1       2.610   9.558  16.966  0.00  0.00    +0.000 HD
ENDBRANCH   5  20
BRANCH   3  22
ATOM     22  C   UNL     1       0.698  10.636  20.813  0.00  0.00    +0.000 C 
BRANCH  22  23
ATOM     23  C   UNL     1      -0.647  11.325  21.070  0.00  0.00    +0.000 A 
ATOM     24  C   UNL     1      -1.376  11.895  20.011  0.00  0.00    +0.000 A 
ATOM     25  C   UNL     1      -2.623  12.495  20.223  0.00  0.00    +0.000 A 
ATOM     26  C   UNL     1      -3.144  12.576  21.510  0.00  0.00    +0.000 A 
ATOM     27 CL   UNL     1      -4.681  13.310  21.758  0.00  0.00    +0.000 Cl
ATOM     28  C   UNL     1      -2.414  12.068  22.577  0.00  0.00    +0.000 A 
ATOM     29  F   UNL     1      -2.883  12.157  23.831  0.00  0.00    +0.000 F 
ATOM     30  C   UNL     1      -1.179  11.453  22.367  0.00  0.00    +0.000 A 
ENDBRANCH  22  23
BRANCH  22  31
ATOM     31  O   UNL     1       1.407  10.424  22.041  0.00  0.00    +0.000 OA
ATOM     32  H   UNL     1       1.929  11.239  22.188  0.00  0.00    +0.000 HD
ENDBRANCH  22  31
ENDBRANCH   3  22
TORSDOF 7
ENDMDL
MODEL 6
REMARK VINA RESULT:      -7.3      5.035      6.752
REMARK  Name = 
REMARK  7 active torsions:
REMARK  status: ('A' for Active; 'I' for Inactive)
REMARK    1  A    between atoms: N_1  and  C_2
REMARK    2  A    between atoms: N_10  and  C_11
REMARK    3  A    between atoms: C_13  and  C_14
REMARK    4  A    between atoms: C_14  and  O_15
REMARK    5  A    between atoms: C_14  and  C_16
REMARK    6  A    between atoms: C_24  and  O_25
REMARK    7  A    between atoms: C_26  and  O_27
REMARK                            x       y       z     vdW  Elec       q    Type
REMARK                         _______ _______ _______ _____ _____    ______ ____
ROOT
ATOM      1  C   UNL     1       5.441   5.394  18.065  0.00  0.00    +0.000 C 
ATOM      2  O   UNL     1       5.984   6.599  18.630  0.00  0.00    +0.000 OA
ATOM      3  C   UNL     1       6.652   7.346  17.606  0.00  0.00    +0.000 C 
ATOM      4  C   UNL     1       6.465   6.630  16.265  0.00  0.00    +0.000 C 
ATOM      5  C   UNL     1       5.428   5.545  16.541  0.00  0.00    +0.000 C 
ENDROOT
BRANCH   1  14
ATOM      6  C   UNL     1       1.500   2.937  19.520  0.00  0.00    +0.000 A 
ATOM      7  N   UNL     1       1.929   1.787  18.963  0.00  0.00    +0.000 NA
ATOM      8  C   UNL     1       3.098   1.789  18.292  0.00  0.00    +0.000 A 
ATOM      9  N   UNL     1       3.950   2.811  18.095  0.00  0.00    +0.000 NA
ATOM     10  C   UNL     1       3.497   3.942  18.668  0.00  0.00    +0.000 A 
ATOM     11  C   UNL     1       2.309   4.083  19.377  0.00  0.00    +0.000 A 
ATOM     12  C   UNL     1       2.239   5.441  19.807  0.00  0.00    +0.000 A 
ATOM     13  C   UNL     1       3.367   6.081  19.339  0.00  0.00    +0.000 A 
ATOM     14  N   UNL     1       4.130   5.159  18.655  0.00  0.00    +0.000 N 
BRANCH   6  15
ATOM     15  N   UNL     1       0.309   2.912  20.216  0.00  0.00    +0.000 N 
ATOM     16  H   UNL     1       0.218   2.066  20.758  0.00  0.00    +0.000 HD
ATOM     17  H   UNL     1       0.052   3.779  20.672  0.00  0.00    +0.000 HD
ENDBRANCH   6  15
ENDBRANCH   1  14
BRANCH   4  18
ATOM     18  O   UNL     1       7.703   6.128  15.753  0.00  0.00    +0.000 OA
ATOM     19  H   UNL     1       8.244   6.894  15.482  0.00  0.00    +0.000 HD
ENDBRANCH   4  18
BRANCH   5  20
ATOM     20  O   UNL     1       5.765   4.367  15.800  0.00  0.00    +0.000 OA
ATOM     21  H   UNL     1       6.351   3.794  16.329  0.00  0.00    +0.000 HD
ENDBRANCH   5  20
BRANCH   3  22
ATOM     22  C   UNL     1       8.122   7.686  17.996  0.00  0.00    +0.000 C 
BRANCH  22  23
ATOM     23  C   UNL     1       8.444   9.162  18.255  0.00  0.00    +0.000 A 
ATOM     24  C   UNL     1       7.961  10.164  17.394  0.00  0.00    +0.000 A 
ATOM     25  C   UNL     1       8.213  11.520  17.637  0.00  0.00    +0.000 A 
ATOM     26  C   UNL     1       8.995  11.895  18.724  0.00  0.00    +0.000 A 
ATOM     27 CL   UNL     1       9.294  13.564  19.017  0.00  0.00    +0.000 Cl
ATOM     28  C   UNL     1       9.527  10.917  19.555  0.00  0.00    +0.000 A 
ATOM     29  F   UNL     1      10.305  11.252  20.596  0.00  0.00    +0.000 F 
ATOM     30  C   UNL     1       9.262   9.566  19.326  0.00  0.00    +0.000 A 
ENDBRANCH  22  23
BRANCH  22  31
ATOM     31  O   UNL     1       8.482   6.879  19.125  0.00  0.00    +0.000 OA
ATOM     32  H   UNL     1       9.439   7.032  19.264  0.00  0.00    +0.000 HD
ENDBRANCH  22  31
ENDBRANCH   3  22
TORSDOF 7
ENDMDL
MODEL 7
REMARK VINA RESULT:      -7.3      5.304      9.242
REMARK  Name = 
REMARK  7 active torsions:
REMARK  status: ('A' for Active; 'I' for Inactive)
REMARK    1  A    between atoms: N_1  and  C_2
REMARK    2  A    between atoms: N_10  and  C_11
REMARK    3  A    between atoms: C_13  and  C_14
REMARK    4  A    between atoms: C_14  and  O_15
REMARK    5  A    between atoms: C_14  and  C_16
REMARK    6  A    between atoms: C_24  and  O_25
REMARK    7  A    between atoms: C_26  and  O_27
REMARK                            x       y       z     vdW  Elec       q    Type
REMARK                         _______ _______ _______ _____ _____    ______ ____
ROOT
ATOM      1  C   UNL     1       2.262   7.770  19.631  0.00  0.00    +0.000 C 
ATOM      2  O   UNL     1       1.430   8.107  20.752  0.00  0.00    +0.000 OA
ATOM      3  C   UNL     1       0.572   9.200  20.397  0.00  0.00    +0.000 C 
ATOM      4  C   UNL     1       0.795   9.547  18.921  0.00  0.00    +0.000 C 
ATOM      5  C   UNL     1       1.662   8.415  18.378  0.00  0.00    +0.000 C 
ENDROOT
BRANCH   1  14
ATOM      6  C   UNL     1       3.843   3.411  18.151  0.00  0.00    +0.000 A 
ATOM      7  N   UNL     1       4.605   3.944  17.176  0.00  0.00    +0.000 NA
ATOM      8  C   UNL     1       4.597   5.281  17.006  0.00  0.00    +0.000 A 
ATOM      9  N   UNL     1       3.921   6.211  17.703  0.00  0.00    +0.000 NA
ATOM     10  C   UNL     1       3.176   5.648  18.673  0.00  0.00    +0.000 A 
ATOM     11  C   UNL     1       3.083   4.288  18.951  0.00  0.00    +0.000 A 
ATOM     12  C   UNL     1       2.193   4.149  20.056  0.00  0.00    +0.000 A 
ATOM     13  C   UNL     1       1.765   5.413  20.403  0.00  0.00    +0.000 A 
ATOM     14  N   UNL     1       2.375   6.318  19.561  0.00  0.00    +0.000 N 
BRANCH   6  15
ATOM     15  N   UNL     1       3.877   2.042  18.321  0.00  0.00    +0.000 N 
ATOM     16  H   UNL     1       4.223   1.794  19.236  0.00  0.00    +0.000 HD
ATOM     17  H   UNL     1       3.062   1.541  17.987  0.00  0.00    +0.000 HD
ENDBRANCH   6  15
ENDBRANCH   1  14
BRANCH   4  18
ATOM     18  O   UNL     1       1.375  10.845  18.762  0.00  0.00    +0.000 OA
ATOM     19  H   UNL     1       0.797  11.485  19.220  0.00  0.00    +0.000 HD
ENDBRANCH   4  18
BRANCH   5  20
ATOM     20  O   UNL     1       2.607   8.947  17.443  0.00  0.00    +0.000 OA
ATOM     21  H   UNL     1       3.277   8.274  17.223  0.00  0.00    +0.000 HD
ENDBRANCH   5  20
BRANCH   3  22
ATOM     22  C   UNL     1       0.691  10.387  21.400  0.00  0.00    +0.000 C 
BRANCH  22  23
ATOM     23  C   UNL     1      -0.601  11.140  21.733  0.00  0.00    +0.000 A 
ATOM     24  C   UNL     1      -1.158  11.077  23.023  0.00  0.00    +0.000 A 
ATOM     25  C   UNL     1      -2.317  11.789  23.354  0.00  0.00    +0.000 A 
ATOM     26  C   UNL     1      -2.967  12.544  22.385  0.00  0.00    +0.000 A 
ATOM     27 CL   UNL     1      -4.388  13.420  22.804  0.00  0.00    +0.000 Cl
ATOM     28  C   UNL     1      -2.464  12.576  21.090  0.00  0.00    +0.000 A 
ATOM     29  F   UNL     1      -3.088  13.276  20.130  0.00  0.00    +0.000 F 
ATOM     30  C   UNL     1      -1.299  11.882  20.761  0.00  0.00    +0.000 A 
ENDBRANCH  22  23
BRANCH  22  31
ATOM     31  O   UNL     1       1.321   9.900  22.593  0.00  0.00    +0.000 OA
ATOM     32  H   UNL     1       0.667   9.303  23.011  0.00  0.00    +0.000 HD
ENDBRANCH  22  31
ENDBRANCH   3  22
TORSDOF 7
ENDMDL
MODEL 8
REMARK VINA RESULT:      -7.2      5.339      9.196
REMARK  Name = 
REMARK  7 active torsions:
REMARK  status: ('A' for Active; 'I' for Inactive)
REMARK    1  A    between atoms: N_1  and  C_2
REMARK    2  A    between atoms: N_10  and  C_11
REMARK    3  A    between atoms: C_13  and  C_14
REMARK    4  A    between atoms: C_14  and  O_15
REMARK    5  A    between atoms: C_14  and  C_16
REMARK    6  A    between atoms: C_24  and  O_25
REMARK    7  A    between atoms: C_26  and  O_27
REMARK                            x       y       z     vdW  Elec       q    Type
REMARK                         _______ _______ _______ _____ _____    ______ ____
ROOT
ATOM      1  C   UNL     1       2.264   7.416  19.651  0.00  0.00    +0.000 C 
ATOM      2  O   UNL     1       1.476   7.871  20.762  0.00  0.00    +0.000 OA
ATOM      3  C   UNL     1       0.761   9.055  20.385  0.00  0.00    +0.000 C 
ATOM      4  C   UNL     1       1.031   9.349  18.906  0.00  0.00    +0.000 C 
ATOM      5  C   UNL     1       1.754   8.110  18.385  0.00  0.00    +0.000 C 
ENDROOT
BRANCH   1  14
ATOM      6  C   UNL     1       3.284   2.874  18.229  0.00  0.00    +0.000 A 
ATOM      7  N   UNL     1       4.096   3.294  17.239  0.00  0.00    +0.000 NA
ATOM      8  C   UNL     1       4.250   4.619  17.048  0.00  0.00    +0.000 A 
ATOM      9  N   UNL     1       3.700   5.636  17.735  0.00  0.00    +0.000 NA
ATOM     10  C   UNL     1       2.902   5.184  18.720  0.00  0.00    +0.000 A 
ATOM     11  C   UNL     1       2.645   3.850  19.021  0.00  0.00    +0.000 A 
ATOM     12  C   UNL     1       1.755   3.838  20.135  0.00  0.00    +0.000 A 
ATOM     13  C   UNL     1       1.489   5.150  20.465  0.00  0.00    +0.000 A 
ATOM     14  N   UNL     1       2.197   5.961  19.604  0.00  0.00    +0.000 N 
BRANCH   6  15
ATOM     15  N   UNL     1       3.151   1.514  18.421  0.00  0.00    +0.000 N 
ATOM     16  H   UNL     1       2.505   1.310  19.170  0.00  0.00    +0.000 HD
ATOM     17  H   UNL     1       3.065   0.960  17.577  0.00  0.00    +0.000 HD
ENDBRANCH   6  15
ENDBRANCH   1  14
BRANCH   4  18
ATOM     18  O   UNL     1       1.768  10.563  18.730  0.00  0.00    +0.000 OA
ATOM     19  H   UNL     1       1.449  11.201  19.397  0.00  0.00    +0.000 HD
ENDBRANCH   4  18
BRANCH   5  20
ATOM     20  O   UNL     1       2.761   8.507  17.448  0.00  0.00    +0.000 OA
ATOM     21  H   UNL     1       2.544   8.170  16.559  0.00  0.00    +0.000 HD
ENDBRANCH   5  20
BRANCH   3  22
ATOM     22  C   UNL     1       1.022  10.234  21.370  0.00  0.00    +0.000 C 
BRANCH  22  23
ATOM     23  C   UNL     1      -0.149  11.189  21.628  0.00  0.00    +0.000 A 
ATOM     24  C   UNL     1      -0.336  12.329  20.827  0.00  0.00    +0.000 A 
ATOM     25  C   UNL     1      -1.421  13.192  21.025  0.00  0.00    +0.000 A 
ATOM     26  C   UNL     1      -2.316  12.952  22.061  0.00  0.00    +0.000 A 
ATOM     27 CL   UNL     1      -3.650  14.015  22.292  0.00  0.00    +0.000 Cl
ATOM     28  C   UNL     1      -2.118  11.862  22.899  0.00  0.00    +0.000 A 
ATOM     29  F   UNL     1      -2.953  11.624  23.922  0.00  0.00    +0.000 F 
ATOM     30  C   UNL     1      -1.048  10.990  22.693  0.00  0.00    +0.000 A 
ENDBRANCH  22  23
BRANCH  22  31
ATOM     31  O   UNL     1       1.515   9.686  22.601  0.00  0.00    +0.000 OA
ATOM     32  H   UNL     1       0.963   8.896  22.776  0.00  0.00    +0.000 HD
ENDBRANCH  22  31
ENDBRANCH   3  22
TORSDOF 7
ENDMDL
MODEL 9
REMARK VINA RESULT:      -7.2      1.048      1.852
REMARK  Name = 
REMARK  7 active torsions:
REMARK  status: ('A' for Active; 'I' for Inactive)
REMARK    1  A    between atoms: N_1  and  C_2
REMARK    2  A    between atoms: N_10  and  C_11
REMARK    3  A    between atoms: C_13  and  C_14
REMARK    4  A    between atoms: C_14  and  O_15
REMARK    5  A    between atoms: C_14  and  C_16
REMARK    6  A    between atoms: C_24  and  O_25
REMARK    7  A    between atoms: C_26  and  O_27
REMARK                            x       y       z     vdW  Elec       q    Type
REMARK                         _______ _______ _______ _____ _____    ______ ____
ROOT
ATOM      1  C   UNL     1       2.389   5.530  20.195  0.00  0.00    +0.000 C 
ATOM      2  O   UNL     1       3.306   5.601  19.092  0.00  0.00    +0.000 OA
ATOM      3  C   UNL     1       3.183   4.416  18.294  0.00  0.00    +0.000 C 
ATOM      4  C   UNL     1       2.054   3.550  18.860  0.00  0.00    +0.000 C 
ATOM      5  C   UNL     1       1.363   4.434  19.895  0.00  0.00    +0.000 C 
ENDROOT
BRANCH   1  14
ATOM      6  C   UNL     1       1.089  10.113  19.197  0.00  0.00    +0.000 A 
ATOM      7  N   UNL     1       1.727  10.107  18.010  0.00  0.00    +0.000 NA
ATOM      8  C   UNL     1       2.402   8.999  17.644  0.00  0.00    +0.000 A 
ATOM      9  N   UNL     1       2.532   7.838  18.310  0.00  0.00    +0.000 NA
ATOM     10  C   UNL     1       1.878   7.873  19.486  0.00  0.00    +0.000 A 
ATOM     11  C   UNL     1       1.155   8.950  19.991  0.00  0.00    +0.000 A 
ATOM     12  C   UNL     1       0.631   8.544  21.253  0.00  0.00    +0.000 A 
ATOM     13  C   UNL     1       1.059   7.254  21.483  0.00  0.00    +0.000 A 
ATOM     14  N   UNL     1       1.810   6.852  20.399  0.00  0.00    +0.000 N 
BRANCH   6  15
ATOM     15  N   UNL     1       0.390  11.250  19.548  0.00  0.00    +0.000 N 
ATOM     16  H   UNL     1      -0.322  11.046  20.233  0.00  0.00    +0.000 HD
ATOM     17  H   UNL     1       0.953  12.078  19.703  0.00  0.00    +0.000 HD
ENDBRANCH   6  15
ENDBRANCH   1  14
BRANCH   4  18
ATOM     18  O   UNL     1       2.545   2.317  19.392  0.00  0.00    +0.000 OA
ATOM     19  H   UNL     1       3.477   2.456  19.650  0.00  0.00    +0.000 HD
ENDBRANCH   4  18
BRANCH   5  20
ATOM     20  O   UNL     1       0.967   3.634  21.015  0.00  0.00    +0.000 OA
ATOM     21  H   UNL     1       1.269   4.046  21.845  0.00  0.00    +0.000 HD
ENDBRANCH   5  20
BRANCH   3  22
ATOM     22  C   UNL     1       4.553   3.701  18.094  0.00  0.00    +0.000 C 
BRANCH  22  23
ATOM     23  C   UNL     1       5.360   4.093  16.852  0.00  0.00    +0.000 A 
ATOM     24  C   UNL     1       6.624   4.698  16.977  0.00  0.00    +0.000 A 
ATOM     25  C   UNL     1       7.391   5.028  15.853  0.00  0.00    +0.000 A 
ATOM     26  C   UNL     1       6.887   4.799  14.578  0.00  0.00    +0.000 A 
ATOM     27 CL   UNL     1       7.840   5.202  13.204  0.00  0.00    +0.000 Cl
ATOM     28  C   UNL     1       5.617   4.253  14.432  0.00  0.00    +0.000 A 
ATOM     29  F   UNL     1       5.098   4.046  13.212  0.00  0.00    +0.000 F 
ATOM     30  C   UNL     1       4.858   3.906  15.550  0.00  0.00    +0.000 A 
ENDBRANCH  22  23
BRANCH  22  31
ATOM     31  O   UNL     1       5.329   3.884  19.286  0.00  0.00    +0.000 OA
ATOM     32  H   UNL     1       5.739   4.769  19.200  0.00  0.00    +0.000 HD
ENDBRANCH  22  31
ENDBRANCH   3  22
TORSDOF 7
ENDMDL
