MODEL 1
REMARK VINA RESULT:      -6.9      0.000      0.000
REMARK  Name = 
REMARK  6 active torsions:
REMARK  status: ('A' for Active; 'I' for Inactive)
REMARK    1  A    between atoms: C_2  and  C_3
REMARK    2  A    between atoms: C_7  and  C_8
REMARK    3  A    between atoms: C_13  and  N_14
REMARK    4  A    between atoms: C_17  and  C_18
REMARK    5  A    between atoms: N_20  and  C_21
REMARK    6  A    between atoms: C_21  and  C_22
REMARK                            x       y       z     vdW  Elec       q    Type
REMARK                         _______ _______ _______ _____ _____    ______ ____
ROOT
ATOM      1  C   UNL     1       2.206   6.516  19.933  0.00  0.00    +0.000 C 
ATOM      2  O   UNL     1       2.045   6.068  21.070  0.00  0.00    +0.000 OA
ATOM      3  N   UNL     1       1.710   7.781  19.562  0.00  0.00    +0.000 N 
ATOM      4  C   UNL     1       1.176   8.605  20.646  0.00  0.00    +0.000 C 
ATOM      5  C   UNL     1       0.226   9.694  20.165  0.00  0.00    +0.000 C 
ATOM      6  C   UNL     1       0.742  10.540  18.981  0.00  0.00    +0.000 C 
ATOM      7  C   UNL     1       1.164   9.575  17.873  0.00  0.00    +0.000 C 
ATOM      8  C   UNL     1       2.084   8.469  18.332  0.00  0.00    +0.000 C 
ENDROOT
BRANCH   1  13
ATOM      9  C   UNL     1       4.915   4.728  17.907  0.00  0.00    +0.000 A 
ATOM     10  C   UNL     1       4.132   3.939  17.074  0.00  0.00    +0.000 A 
ATOM     11  C   UNL     1       2.738   3.973  17.192  0.00  0.00    +0.000 A 
ATOM     12  C   UNL     1       2.131   4.833  18.113  0.00  0.00    +0.000 A 
ATOM     13  C   UNL     1       2.914   5.630  18.960  0.00  0.00    +0.000 A 
ATOM     14  C   UNL     1       4.304   5.505  18.884  0.00  0.00    +0.000 A 
BRANCH   9  16
ATOM     15  C   UNL     1       7.534   4.820  17.716  0.00  0.00    +0.000 C 
ATOM     16  C   UNL     1       6.343   4.772  17.769  0.00  0.00    +0.000 C 
ENDBRANCH   9  16
ENDBRANCH   1  13
BRANCH   6  17
ATOM     17  N   UNL     1       1.717  11.633  19.250  0.00  0.00    +0.000 NA
ATOM     18  C   UNL     1       1.736  12.591  18.135  0.00  0.00    +0.000 C 
ATOM     19  C   UNL     1       2.712  13.750  18.350  0.00  0.00    +0.000 C 
ATOM     20  C   UNL     1       2.445  14.478  19.670  0.00  0.00    +0.000 C 
ATOM     21  C   UNL     1       2.568  13.453  20.792  0.00  0.00    +0.000 C 
ATOM     22  C   UNL     1       1.637  12.262  20.567  0.00  0.00    +0.000 C 
BRANCH  20  23
ATOM     23  C   UNL     1       1.085  15.187  19.690  0.00  0.00    +0.000 C 
ATOM     24  O   UNL     1       0.482  15.522  18.678  0.00  0.00    +0.000 OA
ATOM     25  N   UNL     1       0.591  15.434  20.952  0.00  0.00    +0.000 N 
ATOM     26  H   UNL     1       1.170  15.261  21.763  0.00  0.00    +0.000 HD
BRANCH  25  27
ATOM     27  C   UNL     1      -0.721  16.027  21.154  0.00  0.00    +0.000 C 
BRANCH  27  28
ATOM     28  C   UNL     1      -1.809  15.008  21.543  0.00  0.00    +0.000 C 
ATOM     29  C   UNL     1      -1.275  13.831  22.351  0.00  0.00    +0.000 C 
ATOM     30  C   UNL     1      -1.404  14.318  23.774  0.00  0.00    +0.000 C 
ATOM     31  C   UNL     1      -2.680  15.125  23.718  0.00  0.00    +0.000 C 
ATOM     32  O   UNL     1      -2.769  15.671  22.394  0.00  0.00    +0.000 OA
ENDBRANCH  27  28
ENDBRANCH  25  27
ENDBRANCH  20  23
ENDBRANCH   6  17
TORSDOF 6
ENDMDL
MODEL 2
REMARK VINA RESULT:      -6.8      3.599      5.414
REMARK  Name = 
REMARK  6 active torsions:
REMARK  status: ('A' for Active; 'I' for Inactive)
REMARK    1  A    between atoms: C_2  and  C_3
REMARK    2  A    between atoms: C_7  and  C_8
REMARK    3  A    between atoms: C_13  and  N_14
REMARK    4  A    between atoms: C_17  and  C_18
REMARK    5  A    between atoms: N_20  and  C_21
REMARK    6  A    between atoms: C_21  and  C_22
REMARK                            x       y       z     vdW  Elec       q    Type
REMARK                         _______ _______ _______ _____ _____    ______ ____
ROOT
ATOM      1  C   UNL     1       6.114   4.711  17.372  0.00  0.00    +0.000 C 
ATOM      2  O   UNL     1       7.004   4.304  18.123  0.00  0.00    +0.000 OA
ATOM      3  N   UNL     1       4.865   5.132  17.868  0.00  0.00    +0.000 N 
ATOM      4  C   UNL     1       4.757   5.246  19.322  0.00  0.00    +0.000 C 
ATOM      5  C   UNL     1       3.320   5.204  19.826  0.00  0.00    +0.000 C 
ATOM      6  C   UNL     1       2.338   6.139  19.086  0.00  0.00    +0.000 C 
ATOM      7  C   UNL     1       2.461   5.849  17.590  0.00  0.00    +0.000 C 
ATOM      8  C   UNL     1       3.880   5.856  17.073  0.00  0.00    +0.000 C 
ENDROOT
BRANCH   1  13
ATOM      9  C   UNL     1       5.891   4.158  13.592  0.00  0.00    +0.000 A 
ATOM     10  C   UNL     1       7.104   4.696  13.183  0.00  0.00    +0.000 A 
ATOM     11  C   UNL     1       7.971   5.256  14.129  0.00  0.00    +0.000 A 
ATOM     12  C   UNL     1       7.640   5.231  15.487  0.00  0.00    +0.000 A 
ATOM     13  C   UNL     1       6.416   4.693  15.908  0.00  0.00    +0.000 A 
ATOM     14  C   UNL     1       5.529   4.228  14.933  0.00  0.00    +0.000 A 
BRANCH   9  16
ATOM     15  C   UNL     1       4.313   2.991  11.844  0.00  0.00    +0.000 C 
ATOM     16  C   UNL     1       5.007   3.515  12.662  0.00  0.00    +0.000 C 
ENDBRANCH   9  16
ENDBRANCH   1  13
BRANCH   6  17
ATOM     17  N   UNL     1       2.324   7.586  19.434  0.00  0.00    +0.000 NA
ATOM     18  C   UNL     1       2.101   8.403  18.232  0.00  0.00    +0.000 C 
ATOM     19  C   UNL     1       2.065   9.906  18.519  0.00  0.00    +0.000 C 
ATOM     20  C   UNL     1       1.033  10.253  19.595  0.00  0.00    +0.000 C 
ATOM     21  C   UNL     1       1.399   9.471  20.851  0.00  0.00    +0.000 C 
ATOM     22  C   UNL     1       1.491   7.971  20.571  0.00  0.00    +0.000 C 
BRANCH  20  23
ATOM     23  C   UNL     1      -0.407   9.970  19.146  0.00  0.00    +0.000 C 
ATOM     24  O   UNL     1      -1.291   9.594  19.908  0.00  0.00    +0.000 OA
ATOM     25  N   UNL     1      -0.633  10.162  17.801  0.00  0.00    +0.000 N 
ATOM     26  H   UNL     1       0.144  10.349  17.182  0.00  0.00    +0.000 HD
BRANCH  25  27
ATOM     27  C   UNL     1      -1.958  10.016  17.222  0.00  0.00    +0.000 C 
BRANCH  27  28
ATOM     28  C   UNL     1      -2.715  11.347  17.061  0.00  0.00    +0.000 C 
ATOM     29  C   UNL     1      -4.086  11.190  16.413  0.00  0.00    +0.000 C 
ATOM     30  C   UNL     1      -4.991  10.967  17.600  0.00  0.00    +0.000 C 
ATOM     31  C   UNL     1      -4.366  11.857  18.648  0.00  0.00    +0.000 C 
ATOM     32  O   UNL     1      -2.958  11.894  18.375  0.00  0.00    +0.000 OA
ENDBRANCH  27  28
ENDBRANCH  25  27
ENDBRANCH  20  23
ENDBRANCH   6  17
TORSDOF 6
ENDMDL
MODEL 3
REMARK VINA RESULT:      -6.7      4.899      7.730
REMARK  Name = 
REMARK  6 active torsions:
REMARK  status: ('A' for Active; 'I' for Inactive)
REMARK    1  A    between atoms: C_2  and  C_3
REMARK    2  A    between atoms: C_7  and  C_8
REMARK    3  A    between atoms: C_13  and  N_14
REMARK    4  A    between atoms: C_17  and  C_18
REMARK    5  A    between atoms: N_20  and  C_21
REMARK    6  A    between atoms: C_21  and  C_22
REMARK                            x       y       z     vdW  Elec       q    Type
REMARK                         _______ _______ _______ _____ _____    ______ ____
ROOT
ATOM      1  C   UNL     1       9.136  14.640  18.595  0.00  0.00    +0.000 C 
ATOM      2  O   UNL     1       9.876  15.088  17.716  0.00  0.00    +0.000 OA
ATOM      3  N   UNL     1       8.102  15.415  19.155  0.00  0.00    +0.000 N 
ATOM      4  C   UNL     1       7.833  16.695  18.500  0.00  0.00    +0.000 C 
ATOM      5  C   UNL     1       7.100  17.688  19.393  0.00  0.00    +0.000 C 
ATOM      6  C   UNL     1       5.859  17.125  20.120  0.00  0.00    +0.000 C 
ATOM      7  C   UNL     1       6.291  15.856  20.856  0.00  0.00    +0.000 C 
ATOM      8  C   UNL     1       7.045  14.869  19.998  0.00  0.00    +0.000 C 
ENDROOT
BRANCH   1  13
ATOM      9  C   UNL     1       9.201  10.829  18.937  0.00  0.00    +0.000 A 
ATOM     10  C   UNL     1      10.014  10.687  20.054  0.00  0.00    +0.000 A 
ATOM     11  C   UNL     1      10.555  11.821  20.671  0.00  0.00    +0.000 A 
ATOM     12  C   UNL     1      10.240  13.097  20.194  0.00  0.00    +0.000 A 
ATOM     13  C   UNL     1       9.422  13.250  19.065  0.00  0.00    +0.000 A 
ATOM     14  C   UNL     1       8.975  12.097  18.414  0.00  0.00    +0.000 A 
BRANCH   9  16
ATOM     15  C   UNL     1       8.078   8.769  17.753  0.00  0.00    +0.000 C 
ATOM     16  C   UNL     1       8.574   9.696  18.320  0.00  0.00    +0.000 C 
ENDBRANCH   9  16
ENDBRANCH   1  13
BRANCH   6  17
ATOM     17  N   UNL     1       4.582  16.996  19.366  0.00  0.00    +0.000 NA
ATOM     18  C   UNL     1       4.768  16.151  18.177  0.00  0.00    +0.000 C 
ATOM     19  C   UNL     1       3.488  15.968  17.358  0.00  0.00    +0.000 C 
ATOM     20  C   UNL     1       2.339  15.430  18.215  0.00  0.00    +0.000 C 
ATOM     21  C   UNL     1       2.115  16.419  19.354  0.00  0.00    +0.000 C 
ATOM     22  C   UNL     1       3.398  16.655  20.152  0.00  0.00    +0.000 C 
BRANCH  20  23
ATOM     23  C   UNL     1       2.602  14.011  18.736  0.00  0.00    +0.000 C 
ATOM     24  O   UNL     1       3.015  13.770  19.864  0.00  0.00    +0.000 OA
ATOM     25  N   UNL     1       2.347  13.013  17.821  0.00  0.00    +0.000 N 
ATOM     26  H   UNL     1       2.130  13.251  16.863  0.00  0.00    +0.000 HD
BRANCH  25  27
ATOM     27  C   UNL     1       2.467  11.608  18.173  0.00  0.00    +0.000 C 
BRANCH  27  28
ATOM     28  C   UNL     1       1.115  10.911  18.413  0.00  0.00    +0.000 C 
ATOM     29  C   UNL     1       1.097   9.454  17.965  0.00  0.00    +0.000 C 
ATOM     30  C   UNL     1       1.550   8.719  19.203  0.00  0.00    +0.000 C 
ATOM     31  C   UNL     1       0.921   9.539  20.306  0.00  0.00    +0.000 C 
ATOM     32  O   UNL     1       0.859  10.892  19.834  0.00  0.00    +0.000 OA
ENDBRANCH  27  28
ENDBRANCH  25  27
ENDBRANCH  20  23
ENDBRANCH   6  17
TORSDOF 6
ENDMDL
MODEL 4
REMARK VINA RESULT:      -6.6      3.855      8.967
REMARK  Name = 
REMARK  6 active torsions:
REMARK  status: ('A' for Active; 'I' for Inactive)
REMARK    1  A    between atoms: C_2  and  C_3
REMARK    2  A    between atoms: C_7  and  C_8
REMARK    3  A    between atoms: C_13  and  N_14
REMARK    4  A    between atoms: C_17  and  C_18
REMARK    5  A    between atoms: N_20  and  C_21
REMARK    6  A    between atoms: C_21  and  C_22
REMARK                            x       y       z     vdW  Elec       q    Type
REMARK                         _______ _______ _______ _____ _____    ______ ____
ROOT
ATOM      1  C   UNL     1       2.045   8.648  18.520  0.00  0.00    +0.000 C 
ATOM      2  O   UNL     1       2.092   9.444  17.579  0.00  0.00    +0.000 OA
ATOM      3  N   UNL     1       2.569   7.345  18.411  0.00  0.00    +0.000 N 
ATOM      4  C   UNL     1       3.338   7.061  17.200  0.00  0.00    +0.000 C 
ATOM      5  C   UNL     1       3.444   5.575  16.886  0.00  0.00    +0.000 C 
ATOM      6  C   UNL     1       3.863   4.681  18.074  0.00  0.00    +0.000 C 
ATOM      7  C   UNL     1       2.919   4.986  19.237  0.00  0.00    +0.000 C 
ATOM      8  C   UNL     1       2.775   6.457  19.548  0.00  0.00    +0.000 C 
ENDROOT
BRANCH   1  13
ATOM      9  C   UNL     1       0.150  10.775  21.075  0.00  0.00    +0.000 A 
ATOM     10  C   UNL     1       0.141   9.916  22.166  0.00  0.00    +0.000 A 
ATOM     11  C   UNL     1       0.725   8.648  22.058  0.00  0.00    +0.000 A 
ATOM     12  C   UNL     1       1.357   8.264  20.872  0.00  0.00    +0.000 A 
ATOM     13  C   UNL     1       1.367   9.124  19.764  0.00  0.00    +0.000 A 
ATOM     14  C   UNL     1       0.694  10.344  19.870  0.00  0.00    +0.000 A 
BRANCH   9  16
ATOM     15  C   UNL     1      -0.761  13.232  21.267  0.00  0.00    +0.000 C 
ATOM     16  C   UNL     1      -0.377  12.106  21.167  0.00  0.00    +0.000 C 
ENDBRANCH   9  16
ENDBRANCH   1  13
BRANCH   6  17
ATOM     17  N   UNL     1       5.302   4.614  18.450  0.00  0.00    +0.000 NA
ATOM     18  C   UNL     1       6.151   4.684  17.251  0.00  0.00    +0.000 C 
ATOM     19  C   UNL     1       7.648   4.629  17.566  0.00  0.00    +0.000 C 
ATOM     20  C   UNL     1       8.056   5.711  18.569  0.00  0.00    +0.000 C 
ATOM     21  C   UNL     1       7.230   5.500  19.833  0.00  0.00    +0.000 C 
ATOM     22  C   UNL     1       5.732   5.499  19.530  0.00  0.00    +0.000 C 
BRANCH  20  23
ATOM     23  C   UNL     1       7.891   7.130  18.010  0.00  0.00    +0.000 C 
ATOM     24  O   UNL     1       7.207   7.394  17.028  0.00  0.00    +0.000 OA
ATOM     25  N   UNL     1       8.588   8.098  18.698  0.00  0.00    +0.000 N 
ATOM     26  H   UNL     1       9.241   7.830  19.422  0.00  0.00    +0.000 HD
BRANCH  25  27
ATOM     27  C   UNL     1       8.481   9.506  18.351  0.00  0.00    +0.000 C 
BRANCH  27  28
ATOM     28  C   UNL     1       9.632  10.369  18.901  0.00  0.00    +0.000 C 
ATOM     29  C   UNL     1      10.167  11.379  17.893  0.00  0.00    +0.000 C 
ATOM     30  C   UNL     1       9.306  12.592  18.148  0.00  0.00    +0.000 C 
ATOM     31  C   UNL     1       9.109  12.531  19.645  0.00  0.00    +0.000 C 
ATOM     32  O   UNL     1       9.129  11.144  20.011  0.00  0.00    +0.000 OA
ENDBRANCH  27  28
ENDBRANCH  25  27
ENDBRANCH  20  23
ENDBRANCH   6  17
TORSDOF 6
ENDMDL
MODEL 5
REMARK VINA RESULT:      -6.6      3.589      5.190
REMARK  Name = 
REMARK  6 active torsions:
REMARK  status: ('A' for Active; 'I' for Inactive)
REMARK    1  A    between atoms: C_2  and  C_3
REMARK    2  A    between atoms: C_7  and  C_8
REMARK    3  A    between atoms: C_13  and  N_14
REMARK    4  A    between atoms: C_17  and  C_18
REMARK    5  A    between atoms: N_20  and  C_21
REMARK    6  A    between atoms: C_21  and  C_22
REMARK                            x       y       z     vdW  Elec       q    Type
REMARK                         _______ _______ _______ _____ _____    ______ ____
ROOT
ATOM      1  C   UNL     1       5.944   4.639  17.482  0.00  0.00    +0.000 C 
ATOM      2  O   UNL     1       6.900   4.339  18.201  0.00  0.00    +0.000 OA
ATOM      3  N   UNL     1       4.733   5.112  18.023  0.00  0.00    +0.000 N 
ATOM      4  C   UNL     1       4.743   5.411  19.455  0.00  0.00    +0.000 C 
ATOM      5  C   UNL     1       3.353   5.423  20.078  0.00  0.00    +0.000 C 
ATOM      6  C   UNL     1       2.297   6.248  19.311  0.00  0.00    +0.000 C 
ATOM      7  C   UNL     1       2.302   5.768  17.859  0.00  0.00    +0.000 C 
ATOM      8  C   UNL     1       3.673   5.720  17.228  0.00  0.00    +0.000 C 
ENDROOT
BRANCH   1  13
ATOM      9  C   UNL     1       7.230   4.854  13.884  0.00  0.00    +0.000 A 
ATOM     10  C   UNL     1       6.352   3.987  13.247  0.00  0.00    +0.000 A 
ATOM     11  C   UNL     1       5.370   3.321  13.990  0.00  0.00    +0.000 A 
ATOM     12  C   UNL     1       5.241   3.564  15.361  0.00  0.00    +0.000 A 
ATOM     13  C   UNL     1       6.125   4.435  16.012  0.00  0.00    +0.000 A 
ATOM     14  C   UNL     1       7.155   5.011  15.263  0.00  0.00    +0.000 A 
BRANCH   9  16
ATOM     15  C   UNL     1       9.007   6.192  12.485  0.00  0.00    +0.000 C 
ATOM     16  C   UNL     1       8.205   5.605  13.147  0.00  0.00    +0.000 C 
ENDBRANCH   9  16
ENDBRANCH   1  13
BRANCH   6  17
ATOM     17  N   UNL     1       2.285   7.728  19.471  0.00  0.00    +0.000 NA
ATOM     18  C   UNL     1       2.043   8.384  18.177  0.00  0.00    +0.000 C 
ATOM     19  C   UNL     1       2.008   9.911  18.270  0.00  0.00    +0.000 C 
ATOM     20  C   UNL     1       0.991  10.393  19.308  0.00  0.00    +0.000 C 
ATOM     21  C   UNL     1       1.377   9.778  20.649  0.00  0.00    +0.000 C 
ATOM     22  C   UNL     1       1.468   8.254  20.562  0.00  0.00    +0.000 C 
BRANCH  20  23
ATOM     23  C   UNL     1      -0.455  10.055  18.921  0.00  0.00    +0.000 C 
ATOM     24  O   UNL     1      -1.300   9.679  19.725  0.00  0.00    +0.000 OA
ATOM     25  N   UNL     1      -0.733  10.198  17.580  0.00  0.00    +0.000 N 
ATOM     26  H   UNL     1       0.016  10.386  16.927  0.00  0.00    +0.000 HD
BRANCH  25  27
ATOM     27  C   UNL     1      -2.073   9.995  17.053  0.00  0.00    +0.000 C 
BRANCH  27  28
ATOM     28  C   UNL     1      -2.889  11.294  16.919  0.00  0.00    +0.000 C 
ATOM     29  C   UNL     1      -4.327  11.062  16.471  0.00  0.00    +0.000 C 
ATOM     30  C   UNL     1      -5.060  10.889  17.779  0.00  0.00    +0.000 C 
ATOM     31  C   UNL     1      -4.331  11.859  18.681  0.00  0.00    +0.000 C 
ATOM     32  O   UNL     1      -2.974  11.915  18.220  0.00  0.00    +0.000 OA
ENDBRANCH  27  28
ENDBRANCH  25  27
ENDBRANCH  20  23
ENDBRANCH   6  17
TORSDOF 6
ENDMDL
MODEL 6
REMARK VINA RESULT:      -6.6      4.909      7.320
REMARK  Name = 
REMARK  6 active torsions:
REMARK  status: ('A' for Active; 'I' for Inactive)
REMARK    1  A    between atoms: C_2  and  C_3
REMARK    2  A    between atoms: C_7  and  C_8
REMARK    3  A    between atoms: C_13  and  N_14
REMARK    4  A    between atoms: C_17  and  C_18
REMARK    5  A    between atoms: N_20  and  C_21
REMARK    6  A    between atoms: C_21  and  C_22
REMARK                            x       y       z     vdW  Elec       q    Type
REMARK                         _______ _______ _______ _____ _____    ______ ____
ROOT
ATOM      1  C   UNL     1       9.193  14.350  18.309  0.00  0.00    +0.000 C 
ATOM      2  O   UNL     1       9.956  14.702  17.407  0.00  0.00    +0.000 OA
ATOM      3  N   UNL     1       8.218  15.221  18.833  0.00  0.00    +0.000 N 
ATOM      4  C   UNL     1       8.033  16.482  18.116  0.00  0.00    +0.000 C 
ATOM      5  C   UNL     1       7.376  17.565  18.961  0.00  0.00    +0.000 C 
ATOM      6  C   UNL     1       6.104  17.126  19.719  0.00  0.00    +0.000 C 
ATOM      7  C   UNL     1       6.453  15.868  20.516  0.00  0.00    +0.000 C 
ATOM      8  C   UNL     1       7.132  14.790  19.705  0.00  0.00    +0.000 C 
ENDROOT
BRANCH   1  13
ATOM      9  C   UNL     1       9.067  10.555  18.790  0.00  0.00    +0.000 A 
ATOM     10  C   UNL     1       9.798  10.422  19.963  0.00  0.00    +0.000 A 
ATOM     11  C   UNL     1      10.347  11.556  20.574  0.00  0.00    +0.000 A 
ATOM     12  C   UNL     1      10.121  12.825  20.032  0.00  0.00    +0.000 A 
ATOM     13  C   UNL     1       9.386  12.968  18.846  0.00  0.00    +0.000 A 
ATOM     14  C   UNL     1       8.932  11.810  18.207  0.00  0.00    +0.000 A 
BRANCH   9  16
ATOM     15  C   UNL     1       7.957   8.476  17.628  0.00  0.00    +0.000 C 
ATOM     16  C   UNL     1       8.432   9.426  18.173  0.00  0.00    +0.000 C 
ENDBRANCH   9  16
ENDBRANCH   1  13
BRANCH   6  17
ATOM     17  N   UNL     1       4.816  17.048  18.977  0.00  0.00    +0.000 NA
ATOM     18  C   UNL     1       4.860  15.967  17.981  0.00  0.00    +0.000 C 
ATOM     19  C   UNL     1       3.560  15.824  17.186  0.00  0.00    +0.000 C 
ATOM     20  C   UNL     1       2.349  15.649  18.105  0.00  0.00    +0.000 C 
ATOM     21  C   UNL     1       2.290  16.866  19.023  0.00  0.00    +0.000 C 
ATOM     22  C   UNL     1       3.601  17.055  19.787  0.00  0.00    +0.000 C 
BRANCH  20  23
ATOM     23  C   UNL     1       2.393  14.337  18.900  0.00  0.00    +0.000 C 
ATOM     24  O   UNL     1       3.073  13.372  18.573  0.00  0.00    +0.000 OA
ATOM     25  N   UNL     1       1.588  14.322  20.018  0.00  0.00    +0.000 N 
ATOM     26  H   UNL     1       0.946  15.084  20.187  0.00  0.00    +0.000 HD
BRANCH  25  27
ATOM     27  C   UNL     1       1.569  13.188  20.927  0.00  0.00    +0.000 C 
BRANCH  27  28
ATOM     28  C   UNL     1       0.256  12.384  20.889  0.00  0.00    +0.000 C 
ATOM     29  C   UNL     1       0.207  11.356  19.765  0.00  0.00    +0.000 C 
ATOM     30  C   UNL     1       0.791  10.125  20.414  0.00  0.00    +0.000 C 
ATOM     31  C   UNL     1       0.270  10.235  21.828  0.00  0.00    +0.000 C 
ATOM     32  O   UNL     1       0.146  11.634  22.118  0.00  0.00    +0.000 OA
ENDBRANCH  27  28
ENDBRANCH  25  27
ENDBRANCH  20  23
ENDBRANCH   6  17
TORSDOF 6
ENDMDL
MODEL 7
REMARK VINA RESULT:      -6.6      0.805      1.137
REMARK  Name = 
REMARK  6 active torsions:
REMARK  status: ('A' for Active; 'I' for Inactive)
REMARK    1  A    between atoms: C_2  and  C_3
REMARK    2  A    between atoms: C_7  and  C_8
REMARK    3  A    between atoms: C_13  and  N_14
REMARK    4  A    between atoms: C_17  and  C_18
REMARK    5  A    between atoms: N_20  and  C_21
REMARK    6  A    between atoms: C_21  and  C_22
REMARK                            x       y       z     vdW  Elec       q    Type
REMARK                         _______ _______ _______ _____ _____    ______ ____
ROOT
ATOM      1  C   UNL     1       2.249   6.445  19.939  0.00  0.00    +0.000 C 
ATOM      2  O   UNL     1       2.108   5.979  21.072  0.00  0.00    +0.000 OA
ATOM      3  N   UNL     1       1.752   7.717  19.596  0.00  0.00    +0.000 N 
ATOM      4  C   UNL     1       1.243   8.526  20.703  0.00  0.00    +0.000 C 
ATOM      5  C   UNL     1       0.288   9.626  20.257  0.00  0.00    +0.000 C 
ATOM      6  C   UNL     1       0.786  10.489  19.077  0.00  0.00    +0.000 C 
ATOM      7  C   UNL     1       1.183   9.539  17.946  0.00  0.00    +0.000 C 
ATOM      8  C   UNL     1       2.106   8.423  18.370  0.00  0.00    +0.000 C 
ENDROOT
BRANCH   1  13
ATOM      9  C   UNL     1       4.912   4.675  17.835  0.00  0.00    +0.000 A 
ATOM     10  C   UNL     1       4.110   3.905  17.003  0.00  0.00    +0.000 A 
ATOM     11  C   UNL     1       2.718   3.944  17.147  0.00  0.00    +0.000 A 
ATOM     12  C   UNL     1       2.133   4.792  18.092  0.00  0.00    +0.000 A 
ATOM     13  C   UNL     1       2.935   5.571  18.938  0.00  0.00    +0.000 A 
ATOM     14  C   UNL     1       4.323   5.439  18.836  0.00  0.00    +0.000 A 
BRANCH   9  16
ATOM     15  C   UNL     1       7.528   4.739  17.600  0.00  0.00    +0.000 C 
ATOM     16  C   UNL     1       6.337   4.714  17.673  0.00  0.00    +0.000 C 
ENDBRANCH   9  16
ENDBRANCH   1  13
BRANCH   6  17
ATOM     17  N   UNL     1       1.770  11.574  19.345  0.00  0.00    +0.000 NA
ATOM     18  C   UNL     1       1.916  12.439  18.165  0.00  0.00    +0.000 C 
ATOM     19  C   UNL     1       2.908  13.585  18.373  0.00  0.00    +0.000 C 
ATOM     20  C   UNL     1       2.556  14.423  19.605  0.00  0.00    +0.000 C 
ATOM     21  C   UNL     1       2.549  13.488  20.809  0.00  0.00    +0.000 C 
ATOM     22  C   UNL     1       1.601  12.307  20.597  0.00  0.00    +0.000 C 
BRANCH  20  23
ATOM     23  C   UNL     1       1.223  15.167  19.453  0.00  0.00    +0.000 C 
ATOM     24  O   UNL     1       0.932  15.839  18.471  0.00  0.00    +0.000 OA
ATOM     25  N   UNL     1       0.370  15.031  20.526  0.00  0.00    +0.000 N 
ATOM     26  H   UNL     1       0.690  14.577  21.371  0.00  0.00    +0.000 HD
BRANCH  25  27
ATOM     27  C   UNL     1      -0.966  15.606  20.515  0.00  0.00    +0.000 C 
BRANCH  27  28
ATOM     28  C   UNL     1      -1.850  15.141  21.687  0.00  0.00    +0.000 C 
ATOM     29  C   UNL     1      -3.185  15.873  21.765  0.00  0.00    +0.000 C 
ATOM     30  C   UNL     1      -4.087  15.014  20.913  0.00  0.00    +0.000 C 
ATOM     31  C   UNL     1      -3.575  13.624  21.212  0.00  0.00    +0.000 C 
ATOM     32  O   UNL     1      -2.173  13.747  21.489  0.00  0.00    +0.000 OA
ENDBRANCH  27  28
ENDBRANCH  25  27
ENDBRANCH  20  23
ENDBRANCH   6  17
TORSDOF 6
ENDMDL
MODEL 8
REMARK VINA RESULT:      -6.5      3.194     10.004
REMARK  Name = 
REMARK  6 active torsions:
REMARK  status: ('A' for Active; 'I' for Inactive)
REMARK    1  A    between atoms: C_2  and  C_3
REMARK    2  A    between atoms: C_7  and  C_8
REMARK    3  A    between atoms: C_13  and  N_14
REMARK    4  A    between atoms: C_17  and  C_18
REMARK    5  A    between atoms: N_20  and  C_21
REMARK    6  A    between atoms: C_21  and  C_22
REMARK                            x       y       z     vdW  Elec       q    Type
REMARK                         _______ _______ _______ _____ _____    ______ ____
ROOT
ATOM      1  C   UNL     1      -0.129   9.912  20.596  0.00  0.00    +0.000 C 
ATOM      2  O   UNL     1      -0.634  10.049  21.712  0.00  0.00    +0.000 OA
ATOM      3  N   UNL     1       0.801   8.889  20.326  0.00  0.00    +0.000 N 
ATOM      4  C   UNL     1       0.979   7.890  21.379  0.00  0.00    +0.000 C 
ATOM      5  C   UNL     1       2.297   7.134  21.277  0.00  0.00    +0.000 C 
ATOM      6  C   UNL     1       2.628   6.578  19.875  0.00  0.00    +0.000 C 
ATOM      7  C   UNL     1       2.518   7.736  18.881  0.00  0.00    +0.000 C 
ATOM      8  C   UNL     1       1.231   8.519  18.984  0.00  0.00    +0.000 C 
ENDROOT
BRANCH   1  13
ATOM      9  C   UNL     1      -1.748  11.615  17.575  0.00  0.00    +0.000 A 
ATOM     10  C   UNL     1      -1.168  12.874  17.650  0.00  0.00    +0.000 A 
ATOM     11  C   UNL     1      -0.279  13.170  18.691  0.00  0.00    +0.000 A 
ATOM     12  C   UNL     1       0.061  12.187  19.624  0.00  0.00    +0.000 A 
ATOM     13  C   UNL     1      -0.523  10.914  19.558  0.00  0.00    +0.000 A 
ATOM     14  C   UNL     1      -1.478  10.678  18.566  0.00  0.00    +0.000 A 
BRANCH   9  16
ATOM     15  C   UNL     1      -3.322  10.892  15.599  0.00  0.00    +0.000 C 
ATOM     16  C   UNL     1      -2.610  11.253  16.486  0.00  0.00    +0.000 C 
ENDBRANCH   9  16
ENDBRANCH   1  13
BRANCH   6  17
ATOM     17  N   UNL     1       1.972   5.318  19.428  0.00  0.00    +0.000 NA
ATOM     18  C   UNL     1       2.003   5.214  17.961  0.00  0.00    +0.000 C 
ATOM     19  C   UNL     1       1.353   3.934  17.431  0.00  0.00    +0.000 C 
ATOM     20  C   UNL     1       1.967   2.683  18.064  0.00  0.00    +0.000 C 
ATOM     21  C   UNL     1       1.786   2.797  19.574  0.00  0.00    +0.000 C 
ATOM     22  C   UNL     1       2.384   4.096  20.114  0.00  0.00    +0.000 C 
BRANCH  20  23
ATOM     23  C   UNL     1       3.439   2.486  17.680  0.00  0.00    +0.000 C 
ATOM     24  O   UNL     1       4.096   1.503  18.000  0.00  0.00    +0.000 OA
ATOM     25  N   UNL     1       3.978   3.520  16.946  0.00  0.00    +0.000 N 
ATOM     26  H   UNL     1       3.449   4.370  16.809  0.00  0.00    +0.000 HD
BRANCH  25  27
ATOM     27  C   UNL     1       5.337   3.461  16.432  0.00  0.00    +0.000 C 
BRANCH  27  28
ATOM     28  C   UNL     1       6.100   4.794  16.544  0.00  0.00    +0.000 C 
ATOM     29  C   UNL     1       5.556   5.714  17.630  0.00  0.00    +0.000 C 
ATOM     30  C   UNL     1       6.351   5.304  18.845  0.00  0.00    +0.000 C 
ATOM     31  C   UNL     1       7.703   4.988  18.247  0.00  0.00    +0.000 C 
ATOM     32  O   UNL     1       7.466   4.506  16.917  0.00  0.00    +0.000 OA
ENDBRANCH  27  28
ENDBRANCH  25  27
ENDBRANCH  20  23
ENDBRANCH   6  17
TORSDOF 6
ENDMDL
MODEL 9
REMARK VINA RESULT:      -6.5      1.311      1.869
REMARK  Name = 
REMARK  6 active torsions:
REMARK  status: ('A' for Active; 'I' for Inactive)
REMARK    1  A    between atoms: C_2  and  C_3
REMARK    2  A    between atoms: C_7  and  C_8
REMARK    3  A    between atoms: C_13  and  N_14
REMARK    4  A    between atoms: C_17  and  C_18
REMARK    5  A    between atoms: N_20  and  C_21
REMARK    6  A    between atoms: C_21  and  C_22
REMARK                            x       y       z     vdW  Elec       q    Type
REMARK                         _______ _______ _______ _____ _____    ______ ____
ROOT
ATOM      1  C   UNL     1       2.175   6.498  19.958  0.00  0.00    +0.000 C 
ATOM      2  O   UNL     1       1.943   6.029  21.074  0.00  0.00    +0.000 OA
ATOM      3  N   UNL     1       1.709   7.773  19.582  0.00  0.00    +0.000 N 
ATOM      4  C   UNL     1       1.114   8.579  20.648  0.00  0.00    +0.000 C 
ATOM      5  C   UNL     1       0.200   9.683  20.131  0.00  0.00    +0.000 C 
ATOM      6  C   UNL     1       0.793  10.548  18.998  0.00  0.00    +0.000 C 
ATOM      7  C   UNL     1       1.277   9.603  17.898  0.00  0.00    +0.000 C 
ATOM      8  C   UNL     1       2.162   8.483  18.391  0.00  0.00    +0.000 C 
ENDROOT
BRANCH   1  13
ATOM      9  C   UNL     1       4.996   4.760  18.044  0.00  0.00    +0.000 A 
ATOM     10  C   UNL     1       4.262   3.963  17.175  0.00  0.00    +0.000 A 
ATOM     11  C   UNL     1       2.863   3.975  17.233  0.00  0.00    +0.000 A 
ATOM     12  C   UNL     1       2.205   4.822  18.130  0.00  0.00    +0.000 A 
ATOM     13  C   UNL     1       2.938   5.627  19.013  0.00  0.00    +0.000 A 
ATOM     14  C   UNL     1       4.332   5.522  18.997  0.00  0.00    +0.000 A 
BRANCH   9  16
ATOM     15  C   UNL     1       7.613   4.941  17.898  0.00  0.00    +0.000 C 
ATOM     16  C   UNL     1       6.428   4.825  17.969  0.00  0.00    +0.000 C 
ENDBRANCH   9  16
ENDBRANCH   1  13
BRANCH   6  17
ATOM     17  N   UNL     1       1.754  11.630  19.348  0.00  0.00    +0.000 NA
ATOM     18  C   UNL     1       2.034  12.470  18.174  0.00  0.00    +0.000 C 
ATOM     19  C   UNL     1       3.011  13.612  18.465  0.00  0.00    +0.000 C 
ATOM     20  C   UNL     1       2.537  14.478  19.635  0.00  0.00    +0.000 C 
ATOM     21  C   UNL     1       2.390  13.568  20.850  0.00  0.00    +0.000 C 
ATOM     22  C   UNL     1       1.458  12.391  20.560  0.00  0.00    +0.000 C 
BRANCH  20  23
ATOM     23  C   UNL     1       1.235  15.230  19.326  0.00  0.00    +0.000 C 
ATOM     24  O   UNL     1       0.976  15.708  18.228  0.00  0.00    +0.000 OA
ATOM     25  N   UNL     1       0.374  15.339  20.395  0.00  0.00    +0.000 N 
ATOM     26  H   UNL     1       0.673  15.047  21.315  0.00  0.00    +0.000 HD
BRANCH  25  27
ATOM     27  C   UNL     1      -0.937  15.952  20.257  0.00  0.00    +0.000 C 
BRANCH  27  28
ATOM     28  C   UNL     1      -0.903  17.492  20.236  0.00  0.00    +0.000 C 
ATOM     29  C   UNL     1      -1.442  18.092  18.943  0.00  0.00    +0.000 C 
ATOM     30  C   UNL     1      -2.912  18.257  19.239  0.00  0.00    +0.000 C 
ATOM     31  C   UNL     1      -2.900  18.630  20.703  0.00  0.00    +0.000 C 
ATOM     32  O   UNL     1      -1.763  17.980  21.288  0.00  0.00    +0.000 OA
ENDBRANCH  27  28
ENDBRANCH  25  27
ENDBRANCH  20  23
ENDBRANCH   6  17
TORSDOF 6
ENDMDL
