MODEL 1
REMARK VINA RESULT:      -5.9      0.000      0.000
REMARK  Name = 
REMARK  6 active torsions:
REMARK  status: ('A' for Active; 'I' for Inactive)
REMARK    1  A    between atoms: C_2  and  C_3
REMARK    2  A    between atoms: C_2  and  C_7
REMARK    3  A    between atoms: C_3  and  N_4
REMARK    4  A    between atoms: N_4  and  C_5
REMARK    5  A    between atoms: N_4  and  C_6
REMARK    6  A    between atoms: C_7  and  C_9
REMARK                            x       y       z     vdW  Elec       q    Type
REMARK                         _______ _______ _______ _____ _____    ______ ____
ROOT
ATOM      1  C   UNL     1       3.012   6.167  18.170  0.00  0.00    +0.000 C 
ATOM      2  O   UNL     1       2.423   7.230  18.022  0.00  0.00    +0.000 OA
ENDROOT
BRANCH   1   3
ATOM      3  C   UNL     1       2.237   5.055  18.822  0.00  0.00    +0.000 A 
ATOM      4  C   UNL     1       1.786   3.986  18.015  0.00  0.00    +0.000 A 
ATOM      5  C   UNL     1       1.059   2.925  18.560  0.00  0.00    +0.000 A 
ATOM      6  C   UNL     1       0.779   2.898  19.925  0.00  0.00    +0.000 A 
ATOM      7  C   UNL     1       1.229   3.932  20.745  0.00  0.00    +0.000 A 
ATOM      8  C   UNL     1       1.949   5.000  20.202  0.00  0.00    +0.000 A 
ENDBRANCH   1   3
BRANCH   1  10
ATOM      9  C   UNL     1       4.876   6.944  16.755  0.00  0.00    +0.000 C 
ATOM     10  C   UNL     1       4.462   6.120  17.741  0.00  0.00    +0.000 C 
BRANCH  10  11
ATOM     11  C   UNL     1       5.532   5.311  18.458  0.00  0.00    +0.000 C 
BRANCH  11  12
ATOM     12  N   UNL     1       6.907   5.640  18.022  0.00  0.00    +0.000 NA
ATOM     13  C   UNL     1       7.804   5.922  19.154  0.00  0.00    +0.000 C 
ATOM     14  C   UNL     1       7.448   4.527  17.223  0.00  0.00    +0.000 C 
ENDBRANCH  11  12
ENDBRANCH  10  11
ENDBRANCH   1  10
TORSDOF 4
ENDMDL
MODEL 2
REMARK VINA RESULT:      -5.8      1.008      1.180
REMARK  Name = 
REMARK  6 active torsions:
REMARK  status: ('A' for Active; 'I' for Inactive)
REMARK    1  A    between atoms: C_2  and  C_3
REMARK    2  A    between atoms: C_2  and  C_7
REMARK    3  A    between atoms: C_3  and  N_4
REMARK    4  A    between atoms: N_4  and  C_5
REMARK    5  A    between atoms: N_4  and  C_6
REMARK    6  A    between atoms: C_7  and  C_9
REMARK                            x       y       z     vdW  Elec       q    Type
REMARK                         _______ _______ _______ _____ _____    ______ ____
ROOT
ATOM      1  C   UNL     1       2.931   5.988  18.307  0.00  0.00    +0.000 C 
ATOM      2  O   UNL     1       2.423   7.100  18.380  0.00  0.00    +0.000 OA
ENDROOT
BRANCH   1   3
ATOM      3  C   UNL     1       2.323   4.914  19.167  0.00  0.00    +0.000 A 
ATOM      4  C   UNL     1       1.516   3.933  18.549  0.00  0.00    +0.000 A 
ATOM      5  C   UNL     1       0.922   2.912  19.293  0.00  0.00    +0.000 A 
ATOM      6  C   UNL     1       1.133   2.836  20.669  0.00  0.00    +0.000 A 
ATOM      7  C   UNL     1       1.941   3.781  21.299  0.00  0.00    +0.000 A 
ATOM      8  C   UNL     1       2.529   4.811  20.559  0.00  0.00    +0.000 A 
ENDBRANCH   1   3
BRANCH   1  10
ATOM      9  C   UNL     1       4.591   6.930  16.746  0.00  0.00    +0.000 C 
ATOM     10  C   UNL     1       4.143   5.845  17.413  0.00  0.00    +0.000 C 
BRANCH  10  11
ATOM     11  C   UNL     1       4.994   4.587  17.334  0.00  0.00    +0.000 C 
BRANCH  11  12
ATOM     12  N   UNL     1       6.235   4.768  16.550  0.00  0.00    +0.000 NA
ATOM     13  C   UNL     1       7.448   4.569  17.361  0.00  0.00    +0.000 C 
ATOM     14  C   UNL     1       6.239   3.831  15.413  0.00  0.00    +0.000 C 
ENDBRANCH  11  12
ENDBRANCH  10  11
ENDBRANCH   1  10
TORSDOF 4
ENDMDL
MODEL 3
REMARK VINA RESULT:      -5.8      1.479      1.875
REMARK  Name = 
REMARK  6 active torsions:
REMARK  status: ('A' for Active; 'I' for Inactive)
REMARK    1  A    between atoms: C_2  and  C_3
REMARK    2  A    between atoms: C_2  and  C_7
REMARK    3  A    between atoms: C_3  and  N_4
REMARK    4  A    between atoms: N_4  and  C_5
REMARK    5  A    between atoms: N_4  and  C_6
REMARK    6  A    between atoms: C_7  and  C_9
REMARK                            x       y       z     vdW  Elec       q    Type
REMARK                         _______ _______ _______ _____ _____    ______ ____
ROOT
ATOM      1  C   UNL     1       4.109   5.435  18.889  0.00  0.00    +0.000 C 
ATOM      2  O   UNL     1       4.996   5.413  19.732  0.00  0.00    +0.000 OA
ENDROOT
BRANCH   1   3
ATOM      3  C   UNL     1       2.919   4.550  19.143  0.00  0.00    +0.000 A 
ATOM      4  C   UNL     1       2.649   3.509  18.226  0.00  0.00    +0.000 A 
ATOM      5  C   UNL     1       1.558   2.654  18.405  0.00  0.00    +0.000 A 
ATOM      6  C   UNL     1       0.724   2.808  19.511  0.00  0.00    +0.000 A 
ATOM      7  C   UNL     1       0.982   3.815  20.439  0.00  0.00    +0.000 A 
ATOM      8  C   UNL     1       2.066   4.679  20.258  0.00  0.00    +0.000 A 
ENDBRANCH   1   3
BRANCH   1  10
ATOM      9  C   UNL     1       3.679   7.466  17.559  0.00  0.00    +0.000 C 
ATOM     10  C   UNL     1       4.344   6.296  17.668  0.00  0.00    +0.000 C 
BRANCH  10  11
ATOM     11  C   UNL     1       5.405   6.006  16.618  0.00  0.00    +0.000 C 
BRANCH  11  12
ATOM     12  N   UNL     1       5.953   4.634  16.700  0.00  0.00    +0.000 NA
ATOM     13  C   UNL     1       5.948   3.947  15.398  0.00  0.00    +0.000 C 
ATOM     14  C   UNL     1       7.325   4.684  17.231  0.00  0.00    +0.000 C 
ENDBRANCH  11  12
ENDBRANCH  10  11
ENDBRANCH   1  10
TORSDOF 4
ENDMDL
MODEL 4
REMARK VINA RESULT:      -5.8      2.013      2.388
REMARK  Name = 
REMARK  6 active torsions:
REMARK  status: ('A' for Active; 'I' for Inactive)
REMARK    1  A    between atoms: C_2  and  C_3
REMARK    2  A    between atoms: C_2  and  C_7
REMARK    3  A    between atoms: C_3  and  N_4
REMARK    4  A    between atoms: N_4  and  C_5
REMARK    5  A    between atoms: N_4  and  C_6
REMARK    6  A    between atoms: C_7  and  C_9
REMARK                            x       y       z     vdW  Elec       q    Type
REMARK                         _______ _______ _______ _____ _____    ______ ____
ROOT
ATOM      1  C   UNL     1       2.933   3.646  17.515  0.00  0.00    +0.000 C 
ATOM      2  O   UNL     1       2.226   3.144  16.651  0.00  0.00    +0.000 OA
ENDROOT
BRANCH   1   3
ATOM      3  C   UNL     1       2.518   3.413  18.942  0.00  0.00    +0.000 A 
ATOM      4  C   UNL     1       3.438   2.794  19.817  0.00  0.00    +0.000 A 
ATOM      5  C   UNL     1       3.111   2.548  21.152  0.00  0.00    +0.000 A 
ATOM      6  C   UNL     1       1.866   2.929  21.649  0.00  0.00    +0.000 A 
ATOM      7  C   UNL     1       0.949   3.560  20.810  0.00  0.00    +0.000 A 
ATOM      8  C   UNL     1       1.268   3.799  19.470  0.00  0.00    +0.000 A 
ENDBRANCH   1   3
BRANCH   1  10
ATOM      9  C   UNL     1       4.118   5.803  17.362  0.00  0.00    +0.000 C 
ATOM     10  C   UNL     1       4.096   4.491  17.044  0.00  0.00    +0.000 C 
BRANCH  10  11
ATOM     11  C   UNL     1       5.332   3.926  16.360  0.00  0.00    +0.000 C 
BRANCH  11  12
ATOM     12  N   UNL     1       6.462   4.880  16.310  0.00  0.00    +0.000 NA
ATOM     13  C   UNL     1       7.504   4.571  17.303  0.00  0.00    +0.000 C 
ATOM     14  C   UNL     1       7.047   4.878  14.959  0.00  0.00    +0.000 C 
ENDBRANCH  11  12
ENDBRANCH  10  11
ENDBRANCH   1  10
TORSDOF 4
ENDMDL
MODEL 5
REMARK VINA RESULT:      -5.8      1.764      2.202
REMARK  Name = 
REMARK  6 active torsions:
REMARK  status: ('A' for Active; 'I' for Inactive)
REMARK    1  A    between atoms: C_2  and  C_3
REMARK    2  A    between atoms: C_2  and  C_7
REMARK    3  A    between atoms: C_3  and  N_4
REMARK    4  A    between atoms: N_4  and  C_5
REMARK    5  A    between atoms: N_4  and  C_6
REMARK    6  A    between atoms: C_7  and  C_9
REMARK                            x       y       z     vdW  Elec       q    Type
REMARK                         _______ _______ _______ _____ _____    ______ ____
ROOT
ATOM      1  C   UNL     1       3.750   4.193  17.810  0.00  0.00    +0.000 C 
ATOM      2  O   UNL     1       4.126   3.326  17.031  0.00  0.00    +0.000 OA
ENDROOT
BRANCH   1   3
ATOM      3  C   UNL     1       2.863   3.741  18.938  0.00  0.00    +0.000 A 
ATOM      4  C   UNL     1       3.470   3.226  20.106  0.00  0.00    +0.000 A 
ATOM      5  C   UNL     1       2.701   2.789  21.187  0.00  0.00    +0.000 A 
ATOM      6  C   UNL     1       1.310   2.870  21.134  0.00  0.00    +0.000 A 
ATOM      7  C   UNL     1       0.689   3.392  20.000  0.00  0.00    +0.000 A 
ATOM      8  C   UNL     1       1.455   3.822  18.912  0.00  0.00    +0.000 A 
ENDBRANCH   1   3
BRANCH   1  10
ATOM      9  C   UNL     1       3.412   6.629  17.981  0.00  0.00    +0.000 C 
ATOM     10  C   UNL     1       4.168   5.614  17.509  0.00  0.00    +0.000 C 
BRANCH  10  11
ATOM     11  C   UNL     1       5.479   5.988  16.836  0.00  0.00    +0.000 C 
BRANCH  11  12
ATOM     12  N   UNL     1       6.638   5.970  17.756  0.00  0.00    +0.000 NA
ATOM     13  C   UNL     1       7.469   4.766  17.591  0.00  0.00    +0.000 C 
ATOM     14  C   UNL     1       7.457   7.174  17.537  0.00  0.00    +0.000 C 
ENDBRANCH  11  12
ENDBRANCH  10  11
ENDBRANCH   1  10
TORSDOF 4
ENDMDL
MODEL 6
REMARK VINA RESULT:      -5.8      1.652      1.974
REMARK  Name = 
REMARK  6 active torsions:
REMARK  status: ('A' for Active; 'I' for Inactive)
REMARK    1  A    between atoms: C_2  and  C_3
REMARK    2  A    between atoms: C_2  and  C_7
REMARK    3  A    between atoms: C_3  and  N_4
REMARK    4  A    between atoms: N_4  and  C_5
REMARK    5  A    between atoms: N_4  and  C_6
REMARK    6  A    between atoms: C_7  and  C_9
REMARK                            x       y       z     vdW  Elec       q    Type
REMARK                         _______ _______ _______ _____ _____    ______ ____
ROOT
ATOM      1  C   UNL     1       3.605   4.418  17.656  0.00  0.00    +0.000 C 
ATOM      2  O   UNL     1       3.816   3.639  16.735  0.00  0.00    +0.000 OA
ENDROOT
BRANCH   1   3
ATOM      3  C   UNL     1       2.856   3.870  18.839  0.00  0.00    +0.000 A 
ATOM      4  C   UNL     1       1.446   3.805  18.771  0.00  0.00    +0.000 A 
ATOM      5  C   UNL     1       0.692   3.309  19.837  0.00  0.00    +0.000 A 
ATOM      6  C   UNL     1       1.329   2.851  20.989  0.00  0.00    +0.000 A 
ATOM      7  C   UNL     1       2.720   2.886  21.073  0.00  0.00    +0.000 A 
ATOM      8  C   UNL     1       3.477   3.392  20.011  0.00  0.00    +0.000 A 
ENDBRANCH   1   3
BRANCH   1  10
ATOM      9  C   UNL     1       3.333   6.843  18.009  0.00  0.00    +0.000 C 
ATOM     10  C   UNL     1       4.064   5.846  17.465  0.00  0.00    +0.000 C 
BRANCH  10  11
ATOM     11  C   UNL     1       5.389   6.233  16.827  0.00  0.00    +0.000 C 
BRANCH  11  12
ATOM     12  N   UNL     1       6.559   5.944  17.685  0.00  0.00    +0.000 NA
ATOM     13  C   UNL     1       7.271   4.723  17.274  0.00  0.00    +0.000 C 
ATOM     14  C   UNL     1       7.483   7.091  17.657  0.00  0.00    +0.000 C 
ENDBRANCH  11  12
ENDBRANCH  10  11
ENDBRANCH   1  10
TORSDOF 4
ENDMDL
MODEL 7
REMARK VINA RESULT:      -5.8      2.210      2.625
REMARK  Name = 
REMARK  6 active torsions:
REMARK  status: ('A' for Active; 'I' for Inactive)
REMARK    1  A    between atoms: C_2  and  C_3
REMARK    2  A    between atoms: C_2  and  C_7
REMARK    3  A    between atoms: C_3  and  N_4
REMARK    4  A    between atoms: N_4  and  C_5
REMARK    5  A    between atoms: N_4  and  C_6
REMARK    6  A    between atoms: C_7  and  C_9
REMARK                            x       y       z     vdW  Elec       q    Type
REMARK                         _______ _______ _______ _____ _____    ______ ____
ROOT
ATOM      1  C   UNL     1       4.489   4.220  18.808  0.00  0.00    +0.000 C 
ATOM      2  O   UNL     1       5.582   3.932  19.279  0.00  0.00    +0.000 OA
ENDROOT
BRANCH   1   3
ATOM      3  C   UNL     1       3.284   3.801  19.605  0.00  0.00    +0.000 A 
ATOM      4  C   UNL     1       3.475   2.947  20.714  0.00  0.00    +0.000 A 
ATOM      5  C   UNL     1       2.396   2.521  21.492  0.00  0.00    +0.000 A 
ATOM      6  C   UNL     1       1.105   2.950  21.191  0.00  0.00    +0.000 A 
ATOM      7  C   UNL     1       0.893   3.809  20.114  0.00  0.00    +0.000 A 
ATOM      8  C   UNL     1       1.969   4.230  19.327  0.00  0.00    +0.000 A 
ENDBRANCH   1   3
BRANCH   1  10
ATOM      9  C   UNL     1       4.273   6.233  17.401  0.00  0.00    +0.000 C 
ATOM     10  C   UNL     1       4.482   4.900  17.458  0.00  0.00    +0.000 C 
BRANCH  10  11
ATOM     11  C   UNL     1       4.852   4.205  16.156  0.00  0.00    +0.000 C 
BRANCH  11  12
ATOM     12  N   UNL     1       6.066   4.760  15.519  0.00  0.00    +0.000 NA
ATOM     13  C   UNL     1       7.284   4.496  16.303  0.00  0.00    +0.000 C 
ATOM     14  C   UNL     1       6.213   4.194  14.167  0.00  0.00    +0.000 C 
ENDBRANCH  11  12
ENDBRANCH  10  11
ENDBRANCH   1  10
TORSDOF 4
ENDMDL
MODEL 8
REMARK VINA RESULT:      -5.7      1.539      1.728
REMARK  Name = 
REMARK  6 active torsions:
REMARK  status: ('A' for Active; 'I' for Inactive)
REMARK    1  A    between atoms: C_2  and  C_3
REMARK    2  A    between atoms: C_2  and  C_7
REMARK    3  A    between atoms: C_3  and  N_4
REMARK    4  A    between atoms: N_4  and  C_5
REMARK    5  A    between atoms: N_4  and  C_6
REMARK    6  A    between atoms: C_7  and  C_9
REMARK                            x       y       z     vdW  Elec       q    Type
REMARK                         _______ _______ _______ _____ _____    ______ ____
ROOT
ATOM      1  C   UNL     1       4.194   5.201  18.666  0.00  0.00    +0.000 C 
ATOM      2  O   UNL     1       5.064   5.323  19.519  0.00  0.00    +0.000 OA
ENDROOT
BRANCH   1   3
ATOM      3  C   UNL     1       2.958   4.445  19.071  0.00  0.00    +0.000 A 
ATOM      4  C   UNL     1       2.503   3.402  18.234  0.00  0.00    +0.000 A 
ATOM      5  C   UNL     1       1.361   2.665  18.554  0.00  0.00    +0.000 A 
ATOM      6  C   UNL     1       0.656   2.941  19.725  0.00  0.00    +0.000 A 
ATOM      7  C   UNL     1       1.097   3.952  20.577  0.00  0.00    +0.000 A 
ATOM      8  C   UNL     1       2.235   4.699  20.255  0.00  0.00    +0.000 A 
ENDBRANCH   1   3
BRANCH   1  10
ATOM      9  C   UNL     1       4.308   7.083  17.078  0.00  0.00    +0.000 C 
ATOM     10  C   UNL     1       4.494   5.763  17.295  0.00  0.00    +0.000 C 
BRANCH  10  11
ATOM     11  C   UNL     1       5.146   4.967  16.175  0.00  0.00    +0.000 C 
BRANCH  11  12
ATOM     12  N   UNL     1       6.589   5.252  16.015  0.00  0.00    +0.000 NA
ATOM     13  C   UNL     1       7.417   4.545  17.006  0.00  0.00    +0.000 C 
ATOM     14  C   UNL     1       7.015   4.879  14.655  0.00  0.00    +0.000 C 
ENDBRANCH  11  12
ENDBRANCH  10  11
ENDBRANCH   1  10
TORSDOF 4
ENDMDL
MODEL 9
REMARK VINA RESULT:      -5.7      1.276      1.826
REMARK  Name = 
REMARK  6 active torsions:
REMARK  status: ('A' for Active; 'I' for Inactive)
REMARK    1  A    between atoms: C_2  and  C_3
REMARK    2  A    between atoms: C_2  and  C_7
REMARK    3  A    between atoms: C_3  and  N_4
REMARK    4  A    between atoms: N_4  and  C_5
REMARK    5  A    between atoms: N_4  and  C_6
REMARK    6  A    between atoms: C_7  and  C_9
REMARK                            x       y       z     vdW  Elec       q    Type
REMARK                         _______ _______ _______ _____ _____    ______ ____
ROOT
ATOM      1  C   UNL     1       3.729   5.183  17.843  0.00  0.00    +0.000 C 
ATOM      2  O   UNL     1       3.492   6.359  17.600  0.00  0.00    +0.000 OA
ENDROOT
BRANCH   1   3
ATOM      3  C   UNL     1       2.782   4.488  18.783  0.00  0.00    +0.000 A 
ATOM      4  C   UNL     1       2.871   4.779  20.163  0.00  0.00    +0.000 A 
ATOM      5  C   UNL     1       2.023   4.165  21.087  0.00  0.00    +0.000 A 
ATOM      6  C   UNL     1       1.055   3.260  20.653  0.00  0.00    +0.000 A 
ATOM      7  C   UNL     1       0.934   2.972  19.295  0.00  0.00    +0.000 A 
ATOM      8  C   UNL     1       1.789   3.577  18.368  0.00  0.00    +0.000 A 
ENDBRANCH   1   3
BRANCH   1  10
ATOM      9  C   UNL     1       4.936   4.194  15.934  0.00  0.00    +0.000 C 
ATOM     10  C   UNL     1       4.976   4.592  17.224  0.00  0.00    +0.000 C 
BRANCH  10  11
ATOM     11  C   UNL     1       6.330   4.558  17.914  0.00  0.00    +0.000 C 
BRANCH  11  12
ATOM     12  N   UNL     1       6.753   5.874  18.442  0.00  0.00    +0.000 NA
ATOM     13  C   UNL     1       7.826   5.761  19.444  0.00  0.00    +0.000 C 
ATOM     14  C   UNL     1       7.201   6.729  17.329  0.00  0.00    +0.000 C 
ENDBRANCH  11  12
ENDBRANCH  10  11
ENDBRANCH   1  10
TORSDOF 4
ENDMDL
