MODEL 1
REMARK VINA RESULT:      -7.7      0.000      0.000
REMARK  Name = 
REMARK  5 active torsions:
REMARK  status: ('A' for Active; 'I' for Inactive)
REMARK    1  A    between atoms: C_2  and  O_3
REMARK    2  A    between atoms: C_2  and  C_4
REMARK    3  A    between atoms: C_9  and  N_10
REMARK    4  A    between atoms: C_13  and  C_14
REMARK    5  A    between atoms: C_18  and  N_19
REMARK                            x       y       z     vdW  Elec       q    Type
REMARK                         _______ _______ _______ _____ _____    ______ ____
ROOT
ATOM      1  N   UNL     1       4.613   4.963  18.877  0.00  0.00    +0.000 N 
ATOM      2  C   UNL     1       5.686   4.931  18.036  0.00  0.00    +0.000 A 
ATOM      3  N   UNL     1       5.598   4.962  16.726  0.00  0.00    +0.000 NA
ATOM      4  C   UNL     1       6.826   4.746  16.132  0.00  0.00    +0.000 A 
ATOM      5  C   UNL     1       7.877   4.640  17.017  0.00  0.00    +0.000 A 
ATOM      6  S   UNL     1       7.298   4.813  18.629  0.00  0.00    +0.000 S 
ATOM      7  H   UNL     1       4.841   4.814  19.861  0.00  0.00    +0.000 HD
ENDROOT
BRANCH   1  13
ATOM      8  C   UNL     1       3.219   2.916  18.709  0.00  0.00    +0.000 A 
ATOM      9  C   UNL     1       2.006   2.305  18.336  0.00  0.00    +0.000 A 
ATOM     10  C   UNL     1       0.959   3.058  17.803  0.00  0.00    +0.000 A 
ATOM     11  C   UNL     1       1.121   4.423  17.620  0.00  0.00    +0.000 A 
ATOM     12  C   UNL     1       2.322   5.036  17.975  0.00  0.00    +0.000 A 
ATOM     13  C   UNL     1       3.388   4.307  18.543  0.00  0.00    +0.000 A 
BRANCH   8  15
ATOM     14  O   UNL     1       4.945   2.314  20.240  0.00  0.00    +0.000 OA
ATOM     15  C   UNL     1       4.253   2.010  19.282  0.00  0.00    +0.000 C 
BRANCH  15  16
ATOM     16  O   UNL     1       4.384   0.832  18.633  0.00  0.00    +0.000 OA
ATOM     17  H   UNL     1       5.190   0.790  18.076  0.00  0.00    +0.000 HD
ENDBRANCH  15  16
ENDBRANCH   8  15
ENDBRANCH   1  13
BRANCH   4  18
ATOM     18  C   UNL     1       6.922   4.672  14.680  0.00  0.00    +0.000 A 
ATOM     19  C   UNL     1       7.862   5.410  13.949  0.00  0.00    +0.000 A 
ATOM     20  C   UNL     1       7.928   5.297  12.554  0.00  0.00    +0.000 A 
ATOM     21  C   UNL     1       7.055   4.443  11.876  0.00  0.00    +0.000 A 
ATOM     22  C   UNL     1       6.125   3.692  12.604  0.00  0.00    +0.000 A 
ATOM     23  C   UNL     1       6.061   3.799  13.999  0.00  0.00    +0.000 A 
BRANCH  22  24
ATOM     24  N   UNL     1       5.206   2.787  11.905  0.00  0.00    +0.000 N 
ATOM     25  O   UNL     1       4.033   3.164  11.755  0.00  0.00    +0.000 OA
ATOM     26  O   UNL     1       5.649   1.700  11.511  0.00  0.00    +0.000 OA
ENDBRANCH  22  24
ENDBRANCH   4  18
TORSDOF 5
ENDMDL
MODEL 2
REMARK VINA RESULT:      -7.7      4.730      8.598
REMARK  Name = 
REMARK  5 active torsions:
REMARK  status: ('A' for Active; 'I' for Inactive)
REMARK    1  A    between atoms: C_2  and  O_3
REMARK    2  A    between atoms: C_2  and  C_4
REMARK    3  A    between atoms: C_9  and  N_10
REMARK    4  A    between atoms: C_13  and  C_14
REMARK    5  A    between atoms: C_18  and  N_19
REMARK                            x       y       z     vdW  Elec       q    Type
REMARK                         _______ _______ _______ _____ _____    ______ ____
ROOT
ATOM      1  N   UNL     1       4.541   4.555  18.464  0.00  0.00    +0.000 N 
ATOM      2  C   UNL     1       3.449   5.036  19.126  0.00  0.00    +0.000 A 
ATOM      3  N   UNL     1       3.083   6.296  19.126  0.00  0.00    +0.000 NA
ATOM      4  C   UNL     1       2.048   6.521  20.012  0.00  0.00    +0.000 A 
ATOM      5  C   UNL     1       1.565   5.385  20.626  0.00  0.00    +0.000 A 
ATOM      6  S   UNL     1       2.442   4.010  20.073  0.00  0.00    +0.000 S 
ATOM      7  H   UNL     1       4.757   3.576  18.657  0.00  0.00    +0.000 HD
ENDROOT
BRANCH   1  13
ATOM      8  C   UNL     1       6.122   5.952  17.157  0.00  0.00    +0.000 A 
ATOM      9  C   UNL     1       7.332   6.671  17.089  0.00  0.00    +0.000 A 
ATOM     10  C   UNL     1       8.167   6.772  18.202  0.00  0.00    +0.000 A 
ATOM     11  C   UNL     1       7.813   6.141  19.386  0.00  0.00    +0.000 A 
ATOM     12  C   UNL     1       6.623   5.418  19.459  0.00  0.00    +0.000 A 
ATOM     13  C   UNL     1       5.743   5.321  18.360  0.00  0.00    +0.000 A 
BRANCH   8  15
ATOM     14  O   UNL     1       4.991   6.944  15.306  0.00  0.00    +0.000 OA
ATOM     15  C   UNL     1       5.309   5.932  15.909  0.00  0.00    +0.000 C 
BRANCH  15  16
ATOM     16  O   UNL     1       4.923   4.699  15.514  0.00  0.00    +0.000 OA
ATOM     17  H   UNL     1       3.998   4.674  15.187  0.00  0.00    +0.000 HD
ENDBRANCH  15  16
ENDBRANCH   8  15
ENDBRANCH   1  13
BRANCH   4  18
ATOM     18  C   UNL     1       1.548   7.875  20.210  0.00  0.00    +0.000 A 
ATOM     19  C   UNL     1       1.556   8.837  19.190  0.00  0.00    +0.000 A 
ATOM     20  C   UNL     1       1.052  10.123  19.421  0.00  0.00    +0.000 A 
ATOM     21  C   UNL     1       0.533  10.461  20.673  0.00  0.00    +0.000 A 
ATOM     22  C   UNL     1       0.510   9.499  21.689  0.00  0.00    +0.000 A 
ATOM     23  C   UNL     1       1.008   8.211  21.460  0.00  0.00    +0.000 A 
BRANCH  22  24
ATOM     24  N   UNL     1      -0.037   9.839  23.007  0.00  0.00    +0.000 N 
ATOM     25  O   UNL     1      -1.156  10.374  23.045  0.00  0.00    +0.000 OA
ATOM     26  O   UNL     1       0.649   9.578  24.005  0.00  0.00    +0.000 OA
ENDBRANCH  22  24
ENDBRANCH   4  18
TORSDOF 5
ENDMDL
MODEL 3
REMARK VINA RESULT:      -7.6      3.733      7.302
REMARK  Name = 
REMARK  5 active torsions:
REMARK  status: ('A' for Active; 'I' for Inactive)
REMARK    1  A    between atoms: C_2  and  O_3
REMARK    2  A    between atoms: C_2  and  C_4
REMARK    3  A    between atoms: C_9  and  N_10
REMARK    4  A    between atoms: C_13  and  C_14
REMARK    5  A    between atoms: C_18  and  N_19
REMARK                            x       y       z     vdW  Elec       q    Type
REMARK                         _______ _______ _______ _____ _____    ______ ____
ROOT
ATOM      1  N   UNL     1       4.841   3.146  17.076  0.00  0.00    +0.000 N 
ATOM      2  C   UNL     1       4.191   3.885  18.021  0.00  0.00    +0.000 A 
ATOM      3  N   UNL     1       3.618   5.043  17.787  0.00  0.00    +0.000 NA
ATOM      4  C   UNL     1       3.189   5.638  18.956  0.00  0.00    +0.000 A 
ATOM      5  C   UNL     1       3.361   4.868  20.086  0.00  0.00    +0.000 A 
ATOM      6  S   UNL     1       4.085   3.366  19.659  0.00  0.00    +0.000 S 
ATOM      7  H   UNL     1       5.332   2.328  17.441  0.00  0.00    +0.000 HD
ENDROOT
BRANCH   1  13
ATOM      8  C   UNL     1       6.759   4.536  16.331  0.00  0.00    +0.000 A 
ATOM      9  C   UNL     1       7.467   5.161  15.287  0.00  0.00    +0.000 A 
ATOM     10  C   UNL     1       7.048   5.034  13.962  0.00  0.00    +0.000 A 
ATOM     11  C   UNL     1       5.909   4.298  13.670  0.00  0.00    +0.000 A 
ATOM     12  C   UNL     1       5.195   3.684  14.698  0.00  0.00    +0.000 A 
ATOM     13  C   UNL     1       5.609   3.770  16.045  0.00  0.00    +0.000 A 
BRANCH   8  15
ATOM     14  O   UNL     1       8.251   4.082  18.135  0.00  0.00    +0.000 OA
ATOM     15  C   UNL     1       7.314   4.730  17.700  0.00  0.00    +0.000 C 
BRANCH  15  16
ATOM     16  O   UNL     1       6.673   5.667  18.434  0.00  0.00    +0.000 OA
ATOM     17  H   UNL     1       5.709   5.702  18.251  0.00  0.00    +0.000 HD
ENDBRANCH  15  16
ENDBRANCH   8  15
ENDBRANCH   1  13
BRANCH   4  18
ATOM     18  C   UNL     1       2.590   6.966  18.912  0.00  0.00    +0.000 A 
ATOM     19  C   UNL     1       2.614   7.765  17.760  0.00  0.00    +0.000 A 
ATOM     20  C   UNL     1       2.013   9.030  17.759  0.00  0.00    +0.000 A 
ATOM     21  C   UNL     1       1.382   9.510  18.908  0.00  0.00    +0.000 A 
ATOM     22  C   UNL     1       1.343   8.710  20.056  0.00  0.00    +0.000 A 
ATOM     23  C   UNL     1       1.938   7.442  20.058  0.00  0.00    +0.000 A 
BRANCH  22  24
ATOM     24  N   UNL     1       0.679   9.199  21.269  0.00  0.00    +0.000 N 
ATOM     25  O   UNL     1      -0.318   8.578  21.668  0.00  0.00    +0.000 OA
ATOM     26  O   UNL     1       1.146  10.204  21.821  0.00  0.00    +0.000 OA
ENDBRANCH  22  24
ENDBRANCH   4  18
TORSDOF 5
ENDMDL
MODEL 4
REMARK VINA RESULT:      -7.5      4.765      6.494
REMARK  Name = 
REMARK  5 active torsions:
REMARK  status: ('A' for Active; 'I' for Inactive)
REMARK    1  A    between atoms: C_2  and  O_3
REMARK    2  A    between atoms: C_2  and  C_4
REMARK    3  A    between atoms: C_9  and  N_10
REMARK    4  A    between atoms: C_13  and  C_14
REMARK    5  A    between atoms: C_18  and  N_19
REMARK                            x       y       z     vdW  Elec       q    Type
REMARK                         _______ _______ _______ _____ _____    ______ ____
ROOT
ATOM      1  N   UNL     1       1.297   6.995  21.034  0.00  0.00    +0.000 N 
ATOM      2  C   UNL     1       1.914   5.956  20.401  0.00  0.00    +0.000 A 
ATOM      3  N   UNL     1       2.991   6.078  19.660  0.00  0.00    +0.000 NA
ATOM      4  C   UNL     1       3.293   4.897  19.011  0.00  0.00    +0.000 A 
ATOM      5  C   UNL     1       2.477   3.838  19.344  0.00  0.00    +0.000 A 
ATOM      6  S   UNL     1       1.303   4.349  20.495  0.00  0.00    +0.000 S 
ATOM      7  H   UNL     1       0.408   6.756  21.474  0.00  0.00    +0.000 HD
ENDROOT
BRANCH   1  13
ATOM      8  C   UNL     1       0.633   9.387  21.098  0.00  0.00    +0.000 A 
ATOM      9  C   UNL     1       0.555  10.639  20.458  0.00  0.00    +0.000 A 
ATOM     10  C   UNL     1       1.059  10.817  19.169  0.00  0.00    +0.000 A 
ATOM     11  C   UNL     1       1.628   9.742  18.501  0.00  0.00    +0.000 A 
ATOM     12  C   UNL     1       1.700   8.496  19.122  0.00  0.00    +0.000 A 
ATOM     13  C   UNL     1       1.225   8.291  20.435  0.00  0.00    +0.000 A 
BRANCH   8  15
ATOM     14  O   UNL     1       0.464  10.049  23.382  0.00  0.00    +0.000 OA
ATOM     15  C   UNL     1       0.077   9.327  22.478  0.00  0.00    +0.000 C 
BRANCH  15  16
ATOM     16  O   UNL     1      -0.874   8.383  22.657  0.00  0.00    +0.000 OA
ATOM     17  H   UNL     1      -0.629   7.516  22.268  0.00  0.00    +0.000 HD
ENDBRANCH  15  16
ENDBRANCH   8  15
ENDBRANCH   1  13
BRANCH   4  18
ATOM     18  C   UNL     1       4.415   4.851  18.082  0.00  0.00    +0.000 A 
ATOM     19  C   UNL     1       4.463   3.958  17.003  0.00  0.00    +0.000 A 
ATOM     20  C   UNL     1       5.556   3.959  16.127  0.00  0.00    +0.000 A 
ATOM     21  C   UNL     1       6.611   4.853  16.319  0.00  0.00    +0.000 A 
ATOM     22  C   UNL     1       6.560   5.756  17.387  0.00  0.00    +0.000 A 
ATOM     23  C   UNL     1       5.466   5.762  18.261  0.00  0.00    +0.000 A 
BRANCH  22  24
ATOM     24  N   UNL     1       7.659   6.705  17.598  0.00  0.00    +0.000 N 
ATOM     25  O   UNL     1       8.191   6.727  18.719  0.00  0.00    +0.000 OA
ATOM     26  O   UNL     1       7.991   7.430  16.650  0.00  0.00    +0.000 OA
ENDBRANCH  22  24
ENDBRANCH   4  18
TORSDOF 5
ENDMDL
MODEL 5
REMARK VINA RESULT:      -7.5      5.142      8.427
REMARK  Name = 
REMARK  5 active torsions:
REMARK  status: ('A' for Active; 'I' for Inactive)
REMARK    1  A    between atoms: C_2  and  O_3
REMARK    2  A    between atoms: C_2  and  C_4
REMARK    3  A    between atoms: C_9  and  N_10
REMARK    4  A    between atoms: C_13  and  C_14
REMARK    5  A    between atoms: C_18  and  N_19
REMARK                            x       y       z     vdW  Elec       q    Type
REMARK                         _______ _______ _______ _____ _____    ______ ____
ROOT
ATOM      1  N   UNL     1       3.679   5.348  19.207  0.00  0.00    +0.000 N 
ATOM      2  C   UNL     1       3.235   6.586  18.845  0.00  0.00    +0.000 A 
ATOM      3  N   UNL     1       2.368   7.289  19.537  0.00  0.00    +0.000 NA
ATOM      4  C   UNL     1       1.976   8.421  18.851  0.00  0.00    +0.000 A 
ATOM      5  C   UNL     1       2.632   8.621  17.655  0.00  0.00    +0.000 A 
ATOM      6  S   UNL     1       3.761   7.348  17.395  0.00  0.00    +0.000 S 
ATOM      7  H   UNL     1       4.260   4.885  18.507  0.00  0.00    +0.000 HD
ENDROOT
BRANCH   1  13
ATOM      8  C   UNL     1       1.904   3.616  19.104  0.00  0.00    +0.000 A 
ATOM      9  C   UNL     1       1.045   2.721  19.772  0.00  0.00    +0.000 A 
ATOM     10  C   UNL     1       1.079   2.599  21.161  0.00  0.00    +0.000 A 
ATOM     11  C   UNL     1       1.957   3.381  21.897  0.00  0.00    +0.000 A 
ATOM     12  C   UNL     1       2.803   4.277  21.246  0.00  0.00    +0.000 A 
ATOM     13  C   UNL     1       2.813   4.404  19.840  0.00  0.00    +0.000 A 
BRANCH   8  15
ATOM     14  O   UNL     1       2.459   2.938  16.886  0.00  0.00    +0.000 OA
ATOM     15  C   UNL     1       1.785   3.643  17.619  0.00  0.00    +0.000 C 
BRANCH  15  16
ATOM     16  O   UNL     1       0.890   4.539  17.147  0.00  0.00    +0.000 OA
ATOM     17  H   UNL     1       0.472   5.072  17.857  0.00  0.00    +0.000 HD
ENDBRANCH  15  16
ENDBRANCH   8  15
ENDBRANCH   1  13
BRANCH   4  18
ATOM     18  C   UNL     1       0.961   9.297  19.423  0.00  0.00    +0.000 A 
ATOM     19  C   UNL     1       0.066  10.031  18.632  0.00  0.00    +0.000 A 
ATOM     20  C   UNL     1      -0.902  10.849  19.227  0.00  0.00    +0.000 A 
ATOM     21  C   UNL     1      -0.989  10.941  20.617  0.00  0.00    +0.000 A 
ATOM     22  C   UNL     1      -0.107  10.198  21.411  0.00  0.00    +0.000 A 
ATOM     23  C   UNL     1       0.859   9.374  20.820  0.00  0.00    +0.000 A 
BRANCH  22  24
ATOM     24  N   UNL     1      -0.190  10.281  22.873  0.00  0.00    +0.000 N 
ATOM     25  O   UNL     1       0.617   9.607  23.533  0.00  0.00    +0.000 OA
ATOM     26  O   UNL     1      -1.059  11.013  23.365  0.00  0.00    +0.000 OA
ENDBRANCH  22  24
ENDBRANCH   4  18
TORSDOF 5
ENDMDL
MODEL 6
REMARK VINA RESULT:      -7.4      6.122      9.184
REMARK  Name = 
REMARK  5 active torsions:
REMARK  status: ('A' for Active; 'I' for Inactive)
REMARK    1  A    between atoms: C_2  and  O_3
REMARK    2  A    between atoms: C_2  and  C_4
REMARK    3  A    between atoms: C_9  and  N_10
REMARK    4  A    between atoms: C_13  and  C_14
REMARK    5  A    between atoms: C_18  and  N_19
REMARK                            x       y       z     vdW  Elec       q    Type
REMARK                         _______ _______ _______ _____ _____    ______ ____
ROOT
ATOM      1  N   UNL     1       3.149   5.867  19.098  0.00  0.00    +0.000 N 
ATOM      2  C   UNL     1       2.574   7.103  19.159  0.00  0.00    +0.000 A 
ATOM      3  N   UNL     1       1.965   7.582  20.219  0.00  0.00    +0.000 NA
ATOM      4  C   UNL     1       1.336   8.779  19.941  0.00  0.00    +0.000 A 
ATOM      5  C   UNL     1       1.555   9.258  18.667  0.00  0.00    +0.000 A 
ATOM      6  S   UNL     1       2.571   8.167  17.805  0.00  0.00    +0.000 S 
ATOM      7  H   UNL     1       3.479   5.599  18.170  0.00  0.00    +0.000 HD
ENDROOT
BRANCH   1  13
ATOM      8  C   UNL     1       1.884   3.732  19.061  0.00  0.00    +0.000 A 
ATOM      9  C   UNL     1       1.298   2.660  19.762  0.00  0.00    +0.000 A 
ATOM     10  C   UNL     1       1.383   2.582  21.152  0.00  0.00    +0.000 A 
ATOM     11  C   UNL     1       2.037   3.581  21.857  0.00  0.00    +0.000 A 
ATOM     12  C   UNL     1       2.611   4.652  21.173  0.00  0.00    +0.000 A 
ATOM     13  C   UNL     1       2.567   4.745  19.765  0.00  0.00    +0.000 A 
BRANCH   8  15
ATOM     14  O   UNL     1       2.362   2.919  16.871  0.00  0.00    +0.000 OA
ATOM     15  C   UNL     1       1.741   3.694  17.579  0.00  0.00    +0.000 C 
BRANCH  15  16
ATOM     16  O   UNL     1       0.886   4.613  17.077  0.00  0.00    +0.000 OA
ATOM     17  H   UNL     1       0.990   4.744  16.111  0.00  0.00    +0.000 HD
ENDBRANCH  15  16
ENDBRANCH   8  15
ENDBRANCH   1  13
BRANCH   4  18
ATOM     18  C   UNL     1       0.542   9.434  20.973  0.00  0.00    +0.000 A 
ATOM     19  C   UNL     1       0.530   8.997  22.305  0.00  0.00    +0.000 A 
ATOM     20  C   UNL     1      -0.237   9.666  23.266  0.00  0.00    +0.000 A 
ATOM     21  C   UNL     1      -1.001  10.779  22.908  0.00  0.00    +0.000 A 
ATOM     22  C   UNL     1      -0.980  11.227  21.582  0.00  0.00    +0.000 A 
ATOM     23  C   UNL     1      -0.209  10.565  20.619  0.00  0.00    +0.000 A 
BRANCH  22  24
ATOM     24  N   UNL     1      -1.773  12.399  21.192  0.00  0.00    +0.000 N 
ATOM     25  O   UNL     1      -1.668  13.421  21.888  0.00  0.00    +0.000 OA
ATOM     26  O   UNL     1      -2.502  12.300  20.196  0.00  0.00    +0.000 OA
ENDBRANCH  22  24
ENDBRANCH   4  18
TORSDOF 5
ENDMDL
MODEL 7
REMARK VINA RESULT:      -7.3      4.373      5.875
REMARK  Name = 
REMARK  5 active torsions:
REMARK  status: ('A' for Active; 'I' for Inactive)
REMARK    1  A    between atoms: C_2  and  O_3
REMARK    2  A    between atoms: C_2  and  C_4
REMARK    3  A    between atoms: C_9  and  N_10
REMARK    4  A    between atoms: C_13  and  C_14
REMARK    5  A    between atoms: C_18  and  N_19
REMARK                            x       y       z     vdW  Elec       q    Type
REMARK                         _______ _______ _______ _____ _____    ______ ____
ROOT
ATOM      1  N   UNL     1       1.392   6.890  20.850  0.00  0.00    +0.000 N 
ATOM      2  C   UNL     1       2.191   5.912  20.333  0.00  0.00    +0.000 A 
ATOM      3  N   UNL     1       3.374   6.129  19.806  0.00  0.00    +0.000 NA
ATOM      4  C   UNL     1       3.878   4.988  19.213  0.00  0.00    +0.000 A 
ATOM      5  C   UNL     1       3.096   3.865  19.379  0.00  0.00    +0.000 A 
ATOM      6  S   UNL     1       1.696   4.264  20.297  0.00  0.00    +0.000 S 
ATOM      7  H   UNL     1       0.457   6.577  21.116  0.00  0.00    +0.000 HD
ENDROOT
BRANCH   1  13
ATOM      8  C   UNL     1       0.773   9.292  20.939  0.00  0.00    +0.000 A 
ATOM      9  C   UNL     1       0.708  10.550  20.309  0.00  0.00    +0.000 A 
ATOM     10  C   UNL     1       1.196  10.727  19.014  0.00  0.00    +0.000 A 
ATOM     11  C   UNL     1       1.735   9.647  18.330  0.00  0.00    +0.000 A 
ATOM     12  C   UNL     1       1.794   8.396  18.942  0.00  0.00    +0.000 A 
ATOM     13  C   UNL     1       1.335   8.191  20.261  0.00  0.00    +0.000 A 
BRANCH   8  15
ATOM     14  O   UNL     1       0.717   9.868  23.253  0.00  0.00    +0.000 OA
ATOM     15  C   UNL     1       0.237   9.234  22.328  0.00  0.00    +0.000 C 
BRANCH  15  16
ATOM     16  O   UNL     1      -0.810   8.394  22.487  0.00  0.00    +0.000 OA
ATOM     17  H   UNL     1      -1.496   8.748  23.092  0.00  0.00    +0.000 HD
ENDBRANCH  15  16
ENDBRANCH   8  15
ENDBRANCH   1  13
BRANCH   4  18
ATOM     18  C   UNL     1       5.152   5.044  18.508  0.00  0.00    +0.000 A 
ATOM     19  C   UNL     1       6.370   5.257  19.168  0.00  0.00    +0.000 A 
ATOM     20  C   UNL     1       7.572   5.289  18.451  0.00  0.00    +0.000 A 
ATOM     21  C   UNL     1       7.570   5.108  17.066  0.00  0.00    +0.000 A 
ATOM     22  C   UNL     1       6.358   4.880  16.405  0.00  0.00    +0.000 A 
ATOM     23  C   UNL     1       5.155   4.842  17.120  0.00  0.00    +0.000 A 
BRANCH  22  24
ATOM     24  N   UNL     1       6.342   4.683  14.951  0.00  0.00    +0.000 N 
ATOM     25  O   UNL     1       5.612   3.787  14.501  0.00  0.00    +0.000 OA
ATOM     26  O   UNL     1       7.058   5.418  14.258  0.00  0.00    +0.000 OA
ENDBRANCH  22  24
ENDBRANCH   4  18
TORSDOF 5
ENDMDL
MODEL 8
REMARK VINA RESULT:      -7.3      4.264      7.673
REMARK  Name = 
REMARK  5 active torsions:
REMARK  status: ('A' for Active; 'I' for Inactive)
REMARK    1  A    between atoms: C_2  and  O_3
REMARK    2  A    between atoms: C_2  and  C_4
REMARK    3  A    between atoms: C_9  and  N_10
REMARK    4  A    between atoms: C_13  and  C_14
REMARK    5  A    between atoms: C_18  and  N_19
REMARK                            x       y       z     vdW  Elec       q    Type
REMARK                         _______ _______ _______ _____ _____    ______ ____
ROOT
ATOM      1  N   UNL     1       3.657   3.654  17.526  0.00  0.00    +0.000 N 
ATOM      2  C   UNL     1       2.926   4.462  18.347  0.00  0.00    +0.000 A 
ATOM      3  N   UNL     1       2.722   5.741  18.132  0.00  0.00    +0.000 NA
ATOM      4  C   UNL     1       2.094   6.338  19.208  0.00  0.00    +0.000 A 
ATOM      5  C   UNL     1       1.737   5.469  20.216  0.00  0.00    +0.000 A 
ATOM      6  S   UNL     1       2.210   3.868  19.796  0.00  0.00    +0.000 S 
ATOM      7  H   UNL     1       3.820   2.715  17.890  0.00  0.00    +0.000 HD
ENDROOT
BRANCH   1  13
ATOM      8  C   UNL     1       5.981   4.528  17.558  0.00  0.00    +0.000 A 
ATOM      9  C   UNL     1       7.095   5.030  16.858  0.00  0.00    +0.000 A 
ATOM     10  C   UNL     1       7.073   5.149  15.469  0.00  0.00    +0.000 A 
ATOM     11  C   UNL     1       5.933   4.785  14.767  0.00  0.00    +0.000 A 
ATOM     12  C   UNL     1       4.821   4.297  15.451  0.00  0.00    +0.000 A 
ATOM     13  C   UNL     1       4.822   4.138  16.854  0.00  0.00    +0.000 A 
BRANCH   8  15
ATOM     14  O   UNL     1       6.651   5.307  19.710  0.00  0.00    +0.000 OA
ATOM     15  C   UNL     1       6.132   4.432  19.037  0.00  0.00    +0.000 C 
BRANCH  15  16
ATOM     16  O   UNL     1       5.675   3.277  19.571  0.00  0.00    +0.000 OA
ATOM     17  H   UNL     1       6.365   2.582  19.626  0.00  0.00    +0.000 HD
ENDBRANCH  15  16
ENDBRANCH   8  15
ENDBRANCH   1  13
BRANCH   4  18
ATOM     18  C   UNL     1       1.845   7.774  19.191  0.00  0.00    +0.000 A 
ATOM     19  C   UNL     1       1.959   8.545  18.026  0.00  0.00    +0.000 A 
ATOM     20  C   UNL     1       1.696   9.920  18.054  0.00  0.00    +0.000 A 
ATOM     21  C   UNL     1       1.315  10.539  19.246  0.00  0.00    +0.000 A 
ATOM     22  C   UNL     1       1.185   9.771  20.408  0.00  0.00    +0.000 A 
ATOM     23  C   UNL     1       1.442   8.394  20.382  0.00  0.00    +0.000 A 
BRANCH  22  24
ATOM     24  N   UNL     1       0.780  10.407  21.667  0.00  0.00    +0.000 N 
ATOM     25  O   UNL     1       0.422  11.594  21.620  0.00  0.00    +0.000 OA
ATOM     26  O   UNL     1       0.823   9.728  22.701  0.00  0.00    +0.000 OA
ENDBRANCH  22  24
ENDBRANCH   4  18
TORSDOF 5
ENDMDL
MODEL 9
REMARK VINA RESULT:      -7.3      4.768      8.106
REMARK  Name = 
REMARK  5 active torsions:
REMARK  status: ('A' for Active; 'I' for Inactive)
REMARK    1  A    between atoms: C_2  and  O_3
REMARK    2  A    between atoms: C_2  and  C_4
REMARK    3  A    between atoms: C_9  and  N_10
REMARK    4  A    between atoms: C_13  and  C_14
REMARK    5  A    between atoms: C_18  and  N_19
REMARK                            x       y       z     vdW  Elec       q    Type
REMARK                         _______ _______ _______ _____ _____    ______ ____
ROOT
ATOM      1  N   UNL     1       4.700   4.631  18.489  0.00  0.00    +0.000 N 
ATOM      2  C   UNL     1       3.577   4.999  19.170  0.00  0.00    +0.000 A 
ATOM      3  N   UNL     1       3.129   6.231  19.245  0.00  0.00    +0.000 NA
ATOM      4  C   UNL     1       2.078   6.332  20.135  0.00  0.00    +0.000 A 
ATOM      5  C   UNL     1       1.667   5.132  20.672  0.00  0.00    +0.000 A 
ATOM      6  S   UNL     1       2.633   3.854  20.043  0.00  0.00    +0.000 S 
ATOM      7  H   UNL     1       4.978   3.659  18.623  0.00  0.00    +0.000 HD
ENDROOT
BRANCH   1  13
ATOM      8  C   UNL     1       6.041   6.421  17.411  0.00  0.00    +0.000 A 
ATOM      9  C   UNL     1       7.205   7.213  17.387  0.00  0.00    +0.000 A 
ATOM     10  C   UNL     1       8.181   7.082  18.376  0.00  0.00    +0.000 A 
ATOM     11  C   UNL     1       8.012   6.147  19.387  0.00  0.00    +0.000 A 
ATOM     12  C   UNL     1       6.868   5.351  19.413  0.00  0.00    +0.000 A 
ATOM     13  C   UNL     1       5.850   5.479  18.443  0.00  0.00    +0.000 A 
BRANCH   8  15
ATOM     14  O   UNL     1       5.301   6.398  15.144  0.00  0.00    +0.000 OA
ATOM     15  C   UNL     1       5.067   6.666  16.311  0.00  0.00    +0.000 C 
BRANCH  15  16
ATOM     16  O   UNL     1       3.910   7.240  16.709  0.00  0.00    +0.000 OA
ATOM     17  H   UNL     1       3.540   7.857  16.042  0.00  0.00    +0.000 HD
ENDBRANCH  15  16
ENDBRANCH   8  15
ENDBRANCH   1  13
BRANCH   4  18
ATOM     18  C   UNL     1       1.490   7.637  20.411  0.00  0.00    +0.000 A 
ATOM     19  C   UNL     1       0.790   7.913  21.594  0.00  0.00    +0.000 A 
ATOM     20  C   UNL     1       0.254   9.186  21.823  0.00  0.00    +0.000 A 
ATOM     21  C   UNL     1       0.412  10.197  20.873  0.00  0.00    +0.000 A 
ATOM     22  C   UNL     1       1.123   9.930  19.698  0.00  0.00    +0.000 A 
ATOM     23  C   UNL     1       1.665   8.660  19.468  0.00  0.00    +0.000 A 
BRANCH  22  24
ATOM     24  N   UNL     1       1.301  10.985  18.693  0.00  0.00    +0.000 N 
ATOM     25  O   UNL     1       0.505  11.937  18.713  0.00  0.00    +0.000 OA
ATOM     26  O   UNL     1       2.230  10.864  17.883  0.00  0.00    +0.000 OA
ENDBRANCH  22  24
ENDBRANCH   4  18
TORSDOF 5
ENDMDL
