MODEL 1
REMARK VINA RESULT:      -7.7      0.000      0.000
REMARK  Name = 
REMARK  6 active torsions:
REMARK  status: ('A' for Active; 'I' for Inactive)
REMARK    1  A    between atoms: C_1  and  C_2
REMARK    2  A    between atoms: C_8  and  C_9
REMARK    3  A    between atoms: C_9  and  N_10
REMARK    4  A    between atoms: N_10  and  C_11
REMARK    5  A    between atoms: N_14  and  C_15
REMARK    6  A    between atoms: C_15  and  C_16
REMARK                            x       y       z     vdW  Elec       q    Type
REMARK                         _______ _______ _______ _____ _____    ______ ____
ROOT
ATOM      1  N   UNL     1       4.384   6.904  16.810  0.00  0.00    +0.000 NA
ATOM      2  H   UNL     1       4.480   7.454  15.955  0.00  0.00    +0.000 HD
ENDROOT
BRANCH   1   3
ATOM      3  C   UNL     1       5.626   6.143  17.039  0.00  0.00    +0.000 C 
ATOM      4  C   UNL     1       5.695   5.013  16.005  0.00  0.00    +0.000 C 
ATOM      5  C   UNL     1       4.623   3.949  16.263  0.00  0.00    +0.000 C 
ATOM      6  N   UNL     1       4.717   3.383  17.624  0.00  0.00    +0.000 NA
ATOM      7  C   UNL     1       4.646   4.443  18.643  0.00  0.00    +0.000 C 
ATOM      8  C   UNL     1       5.733   5.496  18.428  0.00  0.00    +0.000 C 
BRANCH   6   9
ATOM      9  C   UNL     1       3.610   2.418  17.851  0.00  0.00    +0.000 C 
BRANCH   9  10
ATOM     10  C   UNL     1       2.783   2.725  19.087  0.00  0.00    +0.000 A 
ATOM     11  C   UNL     1       1.599   3.454  18.968  0.00  0.00    +0.000 A 
ATOM     12  C   UNL     1       0.925   3.827  20.128  0.00  0.00    +0.000 A 
ATOM     13  C   UNL     1       1.438   3.456  21.363  0.00  0.00    +0.000 A 
ATOM     14  C   UNL     1       2.606   2.712  21.394  0.00  0.00    +0.000 A 
ATOM     15  N   UNL     1       3.288   2.344  20.289  0.00  0.00    +0.000 NA
ENDBRANCH   9  10
ENDBRANCH   6   9
ENDBRANCH   1   3
BRANCH   1  16
ATOM     16  C   UNL     1       3.995   7.771  17.918  0.00  0.00    +0.000 C 
BRANCH  16  24
ATOM     17  C   UNL     1       0.020   9.572  23.352  0.00  0.00    +0.000 C 
ATOM     18  C   UNL     1       0.486   9.342  21.965  0.00  0.00    +0.000 A 
ATOM     19  C   UNL     1       0.218  10.126  20.815  0.00  0.00    +0.000 A 
ATOM     20  C   UNL     1       0.818   9.452  19.782  0.00  0.00    +0.000 A 
ATOM     21  N   UNL     1       1.423   8.372  20.345  0.00  0.00    +0.000 N 
ATOM     22  N   UNL     1       1.238   8.271  21.675  0.00  0.00    +0.000 NA
ATOM     23  C   UNL     1       2.146   7.362  19.616  0.00  0.00    +0.000 C 
ATOM     24  C   UNL     1       2.470   7.727  18.153  0.00  0.00    +0.000 C 
ATOM     25  C   UNL     1       1.868   9.047  17.624  0.00  0.00    +0.000 C 
ATOM     26  N   UNL     1       0.847   9.662  18.451  0.00  0.00    +0.000 N 
ATOM     27  H   UNL     1       0.502  10.554  18.098  0.00  0.00    +0.000 HD
ENDBRANCH  16  24
ENDBRANCH   1  16
TORSDOF 5
ENDMDL
MODEL 2
REMARK VINA RESULT:      -7.5      0.874      1.155
REMARK  Name = 
REMARK  6 active torsions:
REMARK  status: ('A' for Active; 'I' for Inactive)
REMARK    1  A    between atoms: C_1  and  C_2
REMARK    2  A    between atoms: C_8  and  C_9
REMARK    3  A    between atoms: C_9  and  N_10
REMARK    4  A    between atoms: N_10  and  C_11
REMARK    5  A    between atoms: N_14  and  C_15
REMARK    6  A    between atoms: C_15  and  C_16
REMARK                            x       y       z     vdW  Elec       q    Type
REMARK                         _______ _______ _______ _____ _____    ______ ____
ROOT
ATOM      1  N   UNL     1       4.201   6.581  16.862  0.00  0.00    +0.000 NA
ATOM      2  H   UNL     1       4.004   6.961  15.936  0.00  0.00    +0.000 HD
ENDROOT
BRANCH   1   3
ATOM      3  C   UNL     1       5.582   6.063  16.890  0.00  0.00    +0.000 C 
ATOM      4  C   UNL     1       5.557   4.603  16.421  0.00  0.00    +0.000 C 
ATOM      5  C   UNL     1       4.861   3.697  17.441  0.00  0.00    +0.000 C 
ATOM      6  N   UNL     1       5.488   3.779  18.776  0.00  0.00    +0.000 NA
ATOM      7  C   UNL     1       5.521   5.169  19.260  0.00  0.00    +0.000 C 
ATOM      8  C   UNL     1       6.246   6.085  18.274  0.00  0.00    +0.000 C 
BRANCH   6   9
ATOM      9  C   UNL     1       4.731   2.946  19.746  0.00  0.00    +0.000 C 
BRANCH   9  10
ATOM     10  C   UNL     1       3.225   3.029  19.567  0.00  0.00    +0.000 A 
ATOM     11  C   UNL     1       2.475   3.886  20.374  0.00  0.00    +0.000 A 
ATOM     12  C   UNL     1       1.086   3.853  20.275  0.00  0.00    +0.000 A 
ATOM     13  C   UNL     1       0.489   2.984  19.374  0.00  0.00    +0.000 A 
ATOM     14  C   UNL     1       1.305   2.183  18.592  0.00  0.00    +0.000 A 
ATOM     15  N   UNL     1       2.652   2.183  18.672  0.00  0.00    +0.000 NA
ENDBRANCH   9  10
ENDBRANCH   6   9
ENDBRANCH   1   3
BRANCH   1  16
ATOM     16  C   UNL     1       3.914   7.584  17.884  0.00  0.00    +0.000 C 
BRANCH  16  24
ATOM     17  C   UNL     1       0.115   9.573  23.379  0.00  0.00    +0.000 C 
ATOM     18  C   UNL     1       0.575   9.372  21.985  0.00  0.00    +0.000 A 
ATOM     19  C   UNL     1       0.449  10.262  20.888  0.00  0.00    +0.000 A 
ATOM     20  C   UNL     1       0.969   9.579  19.819  0.00  0.00    +0.000 A 
ATOM     21  N   UNL     1       1.400   8.387  20.313  0.00  0.00    +0.000 N 
ATOM     22  N   UNL     1       1.172   8.225  21.630  0.00  0.00    +0.000 NA
ATOM     23  C   UNL     1       1.987   7.334  19.525  0.00  0.00    +0.000 C 
ATOM     24  C   UNL     1       2.393   7.746  18.095  0.00  0.00    +0.000 C 
ATOM     25  C   UNL     1       2.000   9.171  17.651  0.00  0.00    +0.000 C 
ATOM     26  N   UNL     1       1.058   9.871  18.506  0.00  0.00    +0.000 N 
ATOM     27  H   UNL     1       0.853  10.825  18.212  0.00  0.00    +0.000 HD
ENDBRANCH  16  24
ENDBRANCH   1  16
TORSDOF 5
ENDMDL
MODEL 3
REMARK VINA RESULT:      -7.4      2.292      5.118
REMARK  Name = 
REMARK  6 active torsions:
REMARK  status: ('A' for Active; 'I' for Inactive)
REMARK    1  A    between atoms: C_1  and  C_2
REMARK    2  A    between atoms: C_8  and  C_9
REMARK    3  A    between atoms: C_9  and  N_10
REMARK    4  A    between atoms: N_10  and  C_11
REMARK    5  A    between atoms: N_14  and  C_15
REMARK    6  A    between atoms: C_15  and  C_16
REMARK                            x       y       z     vdW  Elec       q    Type
REMARK                         _______ _______ _______ _____ _____    ______ ____
ROOT
ATOM      1  N   UNL     1       3.473   5.708  19.441  0.00  0.00    +0.000 NA
ATOM      2  H   UNL     1       3.610   5.679  20.452  0.00  0.00    +0.000 HD
ENDROOT
BRANCH   1   3
ATOM      3  C   UNL     1       3.562   4.338  18.900  0.00  0.00    +0.000 C 
ATOM      4  C   UNL     1       4.973   3.804  19.177  0.00  0.00    +0.000 C 
ATOM      5  C   UNL     1       6.026   4.540  18.343  0.00  0.00    +0.000 C 
ATOM      6  N   UNL     1       5.741   4.465  16.895  0.00  0.00    +0.000 NA
ATOM      7  C   UNL     1       4.395   4.979  16.594  0.00  0.00    +0.000 C 
ATOM      8  C   UNL     1       3.323   4.231  17.388  0.00  0.00    +0.000 C 
BRANCH   6   9
ATOM      9  C   UNL     1       6.743   5.259  16.138  0.00  0.00    +0.000 C 
BRANCH   9  10
ATOM     10  C   UNL     1       6.813   4.898  14.665  0.00  0.00    +0.000 A 
ATOM     11  C   UNL     1       5.979   3.904  14.152  0.00  0.00    +0.000 A 
ATOM     12  C   UNL     1       6.147   3.507  12.828  0.00  0.00    +0.000 A 
ATOM     13  C   UNL     1       7.124   4.116  12.054  0.00  0.00    +0.000 A 
ATOM     14  C   UNL     1       7.895   5.112  12.631  0.00  0.00    +0.000 A 
ATOM     15  N   UNL     1       7.764   5.512  13.914  0.00  0.00    +0.000 NA
ENDBRANCH   9  10
ENDBRANCH   6   9
ENDBRANCH   1   3
BRANCH   1  16
ATOM     16  C   UNL     1       2.225   6.399  19.127  0.00  0.00    +0.000 C 
BRANCH  16  24
ATOM     17  C   UNL     1      -1.956  11.832  17.872  0.00  0.00    +0.000 C 
ATOM     18  C   UNL     1      -1.019  10.904  18.547  0.00  0.00    +0.000 A 
ATOM     19  C   UNL     1      -0.965  10.569  19.923  0.00  0.00    +0.000 A 
ATOM     20  C   UNL     1       0.115   9.732  20.040  0.00  0.00    +0.000 A 
ATOM     21  N   UNL     1       0.605   9.579  18.780  0.00  0.00    +0.000 N 
ATOM     22  N   UNL     1      -0.059  10.285  17.845  0.00  0.00    +0.000 NA
ATOM     23  C   UNL     1       1.770   8.805  18.439  0.00  0.00    +0.000 C 
ATOM     24  C   UNL     1       2.282   7.879  19.562  0.00  0.00    +0.000 C 
ATOM     25  C   UNL     1       1.578   8.001  20.930  0.00  0.00    +0.000 C 
ATOM     26  N   UNL     1       0.708   9.150  21.101  0.00  0.00    +0.000 N 
ATOM     27  H   UNL     1       0.223   9.179  21.997  0.00  0.00    +0.000 HD
ENDBRANCH  16  24
ENDBRANCH   1  16
TORSDOF 5
ENDMDL
MODEL 4
REMARK VINA RESULT:      -7.4      1.849      4.361
REMARK  Name = 
REMARK  6 active torsions:
REMARK  status: ('A' for Active; 'I' for Inactive)
REMARK    1  A    between atoms: C_1  and  C_2
REMARK    2  A    between atoms: C_8  and  C_9
REMARK    3  A    between atoms: C_9  and  N_10
REMARK    4  A    between atoms: N_10  and  C_11
REMARK    5  A    between atoms: N_14  and  C_15
REMARK    6  A    between atoms: C_15  and  C_16
REMARK                            x       y       z     vdW  Elec       q    Type
REMARK                         _______ _______ _______ _____ _____    ______ ____
ROOT
ATOM      1  N   UNL     1       2.575   5.863  20.130  0.00  0.00    +0.000 NA
ATOM      2  H   UNL     1       3.394   5.756  20.729  0.00  0.00    +0.000 HD
ENDROOT
BRANCH   1   3
ATOM      3  C   UNL     1       2.118   4.530  19.692  0.00  0.00    +0.000 C 
ATOM      4  C   UNL     1       3.208   3.510  20.043  0.00  0.00    +0.000 C 
ATOM      5  C   UNL     1       4.462   3.709  19.187  0.00  0.00    +0.000 C 
ATOM      6  N   UNL     1       4.165   3.640  17.741  0.00  0.00    +0.000 NA
ATOM      7  C   UNL     1       3.126   4.615  17.368  0.00  0.00    +0.000 C 
ATOM      8  C   UNL     1       1.850   4.408  18.185  0.00  0.00    +0.000 C 
BRANCH   6   9
ATOM      9  C   UNL     1       5.394   3.918  16.956  0.00  0.00    +0.000 C 
BRANCH   9  10
ATOM     10  C   UNL     1       6.244   5.034  17.537  0.00  0.00    +0.000 A 
ATOM     11  C   UNL     1       6.198   6.310  16.973  0.00  0.00    +0.000 A 
ATOM     12  C   UNL     1       7.077   7.282  17.445  0.00  0.00    +0.000 A 
ATOM     13  C   UNL     1       7.960   6.963  18.466  0.00  0.00    +0.000 A 
ATOM     14  C   UNL     1       7.926   5.681  18.989  0.00  0.00    +0.000 A 
ATOM     15  N   UNL     1       7.095   4.714  18.547  0.00  0.00    +0.000 NA
ENDBRANCH   9  10
ENDBRANCH   6   9
ENDBRANCH   1   3
BRANCH   1  16
ATOM     16  C   UNL     1       1.556   6.653  20.815  0.00  0.00    +0.000 C 
BRANCH  16  24
ATOM     17  C   UNL     1      -1.918  11.819  17.682  0.00  0.00    +0.000 C 
ATOM     18  C   UNL     1      -1.077  11.071  18.645  0.00  0.00    +0.000 A 
ATOM     19  C   UNL     1      -0.990  11.250  20.048  0.00  0.00    +0.000 A 
ATOM     20  C   UNL     1      -0.028  10.362  20.458  0.00  0.00    +0.000 A 
ATOM     21  N   UNL     1       0.363   9.696  19.338  0.00  0.00    +0.000 N 
ATOM     22  N   UNL     1      -0.253  10.106  18.213  0.00  0.00    +0.000 NA
ATOM     23  C   UNL     1       1.391   8.688  19.298  0.00  0.00    +0.000 C 
ATOM     24  C   UNL     1       1.838   8.165  20.679  0.00  0.00    +0.000 C 
ATOM     25  C   UNL     1       1.237   8.874  21.911  0.00  0.00    +0.000 C 
ATOM     26  N   UNL     1       0.541  10.122  21.655  0.00  0.00    +0.000 N 
ATOM     27  H   UNL     1       0.116  10.543  22.481  0.00  0.00    +0.000 HD
ENDBRANCH  16  24
ENDBRANCH   1  16
TORSDOF 5
ENDMDL
MODEL 5
REMARK VINA RESULT:      -7.2      2.269      5.045
REMARK  Name = 
REMARK  6 active torsions:
REMARK  status: ('A' for Active; 'I' for Inactive)
REMARK    1  A    between atoms: C_1  and  C_2
REMARK    2  A    between atoms: C_8  and  C_9
REMARK    3  A    between atoms: C_9  and  N_10
REMARK    4  A    between atoms: N_10  and  C_11
REMARK    5  A    between atoms: N_14  and  C_15
REMARK    6  A    between atoms: C_15  and  C_16
REMARK                            x       y       z     vdW  Elec       q    Type
REMARK                         _______ _______ _______ _____ _____    ______ ____
ROOT
ATOM      1  N   UNL     1       2.442   7.221  20.447  0.00  0.00    +0.000 NA
ATOM      2  H   UNL     1       3.095   7.027  21.207  0.00  0.00    +0.000 HD
ENDROOT
BRANCH   1   3
ATOM      3  C   UNL     1       2.110   5.960  19.759  0.00  0.00    +0.000 C 
ATOM      4  C   UNL     1       3.169   4.916  20.132  0.00  0.00    +0.000 C 
ATOM      5  C   UNL     1       4.533   5.257  19.523  0.00  0.00    +0.000 C 
ATOM      6  N   UNL     1       4.467   5.394  18.054  0.00  0.00    +0.000 NA
ATOM      7  C   UNL     1       3.463   6.396  17.661  0.00  0.00    +0.000 C 
ATOM      8  C   UNL     1       2.084   6.054  18.227  0.00  0.00    +0.000 C 
BRANCH   6   9
ATOM      9  C   UNL     1       5.792   5.801  17.521  0.00  0.00    +0.000 C 
BRANCH   9  10
ATOM     10  C   UNL     1       6.055   5.307  16.109  0.00  0.00    +0.000 A 
ATOM     11  C   UNL     1       5.170   4.409  15.511  0.00  0.00    +0.000 A 
ATOM     12  C   UNL     1       5.498   3.876  14.266  0.00  0.00    +0.000 A 
ATOM     13  C   UNL     1       6.681   4.260  13.652  0.00  0.00    +0.000 A 
ATOM     14  C   UNL     1       7.493   5.175  14.301  0.00  0.00    +0.000 A 
ATOM     15  N   UNL     1       7.210   5.701  15.512  0.00  0.00    +0.000 NA
ENDBRANCH   9  10
ENDBRANCH   6   9
ENDBRANCH   1   3
BRANCH   1  16
ATOM     16  C   UNL     1       1.285   7.951  20.959  0.00  0.00    +0.000 C 
BRANCH  16  24
ATOM     17  C   UNL     1      -2.985  11.105  16.442  0.00  0.00    +0.000 C 
ATOM     18  C   UNL     1      -2.076  10.866  17.588  0.00  0.00    +0.000 A 
ATOM     19  C   UNL     1      -2.136  11.442  18.882  0.00  0.00    +0.000 A 
ATOM     20  C   UNL     1      -1.038  10.948  19.538  0.00  0.00    +0.000 A 
ATOM     21  N   UNL     1      -0.427  10.107  18.661  0.00  0.00    +0.000 N 
ATOM     22  N   UNL     1      -1.031  10.036  17.459  0.00  0.00    +0.000 NA
ATOM     23  C   UNL     1       0.795   9.392  18.921  0.00  0.00    +0.000 C 
ATOM     24  C   UNL     1       1.240   9.389  20.398  0.00  0.00    +0.000 C 
ATOM     25  C   UNL     1       0.408  10.253  21.370  0.00  0.00    +0.000 C 
ATOM     26  N   UNL     1      -0.522  11.186  20.761  0.00  0.00    +0.000 N 
ATOM     27  H   UNL     1      -1.089  11.709  21.427  0.00  0.00    +0.000 HD
ENDBRANCH  16  24
ENDBRANCH   1  16
TORSDOF 5
ENDMDL
MODEL 6
REMARK VINA RESULT:      -7.0      1.450      4.154
REMARK  Name = 
REMARK  6 active torsions:
REMARK  status: ('A' for Active; 'I' for Inactive)
REMARK    1  A    between atoms: C_1  and  C_2
REMARK    2  A    between atoms: C_8  and  C_9
REMARK    3  A    between atoms: C_9  and  N_10
REMARK    4  A    between atoms: N_10  and  C_11
REMARK    5  A    between atoms: N_14  and  C_15
REMARK    6  A    between atoms: C_15  and  C_16
REMARK                            x       y       z     vdW  Elec       q    Type
REMARK                         _______ _______ _______ _____ _____    ______ ____
ROOT
ATOM      1  N   UNL     1       2.177   5.376  20.969  0.00  0.00    +0.000 NA
ATOM      2  H   UNL     1       1.988   5.885  21.834  0.00  0.00    +0.000 HD
ENDROOT
BRANCH   1   3
ATOM      3  C   UNL     1       1.436   4.102  20.985  0.00  0.00    +0.000 C 
ATOM      4  C   UNL     1       2.400   2.991  21.420  0.00  0.00    +0.000 C 
ATOM      5  C   UNL     1       3.466   2.722  20.353  0.00  0.00    +0.000 C 
ATOM      6  N   UNL     1       2.869   2.377  19.046  0.00  0.00    +0.000 NA
ATOM      7  C   UNL     1       1.943   3.429  18.595  0.00  0.00    +0.000 C 
ATOM      8  C   UNL     1       0.847   3.686  19.630  0.00  0.00    +0.000 C 
BRANCH   6   9
ATOM      9  C   UNL     1       3.938   2.205  18.029  0.00  0.00    +0.000 C 
BRANCH   9  10
ATOM     10  C   UNL     1       4.677   3.491  17.704  0.00  0.00    +0.000 A 
ATOM     11  C   UNL     1       4.513   4.090  16.455  0.00  0.00    +0.000 A 
ATOM     12  C   UNL     1       5.294   5.199  16.136  0.00  0.00    +0.000 A 
ATOM     13  C   UNL     1       6.200   5.682  17.069  0.00  0.00    +0.000 A 
ATOM     14  C   UNL     1       6.286   5.045  18.296  0.00  0.00    +0.000 A 
ATOM     15  N   UNL     1       5.551   3.963  18.630  0.00  0.00    +0.000 NA
ENDBRANCH   9  10
ENDBRANCH   6   9
ENDBRANCH   1   3
BRANCH   1  16
ATOM     16  C   UNL     1       1.888   6.226  19.818  0.00  0.00    +0.000 C 
BRANCH  16  24
ATOM     17  C   UNL     1      -1.576  11.978  17.950  0.00  0.00    +0.000 C 
ATOM     18  C   UNL     1      -0.791  11.004  18.742  0.00  0.00    +0.000 A 
ATOM     19  C   UNL     1      -0.856  10.762  20.138  0.00  0.00    +0.000 A 
ATOM     20  C   UNL     1       0.114   9.823  20.378  0.00  0.00    +0.000 A 
ATOM     21  N   UNL     1       0.657   9.531  19.165  0.00  0.00    +0.000 N 
ATOM     22  N   UNL     1       0.133  10.237  18.146  0.00  0.00    +0.000 NA
ATOM     23  C   UNL     1       1.746   8.613  18.951  0.00  0.00    +0.000 C 
ATOM     24  C   UNL     1       2.085   7.718  20.162  0.00  0.00    +0.000 C 
ATOM     25  C   UNL     1       1.319   8.011  21.470  0.00  0.00    +0.000 C 
ATOM     26  N   UNL     1       0.575   9.256  21.511  0.00  0.00    +0.000 N 
ATOM     27  H   UNL     1       0.043   9.399  22.369  0.00  0.00    +0.000 HD
ENDBRANCH  16  24
ENDBRANCH   1  16
TORSDOF 5
ENDMDL
MODEL 7
REMARK VINA RESULT:      -6.9      1.742      4.433
REMARK  Name = 
REMARK  6 active torsions:
REMARK  status: ('A' for Active; 'I' for Inactive)
REMARK    1  A    between atoms: C_1  and  C_2
REMARK    2  A    between atoms: C_8  and  C_9
REMARK    3  A    between atoms: C_9  and  N_10
REMARK    4  A    between atoms: N_10  and  C_11
REMARK    5  A    between atoms: N_14  and  C_15
REMARK    6  A    between atoms: C_15  and  C_16
REMARK                            x       y       z     vdW  Elec       q    Type
REMARK                         _______ _______ _______ _____ _____    ______ ____
ROOT
ATOM      1  N   UNL     1       2.442   5.895  20.357  0.00  0.00    +0.000 NA
ATOM      2  H   UNL     1       3.286   5.915  20.931  0.00  0.00    +0.000 HD
ENDROOT
BRANCH   1   3
ATOM      3  C   UNL     1       2.040   4.493  20.136  0.00  0.00    +0.000 C 
ATOM      4  C   UNL     1       3.289   3.611  20.251  0.00  0.00    +0.000 C 
ATOM      5  C   UNL     1       4.254   3.849  19.086  0.00  0.00    +0.000 C 
ATOM      6  N   UNL     1       3.609   3.627  17.776  0.00  0.00    +0.000 NA
ATOM      7  C   UNL     1       2.408   4.466  17.629  0.00  0.00    +0.000 C 
ATOM      8  C   UNL     1       1.413   4.216  18.763  0.00  0.00    +0.000 C 
BRANCH   6   9
ATOM      9  C   UNL     1       4.560   3.947  16.680  0.00  0.00    +0.000 C 
BRANCH   9  10
ATOM     10  C   UNL     1       5.636   4.939  17.083  0.00  0.00    +0.000 A 
ATOM     11  C   UNL     1       6.786   4.492  17.736  0.00  0.00    +0.000 A 
ATOM     12  C   UNL     1       7.699   5.434  18.204  0.00  0.00    +0.000 A 
ATOM     13  C   UNL     1       7.449   6.783  17.999  0.00  0.00    +0.000 A 
ATOM     14  C   UNL     1       6.297   7.144  17.321  0.00  0.00    +0.000 A 
ATOM     15  N   UNL     1       5.388   6.257  16.864  0.00  0.00    +0.000 NA
ENDBRANCH   9  10
ENDBRANCH   6   9
ENDBRANCH   1   3
BRANCH   1  16
ATOM     16  C   UNL     1       1.408   6.729  20.963  0.00  0.00    +0.000 C 
BRANCH  16  24
ATOM     17  C   UNL     1      -1.945  11.874  17.666  0.00  0.00    +0.000 C 
ATOM     18  C   UNL     1      -1.123  11.136  18.653  0.00  0.00    +0.000 A 
ATOM     19  C   UNL     1      -1.033  11.357  20.051  0.00  0.00    +0.000 A 
ATOM     20  C   UNL     1      -0.092  10.460  20.489  0.00  0.00    +0.000 A 
ATOM     21  N   UNL     1       0.285   9.751  19.391  0.00  0.00    +0.000 N 
ATOM     22  N   UNL     1      -0.320  10.140  18.253  0.00  0.00    +0.000 NA
ATOM     23  C   UNL     1       1.290   8.720  19.384  0.00  0.00    +0.000 C 
ATOM     24  C   UNL     1       1.723   8.230  20.781  0.00  0.00    +0.000 C 
ATOM     25  C   UNL     1       1.138   8.990  21.990  0.00  0.00    +0.000 C 
ATOM     26  N   UNL     1       0.471  10.244  21.695  0.00  0.00    +0.000 N 
ATOM     27  H   UNL     1       0.055  10.700  22.506  0.00  0.00    +0.000 HD
ENDBRANCH  16  24
ENDBRANCH   1  16
TORSDOF 5
ENDMDL
MODEL 8
REMARK VINA RESULT:      -6.9      2.400      4.357
REMARK  Name = 
REMARK  6 active torsions:
REMARK  status: ('A' for Active; 'I' for Inactive)
REMARK    1  A    between atoms: C_1  and  C_2
REMARK    2  A    between atoms: C_8  and  C_9
REMARK    3  A    between atoms: C_9  and  N_10
REMARK    4  A    between atoms: N_10  and  C_11
REMARK    5  A    between atoms: N_14  and  C_15
REMARK    6  A    between atoms: C_15  and  C_16
REMARK                            x       y       z     vdW  Elec       q    Type
REMARK                         _______ _______ _______ _____ _____    ______ ____
ROOT
ATOM      1  N   UNL     1       2.265   7.058  18.775  0.00  0.00    +0.000 NA
ATOM      2  H   UNL     1       3.264   7.076  18.569  0.00  0.00    +0.000 HD
ENDROOT
BRANCH   1   3
ATOM      3  C   UNL     1       1.854   5.671  19.062  0.00  0.00    +0.000 C 
ATOM      4  C   UNL     1       2.811   5.094  20.114  0.00  0.00    +0.000 C 
ATOM      5  C   UNL     1       4.219   4.894  19.544  0.00  0.00    +0.000 C 
ATOM      6  N   UNL     1       4.216   4.027  18.347  0.00  0.00    +0.000 NA
ATOM      7  C   UNL     1       3.312   4.557  17.313  0.00  0.00    +0.000 C 
ATOM      8  C   UNL     1       1.891   4.728  17.851  0.00  0.00    +0.000 C 
BRANCH   6   9
ATOM      9  C   UNL     1       5.588   3.929  17.788  0.00  0.00    +0.000 C 
BRANCH   9  10
ATOM     10  C   UNL     1       6.435   5.163  18.042  0.00  0.00    +0.000 A 
ATOM     11  C   UNL     1       6.367   6.247  17.166  0.00  0.00    +0.000 A 
ATOM     12  C   UNL     1       7.242   7.314  17.352  0.00  0.00    +0.000 A 
ATOM     13  C   UNL     1       8.144   7.278  18.405  0.00  0.00    +0.000 A 
ATOM     14  C   UNL     1       8.132   6.177  19.245  0.00  0.00    +0.000 A 
ATOM     15  N   UNL     1       7.305   5.122  19.085  0.00  0.00    +0.000 NA
ENDBRANCH   9  10
ENDBRANCH   6   9
ENDBRANCH   1   3
BRANCH   1  16
ATOM     16  C   UNL     1       1.959   8.009  19.840  0.00  0.00    +0.000 C 
BRANCH  16  24
ATOM     17  C   UNL     1       1.540  14.752  21.553  0.00  0.00    +0.000 C 
ATOM     18  C   UNL     1       1.525  13.496  20.766  0.00  0.00    +0.000 A 
ATOM     19  C   UNL     1       1.940  13.303  19.425  0.00  0.00    +0.000 A 
ATOM     20  C   UNL     1       1.659  11.988  19.155  0.00  0.00    +0.000 A 
ATOM     21  N   UNL     1       1.153  11.472  20.307  0.00  0.00    +0.000 N 
ATOM     22  N   UNL     1       1.052  12.365  21.310  0.00  0.00    +0.000 NA
ATOM     23  C   UNL     1       0.686  10.119  20.467  0.00  0.00    +0.000 C 
ATOM     24  C   UNL     1       1.074   9.162  19.321  0.00  0.00    +0.000 C 
ATOM     25  C   UNL     1       1.781   9.795  18.104  0.00  0.00    +0.000 C 
ATOM     26  N   UNL     1       1.761  11.245  18.035  0.00  0.00    +0.000 N 
ATOM     27  H   UNL     1       2.274  11.635  17.245  0.00  0.00    +0.000 HD
ENDBRANCH  16  24
ENDBRANCH   1  16
TORSDOF 5
ENDMDL
MODEL 9
REMARK VINA RESULT:      -6.9      0.748      1.086
REMARK  Name = 
REMARK  6 active torsions:
REMARK  status: ('A' for Active; 'I' for Inactive)
REMARK    1  A    between atoms: C_1  and  C_2
REMARK    2  A    between atoms: C_8  and  C_9
REMARK    3  A    between atoms: C_9  and  N_10
REMARK    4  A    between atoms: N_10  and  C_11
REMARK    5  A    between atoms: N_14  and  C_15
REMARK    6  A    between atoms: C_15  and  C_16
REMARK                            x       y       z     vdW  Elec       q    Type
REMARK                         _______ _______ _______ _____ _____    ______ ____
ROOT
ATOM      1  N   UNL     1       4.477   7.079  17.347  0.00  0.00    +0.000 NA
ATOM      2  H   UNL     1       4.647   8.054  17.101  0.00  0.00    +0.000 HD
ENDROOT
BRANCH   1   3
ATOM      3  C   UNL     1       5.727   6.313  17.182  0.00  0.00    +0.000 C 
ATOM      4  C   UNL     1       5.544   5.342  16.009  0.00  0.00    +0.000 C 
ATOM      5  C   UNL     1       4.539   4.236  16.347  0.00  0.00    +0.000 C 
ATOM      6  N   UNL     1       4.927   3.484  17.558  0.00  0.00    +0.000 NA
ATOM      7  C   UNL     1       5.104   4.387  18.707  0.00  0.00    +0.000 C 
ATOM      8  C   UNL     1       6.132   5.477  18.404  0.00  0.00    +0.000 C 
BRANCH   6   9
ATOM      9  C   UNL     1       3.884   2.478  17.887  0.00  0.00    +0.000 C 
BRANCH   9  10
ATOM     10  C   UNL     1       3.011   2.876  19.065  0.00  0.00    +0.000 A 
ATOM     11  C   UNL     1       3.378   2.508  20.359  0.00  0.00    +0.000 A 
ATOM     12  C   UNL     1       2.500   2.777  21.406  0.00  0.00    +0.000 A 
ATOM     13  C   UNL     1       1.297   3.413  21.138  0.00  0.00    +0.000 A 
ATOM     14  C   UNL     1       1.017   3.768  19.828  0.00  0.00    +0.000 A 
ATOM     15  N   UNL     1       1.842   3.512  18.791  0.00  0.00    +0.000 NA
ENDBRANCH   9  10
ENDBRANCH   6   9
ENDBRANCH   1   3
BRANCH   1  16
ATOM     16  C   UNL     1       3.893   6.996  18.683  0.00  0.00    +0.000 C 
BRANCH  16  24
ATOM     17  C   UNL     1      -0.422  10.495  22.891  0.00  0.00    +0.000 C 
ATOM     18  C   UNL     1       0.190   9.909  21.676  0.00  0.00    +0.000 A 
ATOM     19  C   UNL     1       0.245  10.466  20.374  0.00  0.00    +0.000 A 
ATOM     20  C   UNL     1       0.852   9.505  19.605  0.00  0.00    +0.000 A 
ATOM     21  N   UNL     1       1.154   8.486  20.455  0.00  0.00    +0.000 N 
ATOM     22  N   UNL     1       0.761   8.697  21.726  0.00  0.00    +0.000 NA
ATOM     23  C   UNL     1       1.772   7.246  20.064  0.00  0.00    +0.000 C 
ATOM     24  C   UNL     1       2.369   7.241  18.642  0.00  0.00    +0.000 C 
ATOM     25  C   UNL     1       2.111   8.496  17.782  0.00  0.00    +0.000 C 
ATOM     26  N   UNL     1       1.114   9.423  18.286  0.00  0.00    +0.000 N 
ATOM     27  H   UNL     1       0.998  10.263  17.721  0.00  0.00    +0.000 HD
ENDBRANCH  16  24
ENDBRANCH   1  16
TORSDOF 5
ENDMDL
