MODEL 1
REMARK VINA RESULT:      -7.7      0.000      0.000
REMARK  Name = 
REMARK  8 active torsions:
REMARK  status: ('A' for Active; 'I' for Inactive)
REMARK    1  A    between atoms: C_1  and  O_2
REMARK    2  A    between atoms: O_2  and  C_3
REMARK    3  A    between atoms: C_3  and  C_5
REMARK    4  A    between atoms: C_10  and  N_11
REMARK    5  A    between atoms: C_12  and  C_14
REMARK    6  A    between atoms: C_14  and  O_15
REMARK    7  A    between atoms: O_15  and  C_16
REMARK    8  A    between atoms: C_16  and  C_18
REMARK                            x       y       z     vdW  Elec       q    Type
REMARK                         _______ _______ _______ _____ _____    ______ ____
ROOT
ATOM      1  N   UNL     1       4.998   3.414  18.825  0.00  0.00    +0.000 N 
ATOM      2  C   UNL     1       5.814   4.539  18.856  0.00  0.00    +0.000 C 
ATOM      3  O   UNL     1       5.683   5.497  19.618  0.00  0.00    +0.000 OA
ATOM      4  H   UNL     1       5.328   2.597  18.317  0.00  0.00    +0.000 HD
ENDROOT
BRANCH   1  10
ATOM      5  C   UNL     1       2.542   3.692  19.074  0.00  0.00    +0.000 A 
ATOM      6  C   UNL     1       1.375   3.458  19.839  0.00  0.00    +0.000 A 
ATOM      7  C   UNL     1       1.428   2.802  21.065  0.00  0.00    +0.000 A 
ATOM      8  C   UNL     1       2.652   2.384  21.559  0.00  0.00    +0.000 A 
ATOM      9  C   UNL     1       3.814   2.608  20.817  0.00  0.00    +0.000 A 
ATOM     10  C   UNL     1       3.790   3.235  19.559  0.00  0.00    +0.000 A 
BRANCH   5  11
ATOM     11  C   UNL     1       2.296   4.393  17.777  0.00  0.00    +0.000 C 
ATOM     12  O   UNL     1       1.476   3.998  16.958  0.00  0.00    +0.000 OA
BRANCH  11  14
ATOM     13  C   UNL     1       2.574   6.635  18.321  0.00  0.00    +0.000 C 
ATOM     14  O   UNL     1       3.074   5.494  17.613  0.00  0.00    +0.000 OA
ENDBRANCH  11  14
ENDBRANCH   5  11
ENDBRANCH   1  10
BRANCH   2  15
ATOM     15  C   UNL     1       6.975   4.511  17.857  0.00  0.00    +0.000 C 
BRANCH  15  16
ATOM     16  O   UNL     1       6.513   4.327  16.515  0.00  0.00    +0.000 OA
BRANCH  16  17
ATOM     17  C   UNL     1       6.997   5.246  15.626  0.00  0.00    +0.000 C 
ATOM     18  O   UNL     1       7.436   6.343  15.952  0.00  0.00    +0.000 OA
BRANCH  17  19
ATOM     19  C   UNL     1       6.896   4.760  14.268  0.00  0.00    +0.000 A 
ATOM     20  C   UNL     1       6.086   3.776  13.722  0.00  0.00    +0.000 A 
ATOM     21  C   UNL     1       6.377   3.720  12.338  0.00  0.00    +0.000 A 
ATOM     22  C   UNL     1       7.347   4.668  12.117  0.00  0.00    +0.000 A 
ATOM     23  O   UNL     1       7.675   5.298  13.275  0.00  0.00    +0.000 OA
ENDBRANCH  17  19
ENDBRANCH  16  17
ENDBRANCH  15  16
ENDBRANCH   2  15
TORSDOF 7
ENDMDL
MODEL 2
REMARK VINA RESULT:      -7.6      1.568      2.455
REMARK  Name = 
REMARK  8 active torsions:
REMARK  status: ('A' for Active; 'I' for Inactive)
REMARK    1  A    between atoms: C_1  and  O_2
REMARK    2  A    between atoms: O_2  and  C_3
REMARK    3  A    between atoms: C_3  and  C_5
REMARK    4  A    between atoms: C_10  and  N_11
REMARK    5  A    between atoms: C_12  and  C_14
REMARK    6  A    between atoms: C_14  and  O_15
REMARK    7  A    between atoms: O_15  and  C_16
REMARK    8  A    between atoms: C_16  and  C_18
REMARK                            x       y       z     vdW  Elec       q    Type
REMARK                         _______ _______ _______ _____ _____    ______ ____
ROOT
ATOM      1  N   UNL     1       5.238   4.840  18.390  0.00  0.00    +0.000 N 
ATOM      2  C   UNL     1       6.533   5.095  18.829  0.00  0.00    +0.000 C 
ATOM      3  O   UNL     1       6.857   5.355  19.987  0.00  0.00    +0.000 OA
ATOM      4  H   UNL     1       5.118   4.421  17.471  0.00  0.00    +0.000 HD
ENDROOT
BRANCH   1  10
ATOM      5  C   UNL     1       3.452   3.878  19.823  0.00  0.00    +0.000 A 
ATOM      6  C   UNL     1       2.287   4.086  20.598  0.00  0.00    +0.000 A 
ATOM      7  C   UNL     1       1.705   5.345  20.714  0.00  0.00    +0.000 A 
ATOM      8  C   UNL     1       2.267   6.416  20.041  0.00  0.00    +0.000 A 
ATOM      9  C   UNL     1       3.417   6.228  19.271  0.00  0.00    +0.000 A 
ATOM     10  C   UNL     1       4.049   4.977  19.163  0.00  0.00    +0.000 A 
BRANCH   5  11
ATOM     11  C   UNL     1       3.947   2.468  19.827  0.00  0.00    +0.000 C 
ATOM     12  O   UNL     1       5.022   2.146  20.316  0.00  0.00    +0.000 OA
BRANCH  11  14
ATOM     13  C   UNL     1       2.834   1.928  17.858  0.00  0.00    +0.000 C 
ATOM     14  O   UNL     1       3.087   1.601  19.231  0.00  0.00    +0.000 OA
ENDBRANCH  11  14
ENDBRANCH   5  11
ENDBRANCH   1  10
BRANCH   2  15
ATOM     15  C   UNL     1       7.605   4.997  17.738  0.00  0.00    +0.000 C 
BRANCH  15  16
ATOM     16  O   UNL     1       7.083   4.422  16.535  0.00  0.00    +0.000 OA
BRANCH  16  17
ATOM     17  C   UNL     1       6.716   5.339  15.590  0.00  0.00    +0.000 C 
ATOM     18  O   UNL     1       6.401   6.495  15.849  0.00  0.00    +0.000 OA
BRANCH  17  19
ATOM     19  C   UNL     1       6.727   4.757  14.267  0.00  0.00    +0.000 A 
ATOM     20  C   UNL     1       5.974   3.724  13.733  0.00  0.00    +0.000 A 
ATOM     21  C   UNL     1       6.373   3.575  12.383  0.00  0.00    +0.000 A 
ATOM     22  C   UNL     1       7.345   4.522  12.169  0.00  0.00    +0.000 A 
ATOM     23  O   UNL     1       7.575   5.237  13.301  0.00  0.00    +0.000 OA
ENDBRANCH  17  19
ENDBRANCH  16  17
ENDBRANCH  15  16
ENDBRANCH   2  15
TORSDOF 7
ENDMDL
MODEL 3
REMARK VINA RESULT:      -7.4      1.142      1.371
REMARK  Name = 
REMARK  8 active torsions:
REMARK  status: ('A' for Active; 'I' for Inactive)
REMARK    1  A    between atoms: C_1  and  O_2
REMARK    2  A    between atoms: O_2  and  C_3
REMARK    3  A    between atoms: C_3  and  C_5
REMARK    4  A    between atoms: C_10  and  N_11
REMARK    5  A    between atoms: C_12  and  C_14
REMARK    6  A    between atoms: C_14  and  O_15
REMARK    7  A    between atoms: O_15  and  C_16
REMARK    8  A    between atoms: C_16  and  C_18
REMARK                            x       y       z     vdW  Elec       q    Type
REMARK                         _______ _______ _______ _____ _____    ______ ____
ROOT
ATOM      1  N   UNL     1       5.130   4.208  18.496  0.00  0.00    +0.000 N 
ATOM      2  C   UNL     1       6.350   4.782  18.840  0.00  0.00    +0.000 C 
ATOM      3  O   UNL     1       6.662   5.177  19.963  0.00  0.00    +0.000 OA
ATOM      4  H   UNL     1       5.065   3.720  17.606  0.00  0.00    +0.000 HD
ENDROOT
BRANCH   1  10
ATOM      5  C   UNL     1       3.029   5.148  19.428  0.00  0.00    +0.000 A 
ATOM      6  C   UNL     1       1.898   4.977  20.260  0.00  0.00    +0.000 A 
ATOM      7  C   UNL     1       1.711   3.815  21.004  0.00  0.00    +0.000 A 
ATOM      8  C   UNL     1       2.662   2.811  20.943  0.00  0.00    +0.000 A 
ATOM      9  C   UNL     1       3.785   2.964  20.128  0.00  0.00    +0.000 A 
ATOM     10  C   UNL     1       3.984   4.109  19.336  0.00  0.00    +0.000 A 
BRANCH   5  11
ATOM     11  C   UNL     1       3.057   6.448  18.691  0.00  0.00    +0.000 C 
ATOM     12  O   UNL     1       3.647   6.592  17.628  0.00  0.00    +0.000 OA
BRANCH  11  14
ATOM     13  C   UNL     1       2.035   8.523  18.457  0.00  0.00    +0.000 C 
ATOM     14  O   UNL     1       2.369   7.433  19.326  0.00  0.00    +0.000 OA
ENDBRANCH  11  14
ENDBRANCH   5  11
ENDBRANCH   1  10
BRANCH   2  15
ATOM     15  C   UNL     1       7.357   4.873  17.689  0.00  0.00    +0.000 C 
BRANCH  15  16
ATOM     16  O   UNL     1       6.815   4.351  16.470  0.00  0.00    +0.000 OA
BRANCH  16  17
ATOM     17  C   UNL     1       6.565   5.298  15.518  0.00  0.00    +0.000 C 
ATOM     18  O   UNL     1       6.278   6.462  15.774  0.00  0.00    +0.000 OA
BRANCH  17  19
ATOM     19  C   UNL     1       6.661   4.738  14.188  0.00  0.00    +0.000 A 
ATOM     20  C   UNL     1       5.964   3.695  13.599  0.00  0.00    +0.000 A 
ATOM     21  C   UNL     1       6.438   3.579  12.270  0.00  0.00    +0.000 A 
ATOM     22  C   UNL     1       7.395   4.554  12.123  0.00  0.00    +0.000 A 
ATOM     23  O   UNL     1       7.546   5.256  13.277  0.00  0.00    +0.000 OA
ENDBRANCH  17  19
ENDBRANCH  16  17
ENDBRANCH  15  16
ENDBRANCH   2  15
TORSDOF 7
ENDMDL
MODEL 4
REMARK VINA RESULT:      -7.3      1.684      2.152
REMARK  Name = 
REMARK  8 active torsions:
REMARK  status: ('A' for Active; 'I' for Inactive)
REMARK    1  A    between atoms: C_1  and  O_2
REMARK    2  A    between atoms: O_2  and  C_3
REMARK    3  A    between atoms: C_3  and  C_5
REMARK    4  A    between atoms: C_10  and  N_11
REMARK    5  A    between atoms: C_12  and  C_14
REMARK    6  A    between atoms: C_14  and  O_15
REMARK    7  A    between atoms: O_15  and  C_16
REMARK    8  A    between atoms: C_16  and  C_18
REMARK                            x       y       z     vdW  Elec       q    Type
REMARK                         _______ _______ _______ _____ _____    ______ ____
ROOT
ATOM      1  N   UNL     1       3.997   5.233  18.152  0.00  0.00    +0.000 N 
ATOM      2  C   UNL     1       5.263   5.653  18.544  0.00  0.00    +0.000 C 
ATOM      3  O   UNL     1       5.798   5.400  19.624  0.00  0.00    +0.000 OA
ATOM      4  H   UNL     1       3.750   5.309  17.168  0.00  0.00    +0.000 HD
ENDROOT
BRANCH   1  10
ATOM      5  C   UNL     1       2.143   5.274  19.805  0.00  0.00    +0.000 A 
ATOM      6  C   UNL     1       1.201   4.553  20.577  0.00  0.00    +0.000 A 
ATOM      7  C   UNL     1       1.150   3.162  20.550  0.00  0.00    +0.000 A 
ATOM      8  C   UNL     1       2.053   2.466  19.765  0.00  0.00    +0.000 A 
ATOM      9  C   UNL     1       2.990   3.162  18.997  0.00  0.00    +0.000 A 
ATOM     10  C   UNL     1       3.043   4.566  18.974  0.00  0.00    +0.000 A 
BRANCH   5  11
ATOM     11  C   UNL     1       2.042   6.759  19.943  0.00  0.00    +0.000 C 
ATOM     12  O   UNL     1       1.467   7.298  20.880  0.00  0.00    +0.000 OA
BRANCH  11  14
ATOM     13  C   UNL     1       1.809   8.444  18.359  0.00  0.00    +0.000 C 
ATOM     14  O   UNL     1       2.645   7.428  18.926  0.00  0.00    +0.000 OA
ENDBRANCH  11  14
ENDBRANCH   5  11
ENDBRANCH   1  10
BRANCH   2  15
ATOM     15  C   UNL     1       6.017   6.469  17.489  0.00  0.00    +0.000 C 
BRANCH  15  16
ATOM     16  O   UNL     1       7.408   6.129  17.454  0.00  0.00    +0.000 OA
BRANCH  16  17
ATOM     17  C   UNL     1       7.661   4.848  17.050  0.00  0.00    +0.000 C 
ATOM     18  O   UNL     1       8.285   4.034  17.721  0.00  0.00    +0.000 OA
BRANCH  17  19
ATOM     19  C   UNL     1       7.120   4.600  15.733  0.00  0.00    +0.000 A 
ATOM     20  C   UNL     1       6.086   3.772  15.326  0.00  0.00    +0.000 A 
ATOM     21  C   UNL     1       5.957   3.928  13.925  0.00  0.00    +0.000 A 
ATOM     22  C   UNL     1       6.917   4.839  13.556  0.00  0.00    +0.000 A 
ATOM     23  O   UNL     1       7.632   5.247  14.636  0.00  0.00    +0.000 OA
ENDBRANCH  17  19
ENDBRANCH  16  17
ENDBRANCH  15  16
ENDBRANCH   2  15
TORSDOF 7
ENDMDL
MODEL 5
REMARK VINA RESULT:      -7.3      0.933      1.048
REMARK  Name = 
REMARK  8 active torsions:
REMARK  status: ('A' for Active; 'I' for Inactive)
REMARK    1  A    between atoms: C_1  and  O_2
REMARK    2  A    between atoms: O_2  and  C_3
REMARK    3  A    between atoms: C_3  and  C_5
REMARK    4  A    between atoms: C_10  and  N_11
REMARK    5  A    between atoms: C_12  and  C_14
REMARK    6  A    between atoms: C_14  and  O_15
REMARK    7  A    between atoms: O_15  and  C_16
REMARK    8  A    between atoms: C_16  and  C_18
REMARK                            x       y       z     vdW  Elec       q    Type
REMARK                         _______ _______ _______ _____ _____    ______ ____
ROOT
ATOM      1  N   UNL     1       4.680   3.561  18.551  0.00  0.00    +0.000 N 
ATOM      2  C   UNL     1       5.764   4.409  18.749  0.00  0.00    +0.000 C 
ATOM      3  O   UNL     1       5.987   5.058  19.772  0.00  0.00    +0.000 OA
ATOM      4  H   UNL     1       4.717   2.913  17.767  0.00  0.00    +0.000 HD
ENDROOT
BRANCH   1  10
ATOM      5  C   UNL     1       2.292   3.936  19.123  0.00  0.00    +0.000 A 
ATOM      6  C   UNL     1       1.221   3.722  20.022  0.00  0.00    +0.000 A 
ATOM      7  C   UNL     1       1.397   3.013  21.207  0.00  0.00    +0.000 A 
ATOM      8  C   UNL     1       2.652   2.522  21.524  0.00  0.00    +0.000 A 
ATOM      9  C   UNL     1       3.720   2.725  20.648  0.00  0.00    +0.000 A 
ATOM     10  C   UNL     1       3.567   3.404  19.426  0.00  0.00    +0.000 A 
BRANCH   5  11
ATOM     11  C   UNL     1       1.918   4.700  17.894  0.00  0.00    +0.000 C 
ATOM     12  O   UNL     1       1.005   4.358  17.154  0.00  0.00    +0.000 OA
BRANCH  11  14
ATOM     13  C   UNL     1       2.552   6.775  18.728  0.00  0.00    +0.000 C 
ATOM     14  O   UNL     1       2.697   5.795  17.693  0.00  0.00    +0.000 OA
ENDBRANCH  11  14
ENDBRANCH   5  11
ENDBRANCH   1  10
BRANCH   2  15
ATOM     15  C   UNL     1       6.744   4.475  17.574  0.00  0.00    +0.000 C 
BRANCH  15  16
ATOM     16  O   UNL     1       6.151   3.990  16.364  0.00  0.00    +0.000 OA
BRANCH  16  17
ATOM     17  C   UNL     1       5.909   4.960  15.432  0.00  0.00    +0.000 C 
ATOM     18  O   UNL     1       5.536   6.094  15.711  0.00  0.00    +0.000 OA
BRANCH  17  19
ATOM     19  C   UNL     1       6.126   4.462  14.092  0.00  0.00    +0.000 A 
ATOM     20  C   UNL     1       7.228   4.571  13.260  0.00  0.00    +0.000 A 
ATOM     21  C   UNL     1       6.915   3.879  12.065  0.00  0.00    +0.000 A 
ATOM     22  C   UNL     1       5.643   3.388  12.234  0.00  0.00    +0.000 A 
ATOM     23  O   UNL     1       5.151   3.740  13.451  0.00  0.00    +0.000 OA
ENDBRANCH  17  19
ENDBRANCH  16  17
ENDBRANCH  15  16
ENDBRANCH   2  15
TORSDOF 7
ENDMDL
MODEL 6
REMARK VINA RESULT:      -7.2      1.740      2.678
REMARK  Name = 
REMARK  8 active torsions:
REMARK  status: ('A' for Active; 'I' for Inactive)
REMARK    1  A    between atoms: C_1  and  O_2
REMARK    2  A    between atoms: O_2  and  C_3
REMARK    3  A    between atoms: C_3  and  C_5
REMARK    4  A    between atoms: C_10  and  N_11
REMARK    5  A    between atoms: C_12  and  C_14
REMARK    6  A    between atoms: C_14  and  O_15
REMARK    7  A    between atoms: O_15  and  C_16
REMARK    8  A    between atoms: C_16  and  C_18
REMARK                            x       y       z     vdW  Elec       q    Type
REMARK                         _______ _______ _______ _____ _____    ______ ____
ROOT
ATOM      1  N   UNL     1       5.043   4.682  18.503  0.00  0.00    +0.000 N 
ATOM      2  C   UNL     1       6.355   5.061  18.767  0.00  0.00    +0.000 C 
ATOM      3  O   UNL     1       6.729   5.709  19.744  0.00  0.00    +0.000 OA
ATOM      4  H   UNL     1       4.884   3.968  17.795  0.00  0.00    +0.000 HD
ENDROOT
BRANCH   1  10
ATOM      5  C   UNL     1       3.190   4.217  20.090  0.00  0.00    +0.000 A 
ATOM      6  C   UNL     1       2.067   4.696  20.805  0.00  0.00    +0.000 A 
ATOM      7  C   UNL     1       1.625   6.009  20.669  0.00  0.00    +0.000 A 
ATOM      8  C   UNL     1       2.285   6.861  19.800  0.00  0.00    +0.000 A 
ATOM      9  C   UNL     1       3.395   6.403  19.086  0.00  0.00    +0.000 A 
ATOM     10  C   UNL     1       3.889   5.095  19.230  0.00  0.00    +0.000 A 
BRANCH   5  11
ATOM     11  C   UNL     1       3.534   2.790  20.373  0.00  0.00    +0.000 C 
ATOM     12  O   UNL     1       3.412   2.288  21.483  0.00  0.00    +0.000 OA
BRANCH  11  14
ATOM     13  C   UNL     1       2.944   1.765  18.372  0.00  0.00    +0.000 C 
ATOM     14  O   UNL     1       3.993   2.128  19.279  0.00  0.00    +0.000 OA
ENDBRANCH  11  14
ENDBRANCH   5  11
ENDBRANCH   1  10
BRANCH   2  15
ATOM     15  C   UNL     1       7.377   4.575  17.734  0.00  0.00    +0.000 C 
BRANCH  15  16
ATOM     16  O   UNL     1       7.141   5.151  16.445  0.00  0.00    +0.000 OA
BRANCH  16  17
ATOM     17  C   UNL     1       6.482   4.326  15.576  0.00  0.00    +0.000 C 
ATOM     18  O   UNL     1       5.642   3.503  15.923  0.00  0.00    +0.000 OA
BRANCH  17  19
ATOM     19  C   UNL     1       6.925   4.540  14.217  0.00  0.00    +0.000 A 
ATOM     20  C   UNL     1       6.590   3.878  13.047  0.00  0.00    +0.000 A 
ATOM     21  C   UNL     1       7.297   4.510  11.996  0.00  0.00    +0.000 A 
ATOM     22  C   UNL     1       8.022   5.520  12.581  0.00  0.00    +0.000 A 
ATOM     23  O   UNL     1       7.814   5.543  13.923  0.00  0.00    +0.000 OA
ENDBRANCH  17  19
ENDBRANCH  16  17
ENDBRANCH  15  16
ENDBRANCH   2  15
TORSDOF 7
ENDMDL
MODEL 7
REMARK VINA RESULT:      -7.2      1.488      1.920
REMARK  Name = 
REMARK  8 active torsions:
REMARK  status: ('A' for Active; 'I' for Inactive)
REMARK    1  A    between atoms: C_1  and  O_2
REMARK    2  A    between atoms: O_2  and  C_3
REMARK    3  A    between atoms: C_3  and  C_5
REMARK    4  A    between atoms: C_10  and  N_11
REMARK    5  A    between atoms: C_12  and  C_14
REMARK    6  A    between atoms: C_14  and  O_15
REMARK    7  A    between atoms: O_15  and  C_16
REMARK    8  A    between atoms: C_16  and  C_18
REMARK                            x       y       z     vdW  Elec       q    Type
REMARK                         _______ _______ _______ _____ _____    ______ ____
ROOT
ATOM      1  N   UNL     1       4.533   5.191  18.430  0.00  0.00    +0.000 N 
ATOM      2  C   UNL     1       5.884   5.449  18.639  0.00  0.00    +0.000 C 
ATOM      3  O   UNL     1       6.513   5.180  19.662  0.00  0.00    +0.000 OA
ATOM      4  H   UNL     1       4.176   5.248  17.479  0.00  0.00    +0.000 HD
ENDROOT
BRANCH   1  10
ATOM      5  C   UNL     1       2.571   5.518  19.917  0.00  0.00    +0.000 A 
ATOM      6  C   UNL     1       1.672   4.972  20.864  0.00  0.00    +0.000 A 
ATOM      7  C   UNL     1       1.798   3.661  21.314  0.00  0.00    +0.000 A 
ATOM      8  C   UNL     1       2.837   2.878  20.841  0.00  0.00    +0.000 A 
ATOM      9  C   UNL     1       3.734   3.402  19.908  0.00  0.00    +0.000 A 
ATOM     10  C   UNL     1       3.612   4.710  19.405  0.00  0.00    +0.000 A 
BRANCH   5  11
ATOM     11  C   UNL     1       2.274   6.932  19.534  0.00  0.00    +0.000 C 
ATOM     12  O   UNL     1       2.048   7.807  20.360  0.00  0.00    +0.000 OA
BRANCH  11  14
ATOM     13  C   UNL     1       2.493   8.500  17.832  0.00  0.00    +0.000 C 
ATOM     14  O   UNL     1       2.278   7.129  18.190  0.00  0.00    +0.000 OA
ENDBRANCH  11  14
ENDBRANCH   5  11
ENDBRANCH   1  10
BRANCH   2  15
ATOM     15  C   UNL     1       6.599   6.092  17.447  0.00  0.00    +0.000 C 
BRANCH  15  16
ATOM     16  O   UNL     1       7.314   5.123  16.673  0.00  0.00    +0.000 OA
BRANCH  16  17
ATOM     17  C   UNL     1       6.527   4.384  15.835  0.00  0.00    +0.000 C 
ATOM     18  O   UNL     1       5.615   3.660  16.220  0.00  0.00    +0.000 OA
BRANCH  17  19
ATOM     19  C   UNL     1       6.929   4.554  14.457  0.00  0.00    +0.000 A 
ATOM     20  C   UNL     1       6.473   3.935  13.304  0.00  0.00    +0.000 A 
ATOM     21  C   UNL     1       7.195   4.493  12.222  0.00  0.00    +0.000 A 
ATOM     22  C   UNL     1       8.049   5.417  12.772  0.00  0.00    +0.000 A 
ATOM     23  O   UNL     1       7.905   5.459  14.122  0.00  0.00    +0.000 OA
ENDBRANCH  17  19
ENDBRANCH  16  17
ENDBRANCH  15  16
ENDBRANCH   2  15
TORSDOF 7
ENDMDL
MODEL 8
REMARK VINA RESULT:      -7.1      1.623      6.473
REMARK  Name = 
REMARK  8 active torsions:
REMARK  status: ('A' for Active; 'I' for Inactive)
REMARK    1  A    between atoms: C_1  and  O_2
REMARK    2  A    between atoms: O_2  and  C_3
REMARK    3  A    between atoms: C_3  and  C_5
REMARK    4  A    between atoms: C_10  and  N_11
REMARK    5  A    between atoms: C_12  and  C_14
REMARK    6  A    between atoms: C_14  and  O_15
REMARK    7  A    between atoms: O_15  and  C_16
REMARK    8  A    between atoms: C_16  and  C_18
REMARK                            x       y       z     vdW  Elec       q    Type
REMARK                         _______ _______ _______ _____ _____    ______ ____
ROOT
ATOM      1  N   UNL     1       3.850   4.614  17.771  0.00  0.00    +0.000 N 
ATOM      2  C   UNL     1       2.705   5.395  17.890  0.00  0.00    +0.000 C 
ATOM      3  O   UNL     1       2.686   6.609  18.088  0.00  0.00    +0.000 OA
ATOM      4  H   UNL     1       3.752   3.676  17.389  0.00  0.00    +0.000 HD
ENDROOT
BRANCH   1  10
ATOM      5  C   UNL     1       6.058   5.393  16.941  0.00  0.00    +0.000 A 
ATOM      6  C   UNL     1       7.366   5.843  17.237  0.00  0.00    +0.000 A 
ATOM      7  C   UNL     1       7.823   5.938  18.549  0.00  0.00    +0.000 A 
ATOM      8  C   UNL     1       6.985   5.566  19.587  0.00  0.00    +0.000 A 
ATOM      9  C   UNL     1       5.691   5.119  19.312  0.00  0.00    +0.000 A 
ATOM     10  C   UNL     1       5.188   5.047  18.001  0.00  0.00    +0.000 A 
BRANCH   5  11
ATOM     11  C   UNL     1       5.732   5.372  15.482  0.00  0.00    +0.000 C 
ATOM     12  O   UNL     1       5.626   6.393  14.813  0.00  0.00    +0.000 OA
BRANCH  11  14
ATOM     13  C   UNL     1       6.172   3.937  13.708  0.00  0.00    +0.000 C 
ATOM     14  O   UNL     1       5.566   4.116  14.994  0.00  0.00    +0.000 OA
ENDBRANCH  11  14
ENDBRANCH   5  11
ENDBRANCH   1  10
BRANCH   2  15
ATOM     15  C   UNL     1       1.391   4.627  17.718  0.00  0.00    +0.000 C 
BRANCH  15  16
ATOM     16  O   UNL     1       1.617   3.221  17.561  0.00  0.00    +0.000 OA
BRANCH  16  17
ATOM     17  C   UNL     1       1.025   2.449  18.520  0.00  0.00    +0.000 C 
ATOM     18  O   UNL     1       0.021   1.772  18.326  0.00  0.00    +0.000 OA
BRANCH  17  19
ATOM     19  C   UNL     1       1.723   2.558  19.781  0.00  0.00    +0.000 A 
ATOM     20  C   UNL     1       1.245   2.837  21.052  0.00  0.00    +0.000 A 
ATOM     21  C   UNL     1       2.356   2.800  21.929  0.00  0.00    +0.000 A 
ATOM     22  C   UNL     1       3.446   2.502  21.147  0.00  0.00    +0.000 A 
ATOM     23  O   UNL     1       3.079   2.362  19.847  0.00  0.00    +0.000 OA
ENDBRANCH  17  19
ENDBRANCH  16  17
ENDBRANCH  15  16
ENDBRANCH   2  15
TORSDOF 7
ENDMDL
MODEL 9
REMARK VINA RESULT:      -7.1      1.596      2.373
REMARK  Name = 
REMARK  8 active torsions:
REMARK  status: ('A' for Active; 'I' for Inactive)
REMARK    1  A    between atoms: C_1  and  O_2
REMARK    2  A    between atoms: O_2  and  C_3
REMARK    3  A    between atoms: C_3  and  C_5
REMARK    4  A    between atoms: C_10  and  N_11
REMARK    5  A    between atoms: C_12  and  C_14
REMARK    6  A    between atoms: C_14  and  O_15
REMARK    7  A    between atoms: O_15  and  C_16
REMARK    8  A    between atoms: C_16  and  C_18
REMARK                            x       y       z     vdW  Elec       q    Type
REMARK                         _______ _______ _______ _____ _____    ______ ____
ROOT
ATOM      1  N   UNL     1       3.738   5.850  17.642  0.00  0.00    +0.000 N 
ATOM      2  C   UNL     1       5.105   6.041  17.810  0.00  0.00    +0.000 C 
ATOM      3  O   UNL     1       5.745   5.771  18.826  0.00  0.00    +0.000 OA
ATOM      4  H   UNL     1       3.361   5.897  16.698  0.00  0.00    +0.000 HD
ENDROOT
BRANCH   1  10
ATOM      5  C   UNL     1       2.188   4.184  18.638  0.00  0.00    +0.000 A 
ATOM      6  C   UNL     1       1.304   3.837  19.687  0.00  0.00    +0.000 A 
ATOM      7  C   UNL     1       1.028   4.721  20.727  0.00  0.00    +0.000 A 
ATOM      8  C   UNL     1       1.614   5.975  20.726  0.00  0.00    +0.000 A 
ATOM      9  C   UNL     1       2.489   6.333  19.697  0.00  0.00    +0.000 A 
ATOM     10  C   UNL     1       2.817   5.450  18.653  0.00  0.00    +0.000 A 
BRANCH   5  11
ATOM     11  C   UNL     1       2.382   3.108  17.619  0.00  0.00    +0.000 C 
ATOM     12  O   UNL     1       2.500   3.344  16.423  0.00  0.00    +0.000 OA
BRANCH  11  14
ATOM     13  C   UNL     1       3.739   1.389  18.396  0.00  0.00    +0.000 C 
ATOM     14  O   UNL     1       2.408   1.862  18.160  0.00  0.00    +0.000 OA
ENDBRANCH  11  14
ENDBRANCH   5  11
ENDBRANCH   1  10
BRANCH   2  15
ATOM     15  C   UNL     1       5.824   6.607  16.581  0.00  0.00    +0.000 C 
BRANCH  15  16
ATOM     16  O   UNL     1       7.222   6.299  16.598  0.00  0.00    +0.000 OA
BRANCH  16  17
ATOM     17  C   UNL     1       7.512   4.995  16.308  0.00  0.00    +0.000 C 
ATOM     18  O   UNL     1       8.034   4.221  17.103  0.00  0.00    +0.000 OA
BRANCH  17  19
ATOM     19  C   UNL     1       7.145   4.670  14.948  0.00  0.00    +0.000 A 
ATOM     20  C   UNL     1       6.210   3.772  14.460  0.00  0.00    +0.000 A 
ATOM     21  C   UNL     1       6.241   3.868  13.048  0.00  0.00    +0.000 A 
ATOM     22  C   UNL     1       7.192   4.815  12.754  0.00  0.00    +0.000 A 
ATOM     23  O   UNL     1       7.752   5.302  13.893  0.00  0.00    +0.000 OA
ENDBRANCH  17  19
ENDBRANCH  16  17
ENDBRANCH  15  16
ENDBRANCH   2  15
TORSDOF 7
ENDMDL
