MODEL 1
REMARK VINA RESULT:      -7.1      0.000      0.000
REMARK  Name = 
REMARK  6 active torsions:
REMARK  status: ('A' for Active; 'I' for Inactive)
REMARK    1  A    between atoms: C_1  and  N_2
REMARK    2  A    between atoms: C_3  and  C_5
REMARK    3  A    between atoms: N_10  and  C_11
REMARK    4  A    between atoms: C_11  and  C_12
REMARK    5  A    between atoms: C_14  and  O_15
REMARK    6  A    between atoms: O_15  and  C_16
REMARK                            x       y       z     vdW  Elec       q    Type
REMARK                         _______ _______ _______ _____ _____    ______ ____
ROOT
ATOM      1  C   UNL     1       2.016   3.778  19.237  0.00  0.00    +0.000 C 
ATOM      2  C   UNL     1       1.094   3.996  20.446  0.00  0.00    +0.000 C 
ATOM      3  C   UNL     1       1.143   2.821  21.411  0.00  0.00    +0.000 C 
ATOM      4  C   UNL     1       2.584   2.532  21.803  0.00  0.00    +0.000 C 
ATOM      5  C   UNL     1       3.473   2.352  20.571  0.00  0.00    +0.000 C 
ATOM      6  N   UNL     1       3.432   3.525  19.668  0.00  0.00    +0.000 NA
ENDROOT
BRANCH   1   9
ATOM      7  C   UNL     1       2.533   7.411  18.184  0.00  0.00    +0.000 C 
ATOM      8  N   UNL     1       2.462   6.173  18.912  0.00  0.00    +0.000 N 
ATOM      9  C   UNL     1       1.905   5.039  18.357  0.00  0.00    +0.000 C 
ATOM     10  O   UNL     1       1.325   5.038  17.274  0.00  0.00    +0.000 OA
ATOM     11  H   UNL     1       2.997   6.036  19.764  0.00  0.00    +0.000 HD
ENDBRANCH   1   9
BRANCH   6  12
ATOM     12  C   UNL     1       4.281   3.240  18.473  0.00  0.00    +0.000 C 
BRANCH  12  13
ATOM     13  C   UNL     1       5.389   4.248  18.219  0.00  0.00    +0.000 A 
ATOM     14  C   UNL     1       5.820   4.488  16.915  0.00  0.00    +0.000 A 
ATOM     15  C   UNL     1       6.928   5.303  16.707  0.00  0.00    +0.000 A 
ATOM     16  C   UNL     1       7.546   5.887  17.804  0.00  0.00    +0.000 A 
ATOM     17  C   UNL     1       7.038   5.631  19.064  0.00  0.00    +0.000 A 
ATOM     18  N   UNL     1       5.982   4.821  19.295  0.00  0.00    +0.000 NA
BRANCH  15  19
ATOM     19  O   UNL     1       7.499   5.578  15.494  0.00  0.00    +0.000 OA
ATOM     20  C   UNL     1       6.962   4.887  14.371  0.00  0.00    +0.000 C 
ENDBRANCH  15  19
ENDBRANCH  12  13
ENDBRANCH   6  12
TORSDOF 4
ENDMDL
MODEL 2
REMARK VINA RESULT:      -7.0      1.894      2.308
REMARK  Name = 
REMARK  6 active torsions:
REMARK  status: ('A' for Active; 'I' for Inactive)
REMARK    1  A    between atoms: C_1  and  N_2
REMARK    2  A    between atoms: C_3  and  C_5
REMARK    3  A    between atoms: N_10  and  C_11
REMARK    4  A    between atoms: C_11  and  C_12
REMARK    5  A    between atoms: C_14  and  O_15
REMARK    6  A    between atoms: O_15  and  C_16
REMARK                            x       y       z     vdW  Elec       q    Type
REMARK                         _______ _______ _______ _____ _____    ______ ____
ROOT
ATOM      1  C   UNL     1       2.294   4.649  18.274  0.00  0.00    +0.000 C 
ATOM      2  C   UNL     1       1.284   4.019  19.245  0.00  0.00    +0.000 C 
ATOM      3  C   UNL     1       1.013   2.561  18.909  0.00  0.00    +0.000 C 
ATOM      4  C   UNL     1       2.324   1.795  18.830  0.00  0.00    +0.000 C 
ATOM      5  C   UNL     1       3.312   2.472  17.877  0.00  0.00    +0.000 C 
ATOM      6  N   UNL     1       3.583   3.879  18.249  0.00  0.00    +0.000 NA
ENDROOT
BRANCH   1   9
ATOM      7  C   UNL     1       2.312   8.461  18.058  0.00  0.00    +0.000 C 
ATOM      8  N   UNL     1       2.255   7.054  17.766  0.00  0.00    +0.000 N 
ATOM      9  C   UNL     1       2.510   6.105  18.735  0.00  0.00    +0.000 C 
ATOM     10  O   UNL     1       2.921   6.387  19.858  0.00  0.00    +0.000 OA
ATOM     11  H   UNL     1       1.829   6.714  16.909  0.00  0.00    +0.000 HD
ENDBRANCH   1   9
BRANCH   6  12
ATOM     12  C   UNL     1       4.507   4.473  17.239  0.00  0.00    +0.000 C 
BRANCH  12  13
ATOM     13  C   UNL     1       5.672   5.258  17.818  0.00  0.00    +0.000 A 
ATOM     14  C   UNL     1       6.105   6.423  17.185  0.00  0.00    +0.000 A 
ATOM     15  C   UNL     1       7.258   7.053  17.641  0.00  0.00    +0.000 A 
ATOM     16  C   UNL     1       7.920   6.526  18.741  0.00  0.00    +0.000 A 
ATOM     17  C   UNL     1       7.408   5.389  19.339  0.00  0.00    +0.000 A 
ATOM     18  N   UNL     1       6.308   4.741  18.898  0.00  0.00    +0.000 NA
BRANCH  15  19
ATOM     19  O   UNL     1       7.833   8.163  17.084  0.00  0.00    +0.000 OA
ATOM     20  C   UNL     1       8.251   9.180  17.987  0.00  0.00    +0.000 C 
ENDBRANCH  15  19
ENDBRANCH  12  13
ENDBRANCH   6  12
TORSDOF 4
ENDMDL
MODEL 3
REMARK VINA RESULT:      -6.7      2.429      5.520
REMARK  Name = 
REMARK  6 active torsions:
REMARK  status: ('A' for Active; 'I' for Inactive)
REMARK    1  A    between atoms: C_1  and  N_2
REMARK    2  A    between atoms: C_3  and  C_5
REMARK    3  A    between atoms: N_10  and  C_11
REMARK    4  A    between atoms: C_11  and  C_12
REMARK    5  A    between atoms: C_14  and  O_15
REMARK    6  A    between atoms: O_15  and  C_16
REMARK                            x       y       z     vdW  Elec       q    Type
REMARK                         _______ _______ _______ _____ _____    ______ ____
ROOT
ATOM      1  C   UNL     1       3.840   3.723  18.596  0.00  0.00    +0.000 C 
ATOM      2  C   UNL     1       3.361   2.493  17.810  0.00  0.00    +0.000 C 
ATOM      3  C   UNL     1       2.192   1.805  18.498  0.00  0.00    +0.000 C 
ATOM      4  C   UNL     1       1.084   2.810  18.769  0.00  0.00    +0.000 C 
ATOM      5  C   UNL     1       1.609   4.032  19.525  0.00  0.00    +0.000 C 
ATOM      6  N   UNL     1       2.722   4.702  18.815  0.00  0.00    +0.000 NA
ENDROOT
BRANCH   1   9
ATOM      7  C   UNL     1       7.436   4.622  17.682  0.00  0.00    +0.000 C 
ATOM      8  N   UNL     1       6.242   4.186  18.354  0.00  0.00    +0.000 N 
ATOM      9  C   UNL     1       4.994   4.349  17.788  0.00  0.00    +0.000 C 
ATOM     10  O   UNL     1       4.806   4.981  16.750  0.00  0.00    +0.000 OA
ATOM     11  H   UNL     1       6.290   3.567  19.157  0.00  0.00    +0.000 HD
ENDBRANCH   1   9
BRANCH   6  12
ATOM     12  C   UNL     1       3.205   5.843  19.647  0.00  0.00    +0.000 C 
BRANCH  12  13
ATOM     13  C   UNL     1       2.575   7.187  19.322  0.00  0.00    +0.000 A 
ATOM     14  C   UNL     1       1.788   7.831  20.275  0.00  0.00    +0.000 A 
ATOM     15  C   UNL     1       1.102   8.988  19.917  0.00  0.00    +0.000 A 
ATOM     16  C   UNL     1       1.256   9.488  18.632  0.00  0.00    +0.000 A 
ATOM     17  C   UNL     1       2.084   8.813  17.754  0.00  0.00    +0.000 A 
ATOM     18  N   UNL     1       2.738   7.673  18.067  0.00  0.00    +0.000 NA
BRANCH  15  19
ATOM     19  O   UNL     1       0.249   9.690  20.724  0.00  0.00    +0.000 OA
ATOM     20  C   UNL     1      -0.096   9.080  21.964  0.00  0.00    +0.000 C 
ENDBRANCH  15  19
ENDBRANCH  12  13
ENDBRANCH   6  12
TORSDOF 4
ENDMDL
MODEL 4
REMARK VINA RESULT:      -6.7      2.582      4.462
REMARK  Name = 
REMARK  6 active torsions:
REMARK  status: ('A' for Active; 'I' for Inactive)
REMARK    1  A    between atoms: C_1  and  N_2
REMARK    2  A    between atoms: C_3  and  C_5
REMARK    3  A    between atoms: N_10  and  C_11
REMARK    4  A    between atoms: C_11  and  C_12
REMARK    5  A    between atoms: C_14  and  O_15
REMARK    6  A    between atoms: O_15  and  C_16
REMARK                            x       y       z     vdW  Elec       q    Type
REMARK                         _______ _______ _______ _____ _____    ______ ____
ROOT
ATOM      1  C   UNL     1       3.750   4.890  17.977  0.00  0.00    +0.000 C 
ATOM      2  C   UNL     1       2.448   5.643  18.290  0.00  0.00    +0.000 C 
ATOM      3  C   UNL     1       2.699   7.123  18.535  0.00  0.00    +0.000 C 
ATOM      4  C   UNL     1       3.469   7.719  17.368  0.00  0.00    +0.000 C 
ATOM      5  C   UNL     1       4.740   6.923  17.070  0.00  0.00    +0.000 C 
ATOM      6  N   UNL     1       4.462   5.493  16.800  0.00  0.00    +0.000 NA
ENDROOT
BRANCH   1   9
ATOM      7  C   UNL     1       3.779   1.096  18.407  0.00  0.00    +0.000 C 
ATOM      8  N   UNL     1       4.080   2.502  18.457  0.00  0.00    +0.000 N 
ATOM      9  C   UNL     1       3.364   3.420  17.716  0.00  0.00    +0.000 C 
ATOM     10  O   UNL     1       2.523   3.097  16.880  0.00  0.00    +0.000 OA
ATOM     11  H   UNL     1       4.679   2.883  19.182  0.00  0.00    +0.000 HD
ENDBRANCH   1   9
BRANCH   6  12
ATOM     12  C   UNL     1       5.757   4.787  16.576  0.00  0.00    +0.000 C 
BRANCH  12  13
ATOM     13  C   UNL     1       6.195   4.693  15.124  0.00  0.00    +0.000 A 
ATOM     14  C   UNL     1       5.512   3.850  14.248  0.00  0.00    +0.000 A 
ATOM     15  C   UNL     1       6.008   3.665  12.962  0.00  0.00    +0.000 A 
ATOM     16  C   UNL     1       7.145   4.359  12.576  0.00  0.00    +0.000 A 
ATOM     17  C   UNL     1       7.746   5.206  13.489  0.00  0.00    +0.000 A 
ATOM     18  N   UNL     1       7.302   5.382  14.752  0.00  0.00    +0.000 NA
BRANCH  15  19
ATOM     19  O   UNL     1       5.481   2.826  12.018  0.00  0.00    +0.000 OA
ATOM     20  C   UNL     1       4.267   3.246  11.404  0.00  0.00    +0.000 C 
ENDBRANCH  15  19
ENDBRANCH  12  13
ENDBRANCH   6  12
TORSDOF 4
ENDMDL
MODEL 5
REMARK VINA RESULT:      -6.7      2.700      4.625
REMARK  Name = 
REMARK  6 active torsions:
REMARK  status: ('A' for Active; 'I' for Inactive)
REMARK    1  A    between atoms: C_1  and  N_2
REMARK    2  A    between atoms: C_3  and  C_5
REMARK    3  A    between atoms: N_10  and  C_11
REMARK    4  A    between atoms: C_11  and  C_12
REMARK    5  A    between atoms: C_14  and  O_15
REMARK    6  A    between atoms: O_15  and  C_16
REMARK                            x       y       z     vdW  Elec       q    Type
REMARK                         _______ _______ _______ _____ _____    ______ ____
ROOT
ATOM      1  C   UNL     1       4.630   5.079  18.437  0.00  0.00    +0.000 C 
ATOM      2  C   UNL     1       3.285   5.688  18.863  0.00  0.00    +0.000 C 
ATOM      3  C   UNL     1       3.193   7.161  18.495  0.00  0.00    +0.000 C 
ATOM      4  C   UNL     1       3.491   7.346  17.016  0.00  0.00    +0.000 C 
ATOM      5  C   UNL     1       4.821   6.700  16.627  0.00  0.00    +0.000 C 
ATOM      6  N   UNL     1       4.870   5.259  16.965  0.00  0.00    +0.000 NA
ENDROOT
BRANCH   1   9
ATOM      7  C   UNL     1       3.496   1.433  18.369  0.00  0.00    +0.000 C 
ATOM      8  N   UNL     1       3.608   2.857  18.192  0.00  0.00    +0.000 N 
ATOM      9  C   UNL     1       4.590   3.588  18.829  0.00  0.00    +0.000 C 
ATOM     10  O   UNL     1       5.342   3.108  19.674  0.00  0.00    +0.000 OA
ATOM     11  H   UNL     1       3.111   3.332  17.446  0.00  0.00    +0.000 HD
ENDBRANCH   1   9
BRANCH   6  12
ATOM     12  C   UNL     1       6.217   4.726  16.604  0.00  0.00    +0.000 C 
BRANCH  12  13
ATOM     13  C   UNL     1       6.503   4.663  15.112  0.00  0.00    +0.000 A 
ATOM     14  C   UNL     1       5.770   3.796  14.303  0.00  0.00    +0.000 A 
ATOM     15  C   UNL     1       6.136   3.643  12.970  0.00  0.00    +0.000 A 
ATOM     16  C   UNL     1       7.194   4.390  12.475  0.00  0.00    +0.000 A 
ATOM     17  C   UNL     1       7.850   5.257  13.330  0.00  0.00    +0.000 A 
ATOM     18  N   UNL     1       7.533   5.403  14.635  0.00  0.00    +0.000 NA
BRANCH  15  19
ATOM     19  O   UNL     1       5.550   2.788  12.077  0.00  0.00    +0.000 OA
ATOM     20  C   UNL     1       4.349   3.240  11.461  0.00  0.00    +0.000 C 
ENDBRANCH  15  19
ENDBRANCH  12  13
ENDBRANCH   6  12
TORSDOF 4
ENDMDL
MODEL 6
REMARK VINA RESULT:      -6.7      2.048      6.106
REMARK  Name = 
REMARK  6 active torsions:
REMARK  status: ('A' for Active; 'I' for Inactive)
REMARK    1  A    between atoms: C_1  and  N_2
REMARK    2  A    between atoms: C_3  and  C_5
REMARK    3  A    between atoms: N_10  and  C_11
REMARK    4  A    between atoms: C_11  and  C_12
REMARK    5  A    between atoms: C_14  and  O_15
REMARK    6  A    between atoms: O_15  and  C_16
REMARK                            x       y       z     vdW  Elec       q    Type
REMARK                         _______ _______ _______ _____ _____    ______ ____
ROOT
ATOM      1  C   UNL     1       7.014   5.157  17.054  0.00  0.00    +0.000 C 
ATOM      2  C   UNL     1       7.249   5.472  15.568  0.00  0.00    +0.000 C 
ATOM      3  C   UNL     1       6.699   4.377  14.667  0.00  0.00    +0.000 C 
ATOM      4  C   UNL     1       5.238   4.117  14.999  0.00  0.00    +0.000 C 
ATOM      5  C   UNL     1       5.044   3.840  16.491  0.00  0.00    +0.000 C 
ATOM      6  N   UNL     1       5.557   4.937  17.342  0.00  0.00    +0.000 NA
ENDROOT
BRANCH   1   9
ATOM      7  C   UNL     1       7.961   8.775  17.824  0.00  0.00    +0.000 C 
ATOM      8  N   UNL     1       7.562   7.550  17.185  0.00  0.00    +0.000 N 
ATOM      9  C   UNL     1       7.580   6.345  17.857  0.00  0.00    +0.000 C 
ATOM     10  O   UNL     1       8.051   6.214  18.985  0.00  0.00    +0.000 OA
ATOM     11  H   UNL     1       7.064   7.560  16.301  0.00  0.00    +0.000 HD
ENDBRANCH   1   9
BRANCH   6  12
ATOM     12  C   UNL     1       5.377   4.557  18.774  0.00  0.00    +0.000 C 
BRANCH  12  13
ATOM     13  C   UNL     1       4.066   5.007  19.398  0.00  0.00    +0.000 A 
ATOM     14  C   UNL     1       3.262   4.082  20.063  0.00  0.00    +0.000 A 
ATOM     15  C   UNL     1       2.002   4.474  20.504  0.00  0.00    +0.000 A 
ATOM     16  C   UNL     1       1.601   5.787  20.306  0.00  0.00    +0.000 A 
ATOM     17  C   UNL     1       2.470   6.656  19.671  0.00  0.00    +0.000 A 
ATOM     18  N   UNL     1       3.686   6.295  19.208  0.00  0.00    +0.000 NA
BRANCH  15  19
ATOM     19  O   UNL     1       1.085   3.663  21.113  0.00  0.00    +0.000 OA
ATOM     20  C   UNL     1       1.589   2.473  21.711  0.00  0.00    +0.000 C 
ENDBRANCH  15  19
ENDBRANCH  12  13
ENDBRANCH   6  12
TORSDOF 4
ENDMDL
MODEL 7
REMARK VINA RESULT:      -6.6      1.770      2.401
REMARK  Name = 
REMARK  6 active torsions:
REMARK  status: ('A' for Active; 'I' for Inactive)
REMARK    1  A    between atoms: C_1  and  N_2
REMARK    2  A    between atoms: C_3  and  C_5
REMARK    3  A    between atoms: N_10  and  C_11
REMARK    4  A    between atoms: C_11  and  C_12
REMARK    5  A    between atoms: C_14  and  O_15
REMARK    6  A    between atoms: O_15  and  C_16
REMARK                            x       y       z     vdW  Elec       q    Type
REMARK                         _______ _______ _______ _____ _____    ______ ____
ROOT
ATOM      1  C   UNL     1       2.044   4.829  18.985  0.00  0.00    +0.000 C 
ATOM      2  C   UNL     1       1.630   4.680  20.457  0.00  0.00    +0.000 C 
ATOM      3  C   UNL     1       0.970   3.336  20.723  0.00  0.00    +0.000 C 
ATOM      4  C   UNL     1       1.872   2.211  20.239  0.00  0.00    +0.000 C 
ATOM      5  C   UNL     1       2.286   2.413  18.780  0.00  0.00    +0.000 C 
ATOM      6  N   UNL     1       2.956   3.715  18.558  0.00  0.00    +0.000 NA
ENDROOT
BRANCH   1   9
ATOM      7  C   UNL     1       2.530   8.436  17.830  0.00  0.00    +0.000 C 
ATOM      8  N   UNL     1       2.083   7.079  17.995  0.00  0.00    +0.000 N 
ATOM      9  C   UNL     1       2.725   6.206  18.849  0.00  0.00    +0.000 C 
ATOM     10  O   UNL     1       3.779   6.479  19.419  0.00  0.00    +0.000 OA
ATOM     11  H   UNL     1       1.173   6.783  17.656  0.00  0.00    +0.000 HD
ENDBRANCH   1   9
BRANCH   6  12
ATOM     12  C   UNL     1       3.272   3.849  17.105  0.00  0.00    +0.000 C 
BRANCH  12  13
ATOM     13  C   UNL     1       4.742   4.069  16.786  0.00  0.00    +0.000 A 
ATOM     14  C   UNL     1       5.669   4.161  17.823  0.00  0.00    +0.000 A 
ATOM     15  C   UNL     1       6.984   4.504  17.527  0.00  0.00    +0.000 A 
ATOM     16  C   UNL     1       7.343   4.703  16.202  0.00  0.00    +0.000 A 
ATOM     17  C   UNL     1       6.375   4.558  15.225  0.00  0.00    +0.000 A 
ATOM     18  N   UNL     1       5.086   4.254  15.488  0.00  0.00    +0.000 NA
BRANCH  15  19
ATOM     19  O   UNL     1       7.984   4.689  18.443  0.00  0.00    +0.000 OA
ATOM     20  C   UNL     1       7.857   5.818  19.301  0.00  0.00    +0.000 C 
ENDBRANCH  15  19
ENDBRANCH  12  13
ENDBRANCH   6  12
TORSDOF 4
ENDMDL
MODEL 8
REMARK VINA RESULT:      -6.6      2.033      5.981
REMARK  Name = 
REMARK  6 active torsions:
REMARK  status: ('A' for Active; 'I' for Inactive)
REMARK    1  A    between atoms: C_1  and  N_2
REMARK    2  A    between atoms: C_3  and  C_5
REMARK    3  A    between atoms: N_10  and  C_11
REMARK    4  A    between atoms: C_11  and  C_12
REMARK    5  A    between atoms: C_14  and  O_15
REMARK    6  A    between atoms: O_15  and  C_16
REMARK                            x       y       z     vdW  Elec       q    Type
REMARK                         _______ _______ _______ _____ _____    ______ ____
ROOT
ATOM      1  C   UNL     1       6.958   5.060  17.154  0.00  0.00    +0.000 C 
ATOM      2  C   UNL     1       7.141   5.370  15.661  0.00  0.00    +0.000 C 
ATOM      3  C   UNL     1       6.546   4.280  14.783  0.00  0.00    +0.000 C 
ATOM      4  C   UNL     1       5.096   4.036  15.170  0.00  0.00    +0.000 C 
ATOM      5  C   UNL     1       4.954   3.763  16.668  0.00  0.00    +0.000 C 
ATOM      6  N   UNL     1       5.510   4.856  17.498  0.00  0.00    +0.000 NA
ENDROOT
BRANCH   1   9
ATOM      7  C   UNL     1       7.982   8.667  17.876  0.00  0.00    +0.000 C 
ATOM      8  N   UNL     1       7.544   7.445  17.256  0.00  0.00    +0.000 N 
ATOM      9  C   UNL     1       7.566   6.243  17.934  0.00  0.00    +0.000 C 
ATOM     10  O   UNL     1       8.070   6.111  19.047  0.00  0.00    +0.000 OA
ATOM     11  H   UNL     1       7.019   7.458  16.388  0.00  0.00    +0.000 HD
ENDBRANCH   1   9
BRANCH   6  12
ATOM     12  C   UNL     1       5.380   4.480  18.936  0.00  0.00    +0.000 C 
BRANCH  12  13
ATOM     13  C   UNL     1       3.957   4.461  19.468  0.00  0.00    +0.000 A 
ATOM     14  C   UNL     1       3.307   5.661  19.751  0.00  0.00    +0.000 A 
ATOM     15  C   UNL     1       2.062   5.628  20.370  0.00  0.00    +0.000 A 
ATOM     16  C   UNL     1       1.484   4.397  20.649  0.00  0.00    +0.000 A 
ATOM     17  C   UNL     1       2.175   3.249  20.304  0.00  0.00    +0.000 A 
ATOM     18  N   UNL     1       3.397   3.254  19.729  0.00  0.00    +0.000 NA
BRANCH  15  19
ATOM     19  O   UNL     1       1.337   6.720  20.761  0.00  0.00    +0.000 OA
ATOM     20  C   UNL     1       1.756   7.978  20.241  0.00  0.00    +0.000 C 
ENDBRANCH  15  19
ENDBRANCH  12  13
ENDBRANCH   6  12
TORSDOF 4
ENDMDL
MODEL 9
REMARK VINA RESULT:      -6.6      2.044      5.774
REMARK  Name = 
REMARK  6 active torsions:
REMARK  status: ('A' for Active; 'I' for Inactive)
REMARK    1  A    between atoms: C_1  and  N_2
REMARK    2  A    between atoms: C_3  and  C_5
REMARK    3  A    between atoms: N_10  and  C_11
REMARK    4  A    between atoms: C_11  and  C_12
REMARK    5  A    between atoms: C_14  and  O_15
REMARK    6  A    between atoms: O_15  and  C_16
REMARK                            x       y       z     vdW  Elec       q    Type
REMARK                         _______ _______ _______ _____ _____    ______ ____
ROOT
ATOM      1  C   UNL     1       6.883   5.021  16.970  0.00  0.00    +0.000 C 
ATOM      2  C   UNL     1       7.189   5.314  15.493  0.00  0.00    +0.000 C 
ATOM      3  C   UNL     1       6.615   4.244  14.576  0.00  0.00    +0.000 C 
ATOM      4  C   UNL     1       5.132   4.063  14.855  0.00  0.00    +0.000 C 
ATOM      5  C   UNL     1       4.868   3.804  16.339  0.00  0.00    +0.000 C 
ATOM      6  N   UNL     1       5.407   4.878  17.205  0.00  0.00    +0.000 NA
ENDROOT
BRANCH   1   9
ATOM      7  C   UNL     1       7.926   8.602  17.789  0.00  0.00    +0.000 C 
ATOM      8  N   UNL     1       7.494   7.396  17.133  0.00  0.00    +0.000 N 
ATOM      9  C   UNL     1       7.480   6.182  17.789  0.00  0.00    +0.000 C 
ATOM     10  O   UNL     1       7.948   6.023  18.915  0.00  0.00    +0.000 OA
ATOM     11  H   UNL     1       6.996   7.431  16.249  0.00  0.00    +0.000 HD
ENDBRANCH   1   9
BRANCH   6  12
ATOM     12  C   UNL     1       5.155   4.517  18.631  0.00  0.00    +0.000 C 
BRANCH  12  13
ATOM     13  C   UNL     1       3.885   5.102  19.227  0.00  0.00    +0.000 A 
ATOM     14  C   UNL     1       3.430   6.349  18.799  0.00  0.00    +0.000 A 
ATOM     15  C   UNL     1       2.351   6.936  19.452  0.00  0.00    +0.000 A 
ATOM     16  C   UNL     1       1.732   6.243  20.481  0.00  0.00    +0.000 A 
ATOM     17  C   UNL     1       2.218   4.994  20.824  0.00  0.00    +0.000 A 
ATOM     18  N   UNL     1       3.281   4.414  20.227  0.00  0.00    +0.000 NA
BRANCH  15  19
ATOM     19  O   UNL     1       1.836   8.175  19.183  0.00  0.00    +0.000 OA
ATOM     20  C   UNL     1       2.232   8.772  17.952  0.00  0.00    +0.000 C 
ENDBRANCH  15  19
ENDBRANCH  12  13
ENDBRANCH   6  12
TORSDOF 4
ENDMDL
