MODEL 1
REMARK VINA RESULT:      -8.4      0.000      0.000
REMARK  Name = 
REMARK  8 active torsions:
REMARK  status: ('A' for Active; 'I' for Inactive)
REMARK    1  A    between atoms: C_1  and  O_2
REMARK    2  A    between atoms: O_2  and  C_3
REMARK    3  A    between atoms: C_5  and  O_6
REMARK    4  A    between atoms: O_6  and  C_7
REMARK    5  A    between atoms: C_12  and  C_13
REMARK    6  A    between atoms: N_15  and  C_16
REMARK    7  A    between atoms: C_19  and  S_20
REMARK    8  A    between atoms: S_20  and  C_23
REMARK                            x       y       z     vdW  Elec       q    Type
REMARK                         _______ _______ _______ _____ _____    ______ ____
ROOT
ATOM      1  C   UNL     1       0.626   9.846  19.902  0.00  0.00    +0.000 C 
ATOM      2  O   UNL     1       0.130   9.804  18.778  0.00  0.00    +0.000 OA
ATOM      3  N   UNL     1       1.345   8.840  20.519  0.00  0.00    +0.000 N 
ATOM      4  H   UNL     1       1.499   8.908  21.517  0.00  0.00    +0.000 HD
ENDROOT
BRANCH   1  12
ATOM      5  C   UNL     1      -2.860  13.011  23.827  0.00  0.00    +0.000 A 
ATOM      6  C   UNL     1      -2.119  14.186  23.887  0.00  0.00    +0.000 A 
ATOM      7  C   UNL     1      -0.930  14.380  23.146  0.00  0.00    +0.000 A 
ATOM      8  C   UNL     1      -0.480  13.345  22.303  0.00  0.00    +0.000 A 
ATOM      9  C   UNL     1       0.721  13.380  21.394  0.00  0.00    +0.000 A 
ATOM     10  O   UNL     1       1.427  14.358  21.186  0.00  0.00    +0.000 OA
ATOM     11  C   UNL     1       1.100  12.169  20.634  0.00  0.00    +0.000 A 
ATOM     12  C   UNL     1       0.350  11.071  20.738  0.00  0.00    +0.000 A 
ATOM     13  N   UNL     1      -0.776  11.028  21.524  0.00  0.00    +0.000 N 
ATOM     14  C   UNL     1      -1.234  12.137  22.253  0.00  0.00    +0.000 A 
ATOM     15  C   UNL     1      -2.405  11.986  23.011  0.00  0.00    +0.000 A 
ATOM     16  H   UNL     1      -1.405  10.248  21.337  0.00  0.00    +0.000 HD
BRANCH   5  18
ATOM     17  C   UNL     1      -5.233  13.125  23.872  0.00  0.00    +0.000 C 
ATOM     18  O   UNL     1      -4.015  12.754  24.512  0.00  0.00    +0.000 OA
ENDBRANCH   5  18
BRANCH   7  19
ATOM     19  O   UNL     1      -0.451  15.623  23.447  0.00  0.00    +0.000 OA
ATOM     20  C   UNL     1      -1.140  16.815  23.144  0.00  0.00    +0.000 C 
ENDBRANCH   7  19
ENDBRANCH   1  12
BRANCH   3  21
ATOM     21  C   UNL     1       1.807   7.657  19.905  0.00  0.00    +0.000 A 
ATOM     22  C   UNL     1       2.467   7.651  18.673  0.00  0.00    +0.000 A 
ATOM     23  C   UNL     1       2.919   6.457  18.107  0.00  0.00    +0.000 A 
ATOM     24  C   UNL     1       2.705   5.255  18.778  0.00  0.00    +0.000 A 
ATOM     25  C   UNL     1       2.065   5.239  20.019  0.00  0.00    +0.000 A 
ATOM     26  C   UNL     1       1.621   6.442  20.583  0.00  0.00    +0.000 A 
BRANCH  24  27
ATOM     27  S   UNL     1       3.351   3.756  18.072  0.00  0.00    +0.000 S 
ATOM     28  O   UNL     1       3.681   2.869  19.174  0.00  0.00    +0.000 OA
ATOM     29  O   UNL     1       2.415   3.325  17.047  0.00  0.00    +0.000 OA
BRANCH  27  30
ATOM     30  C   UNL     1       4.870   4.188  17.259  0.00  0.00    +0.000 A 
ATOM     31  C   UNL     1       6.016   4.445  18.018  0.00  0.00    +0.000 A 
ATOM     32  C   UNL     1       7.211   4.758  17.370  0.00  0.00    +0.000 A 
ATOM     33  C   UNL     1       7.260   4.800  15.975  0.00  0.00    +0.000 A 
ATOM     34  C   UNL     1       6.118   4.524  15.223  0.00  0.00    +0.000 A 
ATOM     35  C   UNL     1       4.918   4.212  15.862  0.00  0.00    +0.000 A 
ENDBRANCH  27  30
ENDBRANCH  24  27
ENDBRANCH   3  21
TORSDOF 6
ENDMDL
MODEL 2
REMARK VINA RESULT:      -8.3      2.708     11.489
REMARK  Name = 
REMARK  8 active torsions:
REMARK  status: ('A' for Active; 'I' for Inactive)
REMARK    1  A    between atoms: C_1  and  O_2
REMARK    2  A    between atoms: O_2  and  C_3
REMARK    3  A    between atoms: C_5  and  O_6
REMARK    4  A    between atoms: O_6  and  C_7
REMARK    5  A    between atoms: C_12  and  C_13
REMARK    6  A    between atoms: N_15  and  C_16
REMARK    7  A    between atoms: C_19  and  S_20
REMARK    8  A    between atoms: S_20  and  C_23
REMARK                            x       y       z     vdW  Elec       q    Type
REMARK                         _______ _______ _______ _____ _____    ______ ____
ROOT
ATOM      1  C   UNL     1       1.416   8.867  19.642  0.00  0.00    +0.000 C 
ATOM      2  O   UNL     1       1.076   9.531  18.665  0.00  0.00    +0.000 OA
ATOM      3  N   UNL     1       1.265   9.224  20.968  0.00  0.00    +0.000 N 
ATOM      4  H   UNL     1       1.785   8.703  21.663  0.00  0.00    +0.000 HD
ENDROOT
BRANCH   1  12
ATOM      5  C   UNL     1       5.247   5.436  16.306  0.00  0.00    +0.000 A 
ATOM      6  C   UNL     1       5.158   4.244  17.018  0.00  0.00    +0.000 A 
ATOM      7  C   UNL     1       4.332   4.093  18.156  0.00  0.00    +0.000 A 
ATOM      8  C   UNL     1       3.559   5.190  18.584  0.00  0.00    +0.000 A 
ATOM      9  C   UNL     1       2.580   5.211  19.728  0.00  0.00    +0.000 A 
ATOM     10  O   UNL     1       2.243   4.241  20.394  0.00  0.00    +0.000 OA
ATOM     11  C   UNL     1       1.908   6.477  20.095  0.00  0.00    +0.000 A 
ATOM     12  C   UNL     1       2.154   7.577  19.382  0.00  0.00    +0.000 A 
ATOM     13  N   UNL     1       3.008   7.573  18.306  0.00  0.00    +0.000 N 
ATOM     14  C   UNL     1       3.662   6.413  17.861  0.00  0.00    +0.000 A 
ATOM     15  C   UNL     1       4.500   6.521  16.740  0.00  0.00    +0.000 A 
ATOM     16  H   UNL     1       2.929   8.381  17.688  0.00  0.00    +0.000 HD
BRANCH   5  18
ATOM     17  C   UNL     1       6.454   4.502  14.486  0.00  0.00    +0.000 C 
ATOM     18  O   UNL     1       6.021   5.656  15.201  0.00  0.00    +0.000 OA
ENDBRANCH   5  18
BRANCH   7  19
ATOM     19  O   UNL     1       4.492   2.818  18.619  0.00  0.00    +0.000 OA
ATOM     20  C   UNL     1       3.589   1.771  18.338  0.00  0.00    +0.000 C 
ENDBRANCH   7  19
ENDBRANCH   1  12
BRANCH   3  21
ATOM     21  C   UNL     1       0.525  10.324  21.450  0.00  0.00    +0.000 A 
ATOM     22  C   UNL     1      -0.473  10.198  22.420  0.00  0.00    +0.000 A 
ATOM     23  C   UNL     1      -1.172  11.317  22.879  0.00  0.00    +0.000 A 
ATOM     24  C   UNL     1      -0.873  12.574  22.358  0.00  0.00    +0.000 A 
ATOM     25  C   UNL     1       0.134  12.726  21.402  0.00  0.00    +0.000 A 
ATOM     26  C   UNL     1       0.835  11.600  20.953  0.00  0.00    +0.000 A 
BRANCH  24  27
ATOM     27  S   UNL     1      -1.727  13.993  23.007  0.00  0.00    +0.000 S 
ATOM     28  O   UNL     1      -1.143  14.291  24.303  0.00  0.00    +0.000 OA
ATOM     29  O   UNL     1      -1.736  15.005  21.962  0.00  0.00    +0.000 OA
BRANCH  27  30
ATOM     30  C   UNL     1      -3.410  13.495  23.279  0.00  0.00    +0.000 A 
ATOM     31  C   UNL     1      -3.781  12.941  24.508  0.00  0.00    +0.000 A 
ATOM     32  C   UNL     1      -5.110  12.576  24.723  0.00  0.00    +0.000 A 
ATOM     33  C   UNL     1      -6.061  12.777  23.720  0.00  0.00    +0.000 A 
ATOM     34  C   UNL     1      -5.690  13.349  22.503  0.00  0.00    +0.000 A 
ATOM     35  C   UNL     1      -4.362  13.714  22.279  0.00  0.00    +0.000 A 
ENDBRANCH  27  30
ENDBRANCH  24  27
ENDBRANCH   3  21
TORSDOF 6
ENDMDL
MODEL 3
REMARK VINA RESULT:      -8.3      2.804     11.394
REMARK  Name = 
REMARK  8 active torsions:
REMARK  status: ('A' for Active; 'I' for Inactive)
REMARK    1  A    between atoms: C_1  and  O_2
REMARK    2  A    between atoms: O_2  and  C_3
REMARK    3  A    between atoms: C_5  and  O_6
REMARK    4  A    between atoms: O_6  and  C_7
REMARK    5  A    between atoms: C_12  and  C_13
REMARK    6  A    between atoms: N_15  and  C_16
REMARK    7  A    between atoms: C_19  and  S_20
REMARK    8  A    between atoms: S_20  and  C_23
REMARK                            x       y       z     vdW  Elec       q    Type
REMARK                         _______ _______ _______ _____ _____    ______ ____
ROOT
ATOM      1  C   UNL     1       1.135   9.080  19.866  0.00  0.00    +0.000 C 
ATOM      2  O   UNL     1       0.683   9.637  18.868  0.00  0.00    +0.000 OA
ATOM      3  N   UNL     1       1.050   9.536  21.168  0.00  0.00    +0.000 N 
ATOM      4  H   UNL     1       1.653   9.110  21.861  0.00  0.00    +0.000 HD
ENDROOT
BRANCH   1  12
ATOM      5  C   UNL     1       5.059   5.695  16.593  0.00  0.00    +0.000 A 
ATOM      6  C   UNL     1       5.070   4.545  17.376  0.00  0.00    +0.000 A 
ATOM      7  C   UNL     1       4.295   4.413  18.552  0.00  0.00    +0.000 A 
ATOM      8  C   UNL     1       3.470   5.485  18.944  0.00  0.00    +0.000 A 
ATOM      9  C   UNL     1       2.532   5.515  20.122  0.00  0.00    +0.000 A 
ATOM     10  O   UNL     1       2.281   4.569  20.856  0.00  0.00    +0.000 OA
ATOM     11  C   UNL     1       1.794   6.758  20.439  0.00  0.00    +0.000 A 
ATOM     12  C   UNL     1       1.945   7.825  19.655  0.00  0.00    +0.000 A 
ATOM     13  N   UNL     1       2.759   7.808  18.548  0.00  0.00    +0.000 N 
ATOM     14  C   UNL     1       3.469   6.665  18.147  0.00  0.00    +0.000 A 
ATOM     15  C   UNL     1       4.260   6.756  16.991  0.00  0.00    +0.000 A 
ATOM     16  H   UNL     1       2.607   8.570  17.887  0.00  0.00    +0.000 HD
BRANCH   5  18
ATOM     17  C   UNL     1       6.651   4.840  15.051  0.00  0.00    +0.000 C 
ATOM     18  O   UNL     1       5.778   5.894  15.447  0.00  0.00    +0.000 OA
ENDBRANCH   5  18
BRANCH   7  19
ATOM     19  O   UNL     1       4.553   3.181  19.082  0.00  0.00    +0.000 OA
ATOM     20  C   UNL     1       3.744   2.050  18.844  0.00  0.00    +0.000 C 
ENDBRANCH   7  19
ENDBRANCH   1  12
BRANCH   3  21
ATOM     21  C   UNL     1       0.268  10.621  21.616  0.00  0.00    +0.000 A 
ATOM     22  C   UNL     1       0.400  11.913  21.099  0.00  0.00    +0.000 A 
ATOM     23  C   UNL     1      -0.405  12.956  21.562  0.00  0.00    +0.000 A 
ATOM     24  C   UNL     1      -1.349  12.706  22.556  0.00  0.00    +0.000 A 
ATOM     25  C   UNL     1      -1.511  11.419  23.073  0.00  0.00    +0.000 A 
ATOM     26  C   UNL     1      -0.705  10.377  22.598  0.00  0.00    +0.000 A 
BRANCH  24  27
ATOM     27  S   UNL     1      -2.409  14.033  23.080  0.00  0.00    +0.000 S 
ATOM     28  O   UNL     1      -2.228  14.189  24.513  0.00  0.00    +0.000 OA
ATOM     29  O   UNL     1      -2.166  15.157  22.190  0.00  0.00    +0.000 OA
BRANCH  27  30
ATOM     30  C   UNL     1      -4.079  13.490  22.807  0.00  0.00    +0.000 A 
ATOM     31  C   UNL     1      -4.481  13.101  21.525  0.00  0.00    +0.000 A 
ATOM     32  C   UNL     1      -5.787  12.651  21.324  0.00  0.00    +0.000 A 
ATOM     33  C   UNL     1      -6.675  12.580  22.399  0.00  0.00    +0.000 A 
ATOM     34  C   UNL     1      -6.262  12.951  23.679  0.00  0.00    +0.000 A 
ATOM     35  C   UNL     1      -4.960  13.404  23.889  0.00  0.00    +0.000 A 
ENDBRANCH  27  30
ENDBRANCH  24  27
ENDBRANCH   3  21
TORSDOF 6
ENDMDL
MODEL 4
REMARK VINA RESULT:      -8.3      1.577      1.995
REMARK  Name = 
REMARK  8 active torsions:
REMARK  status: ('A' for Active; 'I' for Inactive)
REMARK    1  A    between atoms: C_1  and  O_2
REMARK    2  A    between atoms: O_2  and  C_3
REMARK    3  A    between atoms: C_5  and  O_6
REMARK    4  A    between atoms: O_6  and  C_7
REMARK    5  A    between atoms: C_12  and  C_13
REMARK    6  A    between atoms: N_15  and  C_16
REMARK    7  A    between atoms: C_19  and  S_20
REMARK    8  A    between atoms: S_20  and  C_23
REMARK                            x       y       z     vdW  Elec       q    Type
REMARK                         _______ _______ _______ _____ _____    ______ ____
ROOT
ATOM      1  C   UNL     1       1.018   9.353  20.900  0.00  0.00    +0.000 C 
ATOM      2  O   UNL     1       1.413   8.923  21.982  0.00  0.00    +0.000 OA
ATOM      3  N   UNL     1       1.356   8.866  19.652  0.00  0.00    +0.000 N 
ATOM      4  H   UNL     1       1.150   9.442  18.846  0.00  0.00    +0.000 HD
ENDROOT
BRANCH   1  12
ATOM      5  C   UNL     1      -3.201  12.931  23.541  0.00  0.00    +0.000 A 
ATOM      6  C   UNL     1      -3.323  13.901  22.551  0.00  0.00    +0.000 A 
ATOM      7  C   UNL     1      -2.589  13.858  21.343  0.00  0.00    +0.000 A 
ATOM      8  C   UNL     1      -1.702  12.785  21.126  0.00  0.00    +0.000 A 
ATOM      9  C   UNL     1      -0.881  12.530  19.889  0.00  0.00    +0.000 A 
ATOM     10  O   UNL     1      -0.942  13.174  18.850  0.00  0.00    +0.000 OA
ATOM     11  C   UNL     1       0.065  11.393  19.859  0.00  0.00    +0.000 A 
ATOM     12  C   UNL     1       0.152  10.588  20.918  0.00  0.00    +0.000 A 
ATOM     13  N   UNL     1      -0.619  10.772  22.040  0.00  0.00    +0.000 N 
ATOM     14  C   UNL     1      -1.569  11.800  22.146  0.00  0.00    +0.000 A 
ATOM     15  C   UNL     1      -2.314  11.886  23.333  0.00  0.00    +0.000 A 
ATOM     16  H   UNL     1      -0.662   9.972  22.671  0.00  0.00    +0.000 HD
BRANCH   5  18
ATOM     17  C   UNL     1      -5.153  12.274  24.725  0.00  0.00    +0.000 C 
ATOM     18  O   UNL     1      -3.876  12.907  24.729  0.00  0.00    +0.000 OA
ENDBRANCH   5  18
BRANCH   7  19
ATOM     19  O   UNL     1      -2.930  14.958  20.610  0.00  0.00    +0.000 OA
ATOM     20  C   UNL     1      -2.205  16.168  20.642  0.00  0.00    +0.000 C 
ENDBRANCH   7  19
ENDBRANCH   1  12
BRANCH   3  21
ATOM     21  C   UNL     1       2.063   7.673  19.392  0.00  0.00    +0.000 A 
ATOM     22  C   UNL     1       1.982   6.550  20.219  0.00  0.00    +0.000 A 
ATOM     23  C   UNL     1       2.689   5.384  19.917  0.00  0.00    +0.000 A 
ATOM     24  C   UNL     1       3.491   5.343  18.778  0.00  0.00    +0.000 A 
ATOM     25  C   UNL     1       3.571   6.448  17.927  0.00  0.00    +0.000 A 
ATOM     26  C   UNL     1       2.853   7.610  18.233  0.00  0.00    +0.000 A 
BRANCH  24  27
ATOM     27  S   UNL     1       4.327   3.827  18.376  0.00  0.00    +0.000 S 
ATOM     28  O   UNL     1       5.193   3.503  19.496  0.00  0.00    +0.000 OA
ATOM     29  O   UNL     1       3.314   2.879  17.942  0.00  0.00    +0.000 OA
BRANCH  27  30
ATOM     30  C   UNL     1       5.366   4.172  16.977  0.00  0.00    +0.000 A 
ATOM     31  C   UNL     1       4.849   4.054  15.682  0.00  0.00    +0.000 A 
ATOM     32  C   UNL     1       5.664   4.353  14.590  0.00  0.00    +0.000 A 
ATOM     33  C   UNL     1       6.979   4.778  14.793  0.00  0.00    +0.000 A 
ATOM     34  C   UNL     1       7.482   4.913  16.087  0.00  0.00    +0.000 A 
ATOM     35  C   UNL     1       6.675   4.615  17.185  0.00  0.00    +0.000 A 
ENDBRANCH  27  30
ENDBRANCH  24  27
ENDBRANCH   3  21
TORSDOF 6
ENDMDL
MODEL 5
REMARK VINA RESULT:      -8.3      2.926     11.446
REMARK  Name = 
REMARK  8 active torsions:
REMARK  status: ('A' for Active; 'I' for Inactive)
REMARK    1  A    between atoms: C_1  and  O_2
REMARK    2  A    between atoms: O_2  and  C_3
REMARK    3  A    between atoms: C_5  and  O_6
REMARK    4  A    between atoms: O_6  and  C_7
REMARK    5  A    between atoms: C_12  and  C_13
REMARK    6  A    between atoms: N_15  and  C_16
REMARK    7  A    between atoms: C_19  and  S_20
REMARK    8  A    between atoms: S_20  and  C_23
REMARK                            x       y       z     vdW  Elec       q    Type
REMARK                         _______ _______ _______ _____ _____    ______ ____
ROOT
ATOM      1  C   UNL     1       1.178   9.158  19.926  0.00  0.00    +0.000 C 
ATOM      2  O   UNL     1       1.439  10.052  19.125  0.00  0.00    +0.000 OA
ATOM      3  N   UNL     1       0.367   9.266  21.040  0.00  0.00    +0.000 N 
ATOM      4  H   UNL     1       0.415   8.533  21.737  0.00  0.00    +0.000 HD
ENDROOT
BRANCH   1  12
ATOM      5  C   UNL     1       4.820   5.393  16.742  0.00  0.00    +0.000 A 
ATOM      6  C   UNL     1       4.725   4.260  17.542  0.00  0.00    +0.000 A 
ATOM      7  C   UNL     1       3.931   4.214  18.712  0.00  0.00    +0.000 A 
ATOM      8  C   UNL     1       3.198   5.359  19.081  0.00  0.00    +0.000 A 
ATOM      9  C   UNL     1       2.257   5.489  20.249  0.00  0.00    +0.000 A 
ATOM     10  O   UNL     1       1.919   4.580  20.995  0.00  0.00    +0.000 OA
ATOM     11  C   UNL     1       1.627   6.796  20.541  0.00  0.00    +0.000 A 
ATOM     12  C   UNL     1       1.877   7.834  19.741  0.00  0.00    +0.000 A 
ATOM     13  N   UNL     1       2.695   7.729  18.643  0.00  0.00    +0.000 N 
ATOM     14  C   UNL     1       3.307   6.523  18.267  0.00  0.00    +0.000 A 
ATOM     15  C   UNL     1       4.112   6.526  17.117  0.00  0.00    +0.000 A 
ATOM     16  H   UNL     1       2.616   8.491  17.970  0.00  0.00    +0.000 HD
BRANCH   5  18
ATOM     17  C   UNL     1       6.816   4.832  15.583  0.00  0.00    +0.000 C 
ATOM     18  O   UNL     1       5.563   5.511  15.601  0.00  0.00    +0.000 OA
ENDBRANCH   5  18
BRANCH   7  19
ATOM     19  O   UNL     1       4.076   2.972  19.263  0.00  0.00    +0.000 OA
ATOM     20  C   UNL     1       3.453   1.817  18.747  0.00  0.00    +0.000 C 
ENDBRANCH   7  19
ENDBRANCH   1  12
BRANCH   3  21
ATOM     21  C   UNL     1      -0.461  10.363  21.358  0.00  0.00    +0.000 A 
ATOM     22  C   UNL     1      -1.021  11.195  20.386  0.00  0.00    +0.000 A 
ATOM     23  C   UNL     1      -1.845  12.264  20.744  0.00  0.00    +0.000 A 
ATOM     24  C   UNL     1      -2.109  12.506  22.091  0.00  0.00    +0.000 A 
ATOM     25  C   UNL     1      -1.575  11.675  23.079  0.00  0.00    +0.000 A 
ATOM     26  C   UNL     1      -0.755  10.601  22.710  0.00  0.00    +0.000 A 
BRANCH  24  27
ATOM     27  S   UNL     1      -3.217  13.828  22.521  0.00  0.00    +0.000 S 
ATOM     28  O   UNL     1      -2.902  14.228  23.881  0.00  0.00    +0.000 OA
ATOM     29  O   UNL     1      -3.162  14.803  21.444  0.00  0.00    +0.000 OA
BRANCH  27  30
ATOM     30  C   UNL     1      -4.854  13.139  22.531  0.00  0.00    +0.000 A 
ATOM     31  C   UNL     1      -5.571  13.068  23.730  0.00  0.00    +0.000 A 
ATOM     32  C   UNL     1      -6.866  12.549  23.724  0.00  0.00    +0.000 A 
ATOM     33  C   UNL     1      -7.442  12.118  22.528  0.00  0.00    +0.000 A 
ATOM     34  C   UNL     1      -6.729  12.210  21.332  0.00  0.00    +0.000 A 
ATOM     35  C   UNL     1      -5.433  12.725  21.328  0.00  0.00    +0.000 A 
ENDBRANCH  27  30
ENDBRANCH  24  27
ENDBRANCH   3  21
TORSDOF 6
ENDMDL
MODEL 6
REMARK VINA RESULT:      -8.2      2.780     10.981
REMARK  Name = 
REMARK  8 active torsions:
REMARK  status: ('A' for Active; 'I' for Inactive)
REMARK    1  A    between atoms: C_1  and  O_2
REMARK    2  A    between atoms: O_2  and  C_3
REMARK    3  A    between atoms: C_5  and  O_6
REMARK    4  A    between atoms: O_6  and  C_7
REMARK    5  A    between atoms: C_12  and  C_13
REMARK    6  A    between atoms: N_15  and  C_16
REMARK    7  A    between atoms: C_19  and  S_20
REMARK    8  A    between atoms: S_20  and  C_23
REMARK                            x       y       z     vdW  Elec       q    Type
REMARK                         _______ _______ _______ _____ _____    ______ ____
ROOT
ATOM      1  C   UNL     1       1.251   9.243  19.150  0.00  0.00    +0.000 C 
ATOM      2  O   UNL     1       0.568   9.755  18.266  0.00  0.00    +0.000 OA
ATOM      3  N   UNL     1       1.395   9.703  20.445  0.00  0.00    +0.000 N 
ATOM      4  H   UNL     1       2.154   9.331  21.001  0.00  0.00    +0.000 HD
ENDROOT
BRANCH   1  12
ATOM      5  C   UNL     1       3.309   3.564  20.196  0.00  0.00    +0.000 A 
ATOM      6  C   UNL     1       4.197   3.449  19.133  0.00  0.00    +0.000 A 
ATOM      7  C   UNL     1       4.416   4.491  18.202  0.00  0.00    +0.000 A 
ATOM      8  C   UNL     1       3.713   5.701  18.360  0.00  0.00    +0.000 A 
ATOM      9  C   UNL     1       3.851   6.941  17.516  0.00  0.00    +0.000 A 
ATOM     10  O   UNL     1       4.670   7.105  16.622  0.00  0.00    +0.000 OA
ATOM     11  C   UNL     1       2.972   8.103  17.773  0.00  0.00    +0.000 A 
ATOM     12  C   UNL     1       2.093   8.049  18.774  0.00  0.00    +0.000 A 
ATOM     13  N   UNL     1       1.981   6.947  19.587  0.00  0.00    +0.000 N 
ATOM     14  C   UNL     1       2.795   5.813  19.444  0.00  0.00    +0.000 A 
ATOM     15  C   UNL     1       2.604   4.750  20.340  0.00  0.00    +0.000 A 
ATOM     16  H   UNL     1       1.474   7.103  20.459  0.00  0.00    +0.000 HD
BRANCH   5  18
ATOM     17  C   UNL     1       1.747   2.619  21.716  0.00  0.00    +0.000 C 
ATOM     18  O   UNL     1       3.047   2.603  21.133  0.00  0.00    +0.000 OA
ENDBRANCH   5  18
BRANCH   7  19
ATOM     19  O   UNL     1       5.326   4.045  17.286  0.00  0.00    +0.000 OA
ATOM     20  C   UNL     1       6.685   4.423  17.294  0.00  0.00    +0.000 C 
ENDBRANCH   7  19
ENDBRANCH   1  12
BRANCH   3  21
ATOM     21  C   UNL     1       0.640  10.732  21.046  0.00  0.00    +0.000 A 
ATOM     22  C   UNL     1      -0.356  10.485  21.995  0.00  0.00    +0.000 A 
ATOM     23  C   UNL     1      -1.070  11.535  22.575  0.00  0.00    +0.000 A 
ATOM     24  C   UNL     1      -0.790  12.847  22.198  0.00  0.00    +0.000 A 
ATOM     25  C   UNL     1       0.214  13.119  21.266  0.00  0.00    +0.000 A 
ATOM     26  C   UNL     1       0.931  12.060  20.695  0.00  0.00    +0.000 A 
BRANCH  24  27
ATOM     27  S   UNL     1      -1.664  14.172  23.001  0.00  0.00    +0.000 S 
ATOM     28  O   UNL     1      -1.074  14.342  24.317  0.00  0.00    +0.000 OA
ATOM     29  O   UNL     1      -1.701  15.288  22.070  0.00  0.00    +0.000 OA
BRANCH  27  30
ATOM     30  C   UNL     1      -3.335  13.615  23.230  0.00  0.00    +0.000 A 
ATOM     31  C   UNL     1      -4.227  13.632  22.153  0.00  0.00    +0.000 A 
ATOM     32  C   UNL     1      -5.531  13.169  22.335  0.00  0.00    +0.000 A 
ATOM     33  C   UNL     1      -5.932  12.681  23.581  0.00  0.00    +0.000 A 
ATOM     34  C   UNL     1      -5.032  12.649  24.646  0.00  0.00    +0.000 A 
ATOM     35  C   UNL     1      -3.727  13.112  24.474  0.00  0.00    +0.000 A 
ENDBRANCH  27  30
ENDBRANCH  24  27
ENDBRANCH   3  21
TORSDOF 6
ENDMDL
MODEL 7
REMARK VINA RESULT:      -8.2      1.166      1.662
REMARK  Name = 
REMARK  8 active torsions:
REMARK  status: ('A' for Active; 'I' for Inactive)
REMARK    1  A    between atoms: C_1  and  O_2
REMARK    2  A    between atoms: O_2  and  C_3
REMARK    3  A    between atoms: C_5  and  O_6
REMARK    4  A    between atoms: O_6  and  C_7
REMARK    5  A    between atoms: C_12  and  C_13
REMARK    6  A    between atoms: N_15  and  C_16
REMARK    7  A    between atoms: C_19  and  S_20
REMARK    8  A    between atoms: S_20  and  C_23
REMARK                            x       y       z     vdW  Elec       q    Type
REMARK                         _______ _______ _______ _____ _____    ______ ____
ROOT
ATOM      1  C   UNL     1       1.003   9.699  21.561  0.00  0.00    +0.000 C 
ATOM      2  O   UNL     1       1.570   9.261  22.560  0.00  0.00    +0.000 OA
ATOM      3  N   UNL     1       1.051   9.162  20.289  0.00  0.00    +0.000 N 
ATOM      4  H   UNL     1       0.735   9.737  19.518  0.00  0.00    +0.000 HD
ENDROOT
BRANCH   1  12
ATOM      5  C   UNL     1      -3.708  12.993  23.690  0.00  0.00    +0.000 A 
ATOM      6  C   UNL     1      -3.410  14.217  23.101  0.00  0.00    +0.000 A 
ATOM      7  C   UNL     1      -2.286  14.409  22.263  0.00  0.00    +0.000 A 
ATOM      8  C   UNL     1      -1.436  13.316  22.007  0.00  0.00    +0.000 A 
ATOM      9  C   UNL     1      -0.232  13.303  21.102  0.00  0.00    +0.000 A 
ATOM     10  O   UNL     1       0.125  14.225  20.381  0.00  0.00    +0.000 OA
ATOM     11  C   UNL     1       0.602  12.085  21.009  0.00  0.00    +0.000 A 
ATOM     12  C   UNL     1       0.253  11.001  21.703  0.00  0.00    +0.000 A 
ATOM     13  N   UNL     1      -0.866  10.973  22.499  0.00  0.00    +0.000 N 
ATOM     14  C   UNL     1      -1.737  12.067  22.622  0.00  0.00    +0.000 A 
ATOM     15  C   UNL     1      -2.860  11.923  23.451  0.00  0.00    +0.000 A 
ATOM     16  H   UNL     1      -1.177  10.041  22.775  0.00  0.00    +0.000 HD
BRANCH   5  18
ATOM     17  C   UNL     1      -6.066  13.005  23.975  0.00  0.00    +0.000 C 
ATOM     18  O   UNL     1      -4.773  12.733  24.507  0.00  0.00    +0.000 OA
ENDBRANCH   5  18
BRANCH   7  19
ATOM     19  O   UNL     1      -2.280  15.718  21.871  0.00  0.00    +0.000 OA
ATOM     20  C   UNL     1      -1.545  16.723  22.535  0.00  0.00    +0.000 C 
ENDBRANCH   7  19
ENDBRANCH   1  12
BRANCH   3  21
ATOM     21  C   UNL     1       1.601   7.911  19.939  0.00  0.00    +0.000 A 
ATOM     22  C   UNL     1       1.514   6.788  20.765  0.00  0.00    +0.000 A 
ATOM     23  C   UNL     1       2.061   5.565  20.373  0.00  0.00    +0.000 A 
ATOM     24  C   UNL     1       2.708   5.465  19.143  0.00  0.00    +0.000 A 
ATOM     25  C   UNL     1       2.790   6.569  18.292  0.00  0.00    +0.000 A 
ATOM     26  C   UNL     1       2.231   7.791  18.690  0.00  0.00    +0.000 A 
BRANCH  24  27
ATOM     27  S   UNL     1       3.336   3.881  18.634  0.00  0.00    +0.000 S 
ATOM     28  O   UNL     1       3.607   3.118  19.840  0.00  0.00    +0.000 OA
ATOM     29  O   UNL     1       2.423   3.357  17.632  0.00  0.00    +0.000 OA
BRANCH  27  30
ATOM     30  C   UNL     1       4.891   4.183  17.831  0.00  0.00    +0.000 A 
ATOM     31  C   UNL     1       5.009   3.990  16.450  0.00  0.00    +0.000 A 
ATOM     32  C   UNL     1       6.227   4.255  15.823  0.00  0.00    +0.000 A 
ATOM     33  C   UNL     1       7.311   4.721  16.569  0.00  0.00    +0.000 A 
ATOM     34  C   UNL     1       7.182   4.931  17.942  0.00  0.00    +0.000 A 
ATOM     35  C   UNL     1       5.969   4.666  18.578  0.00  0.00    +0.000 A 
ENDBRANCH  27  30
ENDBRANCH  24  27
ENDBRANCH   3  21
TORSDOF 6
ENDMDL
MODEL 8
REMARK VINA RESULT:      -8.2      3.006     10.866
REMARK  Name = 
REMARK  8 active torsions:
REMARK  status: ('A' for Active; 'I' for Inactive)
REMARK    1  A    between atoms: C_1  and  O_2
REMARK    2  A    between atoms: O_2  and  C_3
REMARK    3  A    between atoms: C_5  and  O_6
REMARK    4  A    between atoms: O_6  and  C_7
REMARK    5  A    between atoms: C_12  and  C_13
REMARK    6  A    between atoms: N_15  and  C_16
REMARK    7  A    between atoms: C_19  and  S_20
REMARK    8  A    between atoms: S_20  and  C_23
REMARK                            x       y       z     vdW  Elec       q    Type
REMARK                         _______ _______ _______ _____ _____    ______ ____
ROOT
ATOM      1  C   UNL     1       1.353   9.163  19.311  0.00  0.00    +0.000 C 
ATOM      2  O   UNL     1       1.227  10.119  18.549  0.00  0.00    +0.000 OA
ATOM      3  N   UNL     1       0.875   9.077  20.605  0.00  0.00    +0.000 N 
ATOM      4  H   UNL     1       1.238   8.341  21.198  0.00  0.00    +0.000 HD
ENDROOT
BRANCH   1  12
ATOM      5  C   UNL     1       3.555   3.482  19.988  0.00  0.00    +0.000 A 
ATOM      6  C   UNL     1       4.380   3.427  18.870  0.00  0.00    +0.000 A 
ATOM      7  C   UNL     1       4.527   4.511  17.974  0.00  0.00    +0.000 A 
ATOM      8  C   UNL     1       3.817   5.701  18.226  0.00  0.00    +0.000 A 
ATOM      9  C   UNL     1       3.886   6.978  17.430  0.00  0.00    +0.000 A 
ATOM     10  O   UNL     1       4.649   7.195  16.497  0.00  0.00    +0.000 OA
ATOM     11  C   UNL     1       3.007   8.113  17.788  0.00  0.00    +0.000 A 
ATOM     12  C   UNL     1       2.189   8.001  18.835  0.00  0.00    +0.000 A 
ATOM     13  N   UNL     1       2.142   6.864  19.605  0.00  0.00    +0.000 N 
ATOM     14  C   UNL     1       2.963   5.751  19.364  0.00  0.00    +0.000 A 
ATOM     15  C   UNL     1       2.842   4.648  20.224  0.00  0.00    +0.000 A 
ATOM     16  H   UNL     1       1.686   6.973  20.510  0.00  0.00    +0.000 HD
BRANCH   5  18
ATOM     17  C   UNL     1       2.135   2.497  21.618  0.00  0.00    +0.000 C 
ATOM     18  O   UNL     1       3.363   2.478  20.895  0.00  0.00    +0.000 OA
ENDBRANCH   5  18
BRANCH   7  19
ATOM     19  O   UNL     1       5.388   4.121  16.987  0.00  0.00    +0.000 OA
ATOM     20  C   UNL     1       6.753   4.475  16.963  0.00  0.00    +0.000 C 
ENDBRANCH   7  19
ENDBRANCH   1  12
BRANCH   3  21
ATOM     21  C   UNL     1      -0.007   9.988  21.223  0.00  0.00    +0.000 A 
ATOM     22  C   UNL     1      -0.590  11.058  20.541  0.00  0.00    +0.000 A 
ATOM     23  C   UNL     1      -1.468  11.929  21.189  0.00  0.00    +0.000 A 
ATOM     24  C   UNL     1      -1.763  11.730  22.536  0.00  0.00    +0.000 A 
ATOM     25  C   UNL     1      -1.207  10.654  23.233  0.00  0.00    +0.000 A 
ATOM     26  C   UNL     1      -0.333   9.782  22.573  0.00  0.00    +0.000 A 
BRANCH  24  27
ATOM     27  S   UNL     1      -2.938  12.809  23.323  0.00  0.00    +0.000 S 
ATOM     28  O   UNL     1      -3.772  11.985  24.180  0.00  0.00    +0.000 OA
ATOM     29  O   UNL     1      -2.190  13.921  23.886  0.00  0.00    +0.000 OA
BRANCH  27  30
ATOM     30  C   UNL     1      -3.973  13.461  22.035  0.00  0.00    +0.000 A 
ATOM     31  C   UNL     1      -4.951  12.649  21.451  0.00  0.00    +0.000 A 
ATOM     32  C   UNL     1      -5.776  13.178  20.458  0.00  0.00    +0.000 A 
ATOM     33  C   UNL     1      -5.633  14.509  20.065  0.00  0.00    +0.000 A 
ATOM     34  C   UNL     1      -4.669  15.320  20.664  0.00  0.00    +0.000 A 
ATOM     35  C   UNL     1      -3.837  14.800  21.656  0.00  0.00    +0.000 A 
ENDBRANCH  27  30
ENDBRANCH  24  27
ENDBRANCH   3  21
TORSDOF 6
ENDMDL
MODEL 9
REMARK VINA RESULT:      -8.1      1.133      1.133
REMARK  Name = 
REMARK  8 active torsions:
REMARK  status: ('A' for Active; 'I' for Inactive)
REMARK    1  A    between atoms: C_1  and  O_2
REMARK    2  A    between atoms: O_2  and  C_3
REMARK    3  A    between atoms: C_5  and  O_6
REMARK    4  A    between atoms: O_6  and  C_7
REMARK    5  A    between atoms: C_12  and  C_13
REMARK    6  A    between atoms: N_15  and  C_16
REMARK    7  A    between atoms: C_19  and  S_20
REMARK    8  A    between atoms: S_20  and  C_23
REMARK                            x       y       z     vdW  Elec       q    Type
REMARK                         _______ _______ _______ _____ _____    ______ ____
ROOT
ATOM      1  C   UNL     1       1.099   9.722  21.463  0.00  0.00    +0.000 C 
ATOM      2  O   UNL     1       1.692   9.272  22.441  0.00  0.00    +0.000 OA
ATOM      3  N   UNL     1       1.110   9.197  20.184  0.00  0.00    +0.000 N 
ATOM      4  H   UNL     1       0.775   9.780  19.428  0.00  0.00    +0.000 HD
ENDROOT
BRANCH   1  12
ATOM      5  C   UNL     1      -3.559  13.002  23.725  0.00  0.00    +0.000 A 
ATOM      6  C   UNL     1      -3.266  14.233  23.149  0.00  0.00    +0.000 A 
ATOM      7  C   UNL     1      -2.156  14.434  22.295  0.00  0.00    +0.000 A 
ATOM      8  C   UNL     1      -1.316  13.341  22.007  0.00  0.00    +0.000 A 
ATOM      9  C   UNL     1      -0.128  13.338  21.081  0.00  0.00    +0.000 A 
ATOM     10  O   UNL     1       0.221  14.269  20.368  0.00  0.00    +0.000 OA
ATOM     11  C   UNL     1       0.699  12.117  20.955  0.00  0.00    +0.000 A 
ATOM     12  C   UNL     1       0.358  11.024  21.638  0.00  0.00    +0.000 A 
ATOM     13  N   UNL     1      -0.747  10.988  22.453  0.00  0.00    +0.000 N 
ATOM     14  C   UNL     1      -1.611  12.084  22.608  0.00  0.00    +0.000 A 
ATOM     15  C   UNL     1      -2.720  11.932  23.455  0.00  0.00    +0.000 A 
ATOM     16  H   UNL     1      -1.058  10.054  22.720  0.00  0.00    +0.000 HD
BRANCH   5  18
ATOM     17  C   UNL     1      -5.913  12.824  23.987  0.00  0.00    +0.000 C 
ATOM     18  O   UNL     1      -4.610  12.734  24.556  0.00  0.00    +0.000 OA
ENDBRANCH   5  18
BRANCH   7  19
ATOM     19  O   UNL     1      -2.151  15.748  21.923  0.00  0.00    +0.000 OA
ATOM     20  C   UNL     1      -2.514  16.801  22.789  0.00  0.00    +0.000 C 
ENDBRANCH   7  19
ENDBRANCH   1  12
BRANCH   3  21
ATOM     21  C   UNL     1       1.647   7.948  19.807  0.00  0.00    +0.000 A 
ATOM     22  C   UNL     1       2.369   7.760  18.626  0.00  0.00    +0.000 A 
ATOM     23  C   UNL     1       2.894   6.509  18.297  0.00  0.00    +0.000 A 
ATOM     24  C   UNL     1       2.691   5.432  19.158  0.00  0.00    +0.000 A 
ATOM     25  C   UNL     1       1.989   5.601  20.353  0.00  0.00    +0.000 A 
ATOM     26  C   UNL     1       1.472   6.861  20.678  0.00  0.00    +0.000 A 
BRANCH  24  27
ATOM     27  S   UNL     1       3.428   3.864  18.754  0.00  0.00    +0.000 S 
ATOM     28  O   UNL     1       3.855   3.256  20.002  0.00  0.00    +0.000 OA
ATOM     29  O   UNL     1       2.498   3.163  17.884  0.00  0.00    +0.000 OA
BRANCH  27  30
ATOM     30  C   UNL     1       4.885   4.216  17.801  0.00  0.00    +0.000 A 
ATOM     31  C   UNL     1       6.055   4.627  18.449  0.00  0.00    +0.000 A 
ATOM     32  C   UNL     1       7.203   4.877  17.695  0.00  0.00    +0.000 A 
ATOM     33  C   UNL     1       7.182   4.703  16.310  0.00  0.00    +0.000 A 
ATOM     34  C   UNL     1       6.018   4.273  15.673  0.00  0.00    +0.000 A 
ATOM     35  C   UNL     1       4.865   4.024  16.417  0.00  0.00    +0.000 A 
ENDBRANCH  27  30
ENDBRANCH  24  27
ENDBRANCH   3  21
TORSDOF 6
ENDMDL
