MODEL 1
REMARK VINA RESULT:      -7.2      0.000      0.000
REMARK  Name = 
REMARK  4 active torsions:
REMARK  status: ('A' for Active; 'I' for Inactive)
REMARK    1  A    between atoms: C_1  and  C_2
REMARK    2  A    between atoms: C_6  and  C_7
REMARK    3  A    between atoms: C_17  and  O_18
REMARK    4  A    between atoms: O_18  and  C_19
REMARK                            x       y       z     vdW  Elec       q    Type
REMARK                         _______ _______ _______ _____ _____    ______ ____
ROOT
ATOM      1  C   UNL     1       4.695   5.090  18.613  0.00  0.00    +0.000 C 
ATOM      2  O   UNL     1       4.700   4.452  19.664  0.00  0.00    +0.000 OA
ATOM      3  N   UNL     1       3.666   5.988  18.295  0.00  0.00    +0.000 N 
ATOM      4  C   UNL     1       3.690   6.941  17.167  0.00  0.00    +0.000 C 
ATOM      5  C   UNL     1       3.171   8.357  17.520  0.00  0.00    +0.000 C 
ATOM      6  O   UNL     1       2.025   8.372  18.383  0.00  0.00    +0.000 OA
ATOM      7  C   UNL     1       2.298   7.571  19.543  0.00  0.00    +0.000 C 
ATOM      8  C   UNL     1       2.428   6.116  19.083  0.00  0.00    +0.000 C 
ATOM      9  C   UNL     1       2.162   5.327  20.355  0.00  0.00    +0.000 C 
ATOM     10  C   UNL     1       1.075   6.131  21.081  0.00  0.00    +0.000 C 
ATOM     11  C   UNL     1       1.154   7.577  20.559  0.00  0.00    +0.000 C 
ENDROOT
BRANCH   1  17
ATOM     12  C   UNL     1       7.857   5.870  19.039  0.00  0.00    +0.000 C 
ATOM     13  C   UNL     1       7.129   5.269  17.896  0.00  0.00    +0.000 A 
ATOM     14  O   UNL     1       7.897   4.994  16.805  0.00  0.00    +0.000 OA
ATOM     15  C   UNL     1       7.101   4.392  15.893  0.00  0.00    +0.000 A 
ATOM     16  C   UNL     1       5.831   4.258  16.393  0.00  0.00    +0.000 A 
ATOM     17  C   UNL     1       5.803   4.907  17.666  0.00  0.00    +0.000 A 
ENDBRANCH   1  17
BRANCH  11  18
ATOM     18  O   UNL     1       1.487   8.420  21.672  0.00  0.00    +0.000 OA
BRANCH  18  19
ATOM     19  C   UNL     1       0.680   9.468  21.995  0.00  0.00    +0.000 A 
ATOM     20  C   UNL     1      -0.366   9.476  22.910  0.00  0.00    +0.000 A 
ATOM     21  C   UNL     1      -1.059  10.664  23.155  0.00  0.00    +0.000 A 
ATOM     22  C   UNL     1      -0.694  11.804  22.458  0.00  0.00    +0.000 A 
ATOM     23  N   UNL     1       0.294  11.833  21.543  0.00  0.00    +0.000 NA
ATOM     24  C   UNL     1       0.955  10.665  21.338  0.00  0.00    +0.000 A 
ENDBRANCH  18  19
ENDBRANCH  11  18
TORSDOF 3
ENDMDL
MODEL 2
REMARK VINA RESULT:      -7.0      3.937      7.539
REMARK  Name = 
REMARK  4 active torsions:
REMARK  status: ('A' for Active; 'I' for Inactive)
REMARK    1  A    between atoms: C_1  and  C_2
REMARK    2  A    between atoms: C_6  and  C_7
REMARK    3  A    between atoms: C_17  and  O_18
REMARK    4  A    between atoms: O_18  and  C_19
REMARK                            x       y       z     vdW  Elec       q    Type
REMARK                         _______ _______ _______ _____ _____    ______ ____
ROOT
ATOM      1  C   UNL     1       4.273   3.920  19.735  0.00  0.00    +0.000 C 
ATOM      2  O   UNL     1       5.266   3.217  19.911  0.00  0.00    +0.000 OA
ATOM      3  N   UNL     1       4.369   5.229  19.240  0.00  0.00    +0.000 N 
ATOM      4  C   UNL     1       3.227   6.057  18.802  0.00  0.00    +0.000 C 
ATOM      5  C   UNL     1       3.472   6.834  17.486  0.00  0.00    +0.000 C 
ATOM      6  O   UNL     1       4.789   7.392  17.361  0.00  0.00    +0.000 OA
ATOM      7  C   UNL     1       5.762   6.362  17.593  0.00  0.00    +0.000 C 
ATOM      8  C   UNL     1       5.648   5.937  19.059  0.00  0.00    +0.000 C 
ATOM      9  C   UNL     1       7.001   5.301  19.339  0.00  0.00    +0.000 C 
ATOM     10  C   UNL     1       7.995   6.156  18.542  0.00  0.00    +0.000 C 
ATOM     11  C   UNL     1       7.202   6.846  17.417  0.00  0.00    +0.000 C 
ENDROOT
BRANCH   1  17
ATOM     12  C   UNL     1       2.303   2.168  17.777  0.00  0.00    +0.000 C 
ATOM     13  C   UNL     1       2.147   2.641  19.173  0.00  0.00    +0.000 A 
ATOM     14  O   UNL     1       0.967   2.308  19.766  0.00  0.00    +0.000 OA
ATOM     15  C   UNL     1       1.018   2.749  21.042  0.00  0.00    +0.000 A 
ATOM     16  C   UNL     1       2.228   3.349  21.285  0.00  0.00    +0.000 A 
ATOM     17  C   UNL     1       2.948   3.371  20.050  0.00  0.00    +0.000 A 
ENDBRANCH   1  17
BRANCH  11  18
ATOM     18  O   UNL     1       7.731   6.379  16.168  0.00  0.00    +0.000 OA
BRANCH  18  19
ATOM     19  C   UNL     1       7.110   5.365  15.504  0.00  0.00    +0.000 A 
ATOM     20  C   UNL     1       6.316   4.363  16.048  0.00  0.00    +0.000 A 
ATOM     21  C   UNL     1       5.711   3.428  15.205  0.00  0.00    +0.000 A 
ATOM     22  C   UNL     1       5.939   3.515  13.841  0.00  0.00    +0.000 A 
ATOM     23  N   UNL     1       6.724   4.452  13.276  0.00  0.00    +0.000 NA
ATOM     24  C   UNL     1       7.286   5.353  14.122  0.00  0.00    +0.000 A 
ENDBRANCH  18  19
ENDBRANCH  11  18
TORSDOF 3
ENDMDL
MODEL 3
REMARK VINA RESULT:      -6.5      4.013      7.547
REMARK  Name = 
REMARK  4 active torsions:
REMARK  status: ('A' for Active; 'I' for Inactive)
REMARK    1  A    between atoms: C_1  and  C_2
REMARK    2  A    between atoms: C_6  and  C_7
REMARK    3  A    between atoms: C_17  and  O_18
REMARK    4  A    between atoms: O_18  and  C_19
REMARK                            x       y       z     vdW  Elec       q    Type
REMARK                         _______ _______ _______ _____ _____    ______ ____
ROOT
ATOM      1  C   UNL     1       3.916   3.743  19.248  0.00  0.00    +0.000 C 
ATOM      2  O   UNL     1       4.854   2.974  19.450  0.00  0.00    +0.000 OA
ATOM      3  N   UNL     1       4.120   5.086  18.897  0.00  0.00    +0.000 N 
ATOM      4  C   UNL     1       3.066   6.012  18.434  0.00  0.00    +0.000 C 
ATOM      5  C   UNL     1       3.479   6.895  17.232  0.00  0.00    +0.000 C 
ATOM      6  O   UNL     1       4.825   7.391  17.293  0.00  0.00    +0.000 OA
ATOM      7  C   UNL     1       5.722   6.293  17.515  0.00  0.00    +0.000 C 
ATOM      8  C   UNL     1       5.441   5.738  18.914  0.00  0.00    +0.000 C 
ATOM      9  C   UNL     1       6.728   5.008  19.260  0.00  0.00    +0.000 C 
ATOM     10  C   UNL     1       7.836   5.879  18.653  0.00  0.00    +0.000 C 
ATOM     11  C   UNL     1       7.193   6.714  17.530  0.00  0.00    +0.000 C 
ENDROOT
BRANCH   1  17
ATOM     12  C   UNL     1       2.176   3.323  22.000  0.00  0.00    +0.000 C 
ATOM     13  C   UNL     1       1.855   3.069  20.576  0.00  0.00    +0.000 A 
ATOM     14  O   UNL     1       0.615   2.552  20.349  0.00  0.00    +0.000 OA
ATOM     15  C   UNL     1       0.460   2.449  19.011  0.00  0.00    +0.000 A 
ATOM     16  C   UNL     1       1.581   2.913  18.370  0.00  0.00    +0.000 A 
ATOM     17  C   UNL     1       2.543   3.238  19.376  0.00  0.00    +0.000 A 
ENDBRANCH   1  17
BRANCH  11  18
ATOM     18  O   UNL     1       7.826   6.340  16.298  0.00  0.00    +0.000 OA
BRANCH  18  19
ATOM     19  C   UNL     1       7.247   5.406  15.493  0.00  0.00    +0.000 A 
ATOM     20  C   UNL     1       6.419   4.359  15.877  0.00  0.00    +0.000 A 
ATOM     21  C   UNL     1       5.867   3.523  14.904  0.00  0.00    +0.000 A 
ATOM     22  C   UNL     1       6.182   3.750  13.574  0.00  0.00    +0.000 A 
ATOM     23  N   UNL     1       7.003   4.736  13.162  0.00  0.00    +0.000 NA
ATOM     24  C   UNL     1       7.511   5.538  14.132  0.00  0.00    +0.000 A 
ENDBRANCH  18  19
ENDBRANCH  11  18
TORSDOF 3
ENDMDL
MODEL 4
REMARK VINA RESULT:      -6.4      2.641      8.107
REMARK  Name = 
REMARK  4 active torsions:
REMARK  status: ('A' for Active; 'I' for Inactive)
REMARK    1  A    between atoms: C_1  and  C_2
REMARK    2  A    between atoms: C_6  and  C_7
REMARK    3  A    between atoms: C_17  and  O_18
REMARK    4  A    between atoms: O_18  and  C_19
REMARK                            x       y       z     vdW  Elec       q    Type
REMARK                         _______ _______ _______ _____ _____    ______ ____
ROOT
ATOM      1  C   UNL     1      -0.270   9.900  20.782  0.00  0.00    +0.000 C 
ATOM      2  O   UNL     1      -0.756   8.951  21.395  0.00  0.00    +0.000 OA
ATOM      3  N   UNL     1       0.916   9.777  20.044  0.00  0.00    +0.000 N 
ATOM      4  C   UNL     1       1.448  10.796  19.116  0.00  0.00    +0.000 C 
ATOM      5  C   UNL     1       1.985  10.224  17.782  0.00  0.00    +0.000 C 
ATOM      6  O   UNL     1       2.714   8.994  17.913  0.00  0.00    +0.000 OA
ATOM      7  C   UNL     1       1.918   8.051  18.648  0.00  0.00    +0.000 C 
ATOM      8  C   UNL     1       1.773   8.580  20.077  0.00  0.00    +0.000 C 
ATOM      9  C   UNL     1       1.431   7.331  20.873  0.00  0.00    +0.000 C 
ATOM     10  C   UNL     1       2.265   6.221  20.217  0.00  0.00    +0.000 C 
ATOM     11  C   UNL     1       2.586   6.682  18.784  0.00  0.00    +0.000 C 
ENDROOT
BRANCH   1  17
ATOM     12  C   UNL     1      -2.242  11.209  18.506  0.00  0.00    +0.000 C 
ATOM     13  C   UNL     1      -1.775  11.712  19.820  0.00  0.00    +0.000 A 
ATOM     14  O   UNL     1      -2.226  12.952  20.157  0.00  0.00    +0.000 OA
ATOM     15  C   UNL     1      -1.769  13.224  21.399  0.00  0.00    +0.000 A 
ATOM     16  C   UNL     1      -1.042  12.163  21.876  0.00  0.00    +0.000 A 
ATOM     17  C   UNL     1      -0.955  11.199  20.824  0.00  0.00    +0.000 A 
ENDBRANCH   1  17
BRANCH  11  18
ATOM     18  O   UNL     1       1.978   5.744  17.884  0.00  0.00    +0.000 OA
BRANCH  18  19
ATOM     19  C   UNL     1       2.269   4.417  17.988  0.00  0.00    +0.000 A 
ATOM     20  C   UNL     1       1.410   3.394  18.369  0.00  0.00    +0.000 A 
ATOM     21  C   UNL     1       1.867   2.074  18.370  0.00  0.00    +0.000 A 
ATOM     22  C   UNL     1       3.181   1.823  18.009  0.00  0.00    +0.000 A 
ATOM     23  N   UNL     1       4.053   2.788  17.661  0.00  0.00    +0.000 NA
ATOM     24  C   UNL     1       3.573   4.058  17.658  0.00  0.00    +0.000 A 
ENDBRANCH  18  19
ENDBRANCH  11  18
TORSDOF 3
ENDMDL
MODEL 5
REMARK VINA RESULT:      -6.4      2.617      8.069
REMARK  Name = 
REMARK  4 active torsions:
REMARK  status: ('A' for Active; 'I' for Inactive)
REMARK    1  A    between atoms: C_1  and  C_2
REMARK    2  A    between atoms: C_6  and  C_7
REMARK    3  A    between atoms: C_17  and  O_18
REMARK    4  A    between atoms: O_18  and  C_19
REMARK                            x       y       z     vdW  Elec       q    Type
REMARK                         _______ _______ _______ _____ _____    ______ ____
ROOT
ATOM      1  C   UNL     1       1.516  11.850  19.475  0.00  0.00    +0.000 C 
ATOM      2  O   UNL     1       2.196  11.904  18.451  0.00  0.00    +0.000 OA
ATOM      3  N   UNL     1       1.012  10.637  19.967  0.00  0.00    +0.000 N 
ATOM      4  C   UNL     1       0.375  10.456  21.287  0.00  0.00    +0.000 C 
ATOM      5  C   UNL     1       0.823   9.181  22.041  0.00  0.00    +0.000 C 
ATOM      6  O   UNL     1       0.977   8.021  21.209  0.00  0.00    +0.000 OA
ATOM      7  C   UNL     1       1.831   8.346  20.101  0.00  0.00    +0.000 C 
ATOM      8  C   UNL     1       1.092   9.364  19.229  0.00  0.00    +0.000 C 
ATOM      9  C   UNL     1       1.778   9.224  17.880  0.00  0.00    +0.000 C 
ATOM     10  C   UNL     1       2.078   7.724  17.759  0.00  0.00    +0.000 C 
ATOM     11  C   UNL     1       2.109   7.151  19.188  0.00  0.00    +0.000 C 
ENDROOT
BRANCH   1  17
ATOM     12  C   UNL     1      -1.361  13.415  19.712  0.00  0.00    +0.000 C 
ATOM     13  C   UNL     1      -0.018  13.721  20.259  0.00  0.00    +0.000 A 
ATOM     14  O   UNL     1       0.060  14.870  20.988  0.00  0.00    +0.000 OA
ATOM     15  C   UNL     1       1.320  14.960  21.465  0.00  0.00    +0.000 A 
ATOM     16  C   UNL     1       2.054  13.870  21.068  0.00  0.00    +0.000 A 
ATOM     17  C   UNL     1       1.225  13.092  20.201  0.00  0.00    +0.000 A 
ENDBRANCH   1  17
BRANCH  11  18
ATOM     18  O   UNL     1       3.432   6.648  19.422  0.00  0.00    +0.000 OA
BRANCH  18  19
ATOM     19  C   UNL     1       3.624   5.317  19.639  0.00  0.00    +0.000 A 
ATOM     20  C   UNL     1       2.736   4.422  20.222  0.00  0.00    +0.000 A 
ATOM     21  C   UNL     1       3.081   3.071  20.318  0.00  0.00    +0.000 A 
ATOM     22  C   UNL     1       4.318   2.664  19.843  0.00  0.00    +0.000 A 
ATOM     23  N   UNL     1       5.218   3.504  19.296  0.00  0.00    +0.000 NA
ATOM     24  C   UNL     1       4.846   4.806  19.207  0.00  0.00    +0.000 A 
ENDBRANCH  18  19
ENDBRANCH  11  18
TORSDOF 3
ENDMDL
MODEL 6
REMARK VINA RESULT:      -6.4      3.102      7.843
REMARK  Name = 
REMARK  4 active torsions:
REMARK  status: ('A' for Active; 'I' for Inactive)
REMARK    1  A    between atoms: C_1  and  C_2
REMARK    2  A    between atoms: C_6  and  C_7
REMARK    3  A    between atoms: C_17  and  O_18
REMARK    4  A    between atoms: O_18  and  C_19
REMARK                            x       y       z     vdW  Elec       q    Type
REMARK                         _______ _______ _______ _____ _____    ______ ____
ROOT
ATOM      1  C   UNL     1       1.805  12.554  18.995  0.00  0.00    +0.000 C 
ATOM      2  O   UNL     1       2.719  12.359  18.196  0.00  0.00    +0.000 OA
ATOM      3  N   UNL     1       0.966  11.517  19.430  0.00  0.00    +0.000 N 
ATOM      4  C   UNL     1      -0.007  11.620  20.536  0.00  0.00    +0.000 C 
ATOM      5  C   UNL     1      -0.022  10.399  21.487  0.00  0.00    +0.000 C 
ATOM      6  O   UNL     1       0.109   9.130  20.827  0.00  0.00    +0.000 OA
ATOM      7  C   UNL     1       1.261   9.160  19.971  0.00  0.00    +0.000 C 
ATOM      8  C   UNL     1       0.980  10.163  18.849  0.00  0.00    +0.000 C 
ATOM      9  C   UNL     1       1.945   9.734  17.755  0.00  0.00    +0.000 C 
ATOM     10  C   UNL     1       1.967   8.202  17.846  0.00  0.00    +0.000 C 
ATOM     11  C   UNL     1       1.523   7.826  19.271  0.00  0.00    +0.000 C 
ENDROOT
BRANCH   1  17
ATOM     12  C   UNL     1       3.553  14.146  21.273  0.00  0.00    +0.000 C 
ATOM     13  C   UNL     1       2.357  14.537  20.489  0.00  0.00    +0.000 A 
ATOM     14  O   UNL     1       1.871  15.780  20.762  0.00  0.00    +0.000 OA
ATOM     15  C   UNL     1       0.837  16.001  19.920  0.00  0.00    +0.000 A 
ATOM     16  C   UNL     1       0.663  14.920  19.094  0.00  0.00    +0.000 A 
ATOM     17  C   UNL     1       1.588  13.912  19.509  0.00  0.00    +0.000 A 
ENDBRANCH   1  17
BRANCH  11  18
ATOM     18  O   UNL     1       2.619   7.145  19.899  0.00  0.00    +0.000 OA
BRANCH  18  19
ATOM     19  C   UNL     1       2.577   5.793  20.059  0.00  0.00    +0.000 A 
ATOM     20  C   UNL     1       1.548   5.042  20.614  0.00  0.00    +0.000 A 
ATOM     21  C   UNL     1       1.653   3.650  20.651  0.00  0.00    +0.000 A 
ATOM     22  C   UNL     1       2.799   3.054  20.149  0.00  0.00    +0.000 A 
ATOM     23  N   UNL     1       3.830   3.746  19.629  0.00  0.00    +0.000 NA
ATOM     24  C   UNL     1       3.690   5.096  19.596  0.00  0.00    +0.000 A 
ENDBRANCH  18  19
ENDBRANCH  11  18
TORSDOF 3
ENDMDL
MODEL 7
REMARK VINA RESULT:      -6.3      2.604      8.122
REMARK  Name = 
REMARK  4 active torsions:
REMARK  status: ('A' for Active; 'I' for Inactive)
REMARK    1  A    between atoms: C_1  and  C_2
REMARK    2  A    between atoms: C_6  and  C_7
REMARK    3  A    between atoms: C_17  and  O_18
REMARK    4  A    between atoms: O_18  and  C_19
REMARK                            x       y       z     vdW  Elec       q    Type
REMARK                         _______ _______ _______ _____ _____    ______ ____
ROOT
ATOM      1  C   UNL     1       1.411  12.147  19.987  0.00  0.00    +0.000 C 
ATOM      2  O   UNL     1       2.048  12.349  18.955  0.00  0.00    +0.000 OA
ATOM      3  N   UNL     1       0.918  10.876  20.317  0.00  0.00    +0.000 N 
ATOM      4  C   UNL     1       0.334  10.505  21.622  0.00  0.00    +0.000 C 
ATOM      5  C   UNL     1       0.803   9.133  22.162  0.00  0.00    +0.000 C 
ATOM      6  O   UNL     1       0.913   8.107  21.164  0.00  0.00    +0.000 OA
ATOM      7  C   UNL     1       1.722   8.589  20.080  0.00  0.00    +0.000 C 
ATOM      8  C   UNL     1       0.956   9.725  19.398  0.00  0.00    +0.000 C 
ATOM      9  C   UNL     1       1.585   9.783  18.015  0.00  0.00    +0.000 C 
ATOM     10  C   UNL     1       1.867   8.316  17.664  0.00  0.00    +0.000 C 
ATOM     11  C   UNL     1       1.952   7.540  18.991  0.00  0.00    +0.000 C 
ENDROOT
BRANCH   1  17
ATOM     12  C   UNL     1       3.617  14.162  21.348  0.00  0.00    +0.000 C 
ATOM     13  C   UNL     1       2.141  14.089  21.458  0.00  0.00    +0.000 A 
ATOM     14  O   UNL     1       1.578  15.014  22.285  0.00  0.00    +0.000 OA
ATOM     15  C   UNL     1       0.238  14.854  22.215  0.00  0.00    +0.000 A 
ATOM     16  C   UNL     1      -0.071  13.847  21.337  0.00  0.00    +0.000 A 
ATOM     17  C   UNL     1       1.161  13.270  20.899  0.00  0.00    +0.000 A 
ENDBRANCH   1  17
BRANCH  11  18
ATOM     18  O   UNL     1       3.280   7.005  19.093  0.00  0.00    +0.000 OA
BRANCH  18  19
ATOM     19  C   UNL     1       3.488   5.669  18.926  0.00  0.00    +0.000 A 
ATOM     20  C   UNL     1       2.598   4.735  18.411  0.00  0.00    +0.000 A 
ATOM     21  C   UNL     1       3.002   3.406  18.262  0.00  0.00    +0.000 A 
ATOM     22  C   UNL     1       4.282   3.050  18.656  0.00  0.00    +0.000 A 
ATOM     23  N   UNL     1       5.165   3.918  19.186  0.00  0.00    +0.000 NA
ATOM     24  C   UNL     1       4.745   5.203  19.304  0.00  0.00    +0.000 A 
ENDBRANCH  18  19
ENDBRANCH  11  18
TORSDOF 3
ENDMDL
MODEL 8
REMARK VINA RESULT:      -6.2      2.901      7.911
REMARK  Name = 
REMARK  4 active torsions:
REMARK  status: ('A' for Active; 'I' for Inactive)
REMARK    1  A    between atoms: C_1  and  C_2
REMARK    2  A    between atoms: C_6  and  C_7
REMARK    3  A    between atoms: C_17  and  O_18
REMARK    4  A    between atoms: O_18  and  C_19
REMARK                            x       y       z     vdW  Elec       q    Type
REMARK                         _______ _______ _______ _____ _____    ______ ____
ROOT
ATOM      1  C   UNL     1       1.626  12.096  18.983  0.00  0.00    +0.000 C 
ATOM      2  O   UNL     1       2.505  11.989  18.130  0.00  0.00    +0.000 OA
ATOM      3  N   UNL     1       0.948  10.980  19.494  0.00  0.00    +0.000 N 
ATOM      4  C   UNL     1       0.040  10.998  20.658  0.00  0.00    +0.000 C 
ATOM      5  C   UNL     1       0.233   9.812  21.634  0.00  0.00    +0.000 C 
ATOM      6  O   UNL     1       0.474   8.550  20.994  0.00  0.00    +0.000 OA
ATOM      7  C   UNL     1       1.558   8.692  20.065  0.00  0.00    +0.000 C 
ATOM      8  C   UNL     1       1.089   9.621  18.942  0.00  0.00    +0.000 C 
ATOM      9  C   UNL     1       2.028   9.279  17.797  0.00  0.00    +0.000 C 
ATOM     10  C   UNL     1       2.241   7.764  17.919  0.00  0.00    +0.000 C 
ATOM     11  C   UNL     1       1.935   7.378  19.377  0.00  0.00    +0.000 C 
ENDROOT
BRANCH   1  17
ATOM     12  C   UNL     1       3.325  13.964  21.082  0.00  0.00    +0.000 C 
ATOM     13  C   UNL     1       2.035  14.179  20.384  0.00  0.00    +0.000 A 
ATOM     14  O   UNL     1       1.418  15.361  20.665  0.00  0.00    +0.000 OA
ATOM     15  C   UNL     1       0.306  15.426  19.901  0.00  0.00    +0.000 A 
ATOM     16  C   UNL     1       0.207  14.306  19.115  0.00  0.00    +0.000 A 
ATOM     17  C   UNL     1       1.279  13.434  19.481  0.00  0.00    +0.000 A 
ENDBRANCH   1  17
BRANCH  11  18
ATOM     18  O   UNL     1       3.143   6.852  19.946  0.00  0.00    +0.000 OA
BRANCH  18  19
ATOM     19  C   UNL     1       3.468   5.543  19.756  0.00  0.00    +0.000 A 
ATOM     20  C   UNL     1       4.602   5.038  19.132  0.00  0.00    +0.000 A 
ATOM     21  C   UNL     1       4.799   3.656  19.073  0.00  0.00    +0.000 A 
ATOM     22  C   UNL     1       3.839   2.822  19.623  0.00  0.00    +0.000 A 
ATOM     23  N   UNL     1       2.714   3.269  20.212  0.00  0.00    +0.000 NA
ATOM     24  C   UNL     1       2.560   4.617  20.264  0.00  0.00    +0.000 A 
ENDBRANCH  18  19
ENDBRANCH  11  18
TORSDOF 3
ENDMDL
MODEL 9
REMARK VINA RESULT:      -6.1      2.935      4.810
REMARK  Name = 
REMARK  4 active torsions:
REMARK  status: ('A' for Active; 'I' for Inactive)
REMARK    1  A    between atoms: C_1  and  C_2
REMARK    2  A    between atoms: C_6  and  C_7
REMARK    3  A    between atoms: C_17  and  O_18
REMARK    4  A    between atoms: O_18  and  C_19
REMARK                            x       y       z     vdW  Elec       q    Type
REMARK                         _______ _______ _______ _____ _____    ______ ____
ROOT
ATOM      1  C   UNL     1       2.133   7.109  19.166  0.00  0.00    +0.000 C 
ATOM      2  O   UNL     1       2.399   7.329  17.985  0.00  0.00    +0.000 OA
ATOM      3  N   UNL     1       1.621   8.106  20.009  0.00  0.00    +0.000 N 
ATOM      4  C   UNL     1       1.081   7.875  21.364  0.00  0.00    +0.000 C 
ATOM      5  C   UNL     1      -0.229   8.644  21.667  0.00  0.00    +0.000 C 
ATOM      6  O   UNL     1      -0.263   9.984  21.152  0.00  0.00    +0.000 OA
ATOM      7  C   UNL     1       0.062   9.960  19.754  0.00  0.00    +0.000 C 
ATOM      8  C   UNL     1       1.524   9.525  19.625  0.00  0.00    +0.000 C 
ATOM      9  C   UNL     1       1.919  10.046  18.253  0.00  0.00    +0.000 C 
ATOM     10  C   UNL     1       1.183  11.387  18.129  0.00  0.00    +0.000 C 
ATOM     11  C   UNL     1      -0.012  11.340  19.098  0.00  0.00    +0.000 C 
ENDROOT
BRANCH   1  17
ATOM     12  C   UNL     1       4.936   5.399  19.204  0.00  0.00    +0.000 C 
ATOM     13  C   UNL     1       3.572   5.076  19.684  0.00  0.00    +0.000 A 
ATOM     14  O   UNL     1       3.433   3.838  20.235  0.00  0.00    +0.000 OA
ATOM     15  C   UNL     1       2.161   3.735  20.679  0.00  0.00    +0.000 A 
ATOM     16  C   UNL     1       1.481   4.903  20.438  0.00  0.00    +0.000 A 
ATOM     17  C   UNL     1       2.358   5.762  19.705  0.00  0.00    +0.000 A 
ENDBRANCH   1  17
BRANCH  11  18
ATOM     18  O   UNL     1      -1.208  11.449  18.312  0.00  0.00    +0.000 OA
BRANCH  18  19
ATOM     19  C   UNL     1      -2.372  11.844  18.899  0.00  0.00    +0.000 A 
ATOM     20  C   UNL     1      -2.520  12.560  20.081  0.00  0.00    +0.000 A 
ATOM     21  C   UNL     1      -3.798  12.926  20.510  0.00  0.00    +0.000 A 
ATOM     22  C   UNL     1      -4.892  12.543  19.751  0.00  0.00    +0.000 A 
ATOM     23  N   UNL     1      -4.794  11.825  18.615  0.00  0.00    +0.000 NA
ATOM     24  C   UNL     1      -3.537  11.497  18.220  0.00  0.00    +0.000 A 
ENDBRANCH  18  19
ENDBRANCH  11  18
TORSDOF 3
ENDMDL
