MODEL 1
REMARK VINA RESULT:      -7.4      0.000      0.000
REMARK  Name = 
REMARK  3 active torsions:
REMARK  status: ('A' for Active; 'I' for Inactive)
REMARK    1  A    between atoms: C_5  and  C_6
REMARK    2  A    between atoms: N_12  and  C_13
REMARK    3  A    between atoms: C_13  and  C_14
REMARK                            x       y       z     vdW  Elec       q    Type
REMARK                         _______ _______ _______ _____ _____    ______ ____
ROOT
ATOM      1  O   UNL     1       0.717   4.095  19.958  0.00  0.00    +0.000 OA
ATOM      2  C   UNL     1       1.663   3.641  19.320  0.00  0.00    +0.000 C 
ATOM      3  C   UNL     1       1.604   2.308  18.618  0.00  0.00    +0.000 C 
ATOM      4  S   UNL     1       3.216   2.020  17.876  0.00  0.00    +0.000 S 
ATOM      5  C   UNL     1       3.976   3.450  18.682  0.00  0.00    +0.000 C 
ATOM      6  N   UNL     1       2.896   4.273  19.199  0.00  0.00    +0.000 N 
ENDROOT
BRANCH   5   7
ATOM      7  C   UNL     1       4.921   4.182  17.765  0.00  0.00    +0.000 A 
ATOM      8  C   UNL     1       4.568   4.596  16.473  0.00  0.00    +0.000 A 
ATOM      9  C   UNL     1       5.457   5.349  15.711  0.00  0.00    +0.000 A 
ATOM     10  C   UNL     1       6.698   5.637  16.251  0.00  0.00    +0.000 A 
ATOM     11  N   UNL     1       7.097   5.221  17.471  0.00  0.00    +0.000 NA
ATOM     12  C   UNL     1       6.207   4.502  18.193  0.00  0.00    +0.000 A 
ENDBRANCH   5   7
BRANCH   6  13
ATOM     13  C   UNL     1       3.198   5.398  20.083  0.00  0.00    +0.000 C 
BRANCH  13  14
ATOM     14  C   UNL     1       2.580   6.719  19.667  0.00  0.00    +0.000 A 
ATOM     15  C   UNL     1       2.733   7.182  18.352  0.00  0.00    +0.000 A 
ATOM     16  C   UNL     1       2.151   8.387  17.944  0.00  0.00    +0.000 A 
ATOM     17  C   UNL     1       1.388   9.142  18.839  0.00  0.00    +0.000 A 
ATOM     18 CL   UNL     1       0.718  10.633  18.278  0.00  0.00    +0.000 Cl
ATOM     19  C   UNL     1       1.196   8.677  20.138  0.00  0.00    +0.000 A 
ATOM     20 CL   UNL     1       0.236   9.522  21.301  0.00  0.00    +0.000 Cl
ATOM     21  C   UNL     1       1.788   7.476  20.540  0.00  0.00    +0.000 A 
ENDBRANCH  13  14
ENDBRANCH   6  13
TORSDOF 3
ENDMDL
MODEL 2
REMARK VINA RESULT:      -7.3      0.626      1.053
REMARK  Name = 
REMARK  3 active torsions:
REMARK  status: ('A' for Active; 'I' for Inactive)
REMARK    1  A    between atoms: C_5  and  C_6
REMARK    2  A    between atoms: N_12  and  C_13
REMARK    3  A    between atoms: C_13  and  C_14
REMARK                            x       y       z     vdW  Elec       q    Type
REMARK                         _______ _______ _______ _____ _____    ______ ____
ROOT
ATOM      1  O   UNL     1       0.616   3.931  20.016  0.00  0.00    +0.000 OA
ATOM      2  C   UNL     1       1.589   3.514  19.396  0.00  0.00    +0.000 C 
ATOM      3  C   UNL     1       1.582   2.195  18.665  0.00  0.00    +0.000 C 
ATOM      4  S   UNL     1       3.220   1.961  17.962  0.00  0.00    +0.000 S 
ATOM      5  C   UNL     1       3.923   3.391  18.818  0.00  0.00    +0.000 C 
ATOM      6  N   UNL     1       2.809   4.177  19.322  0.00  0.00    +0.000 N 
ENDROOT
BRANCH   5   7
ATOM      7  C   UNL     1       4.874   4.165  17.943  0.00  0.00    +0.000 A 
ATOM      8  C   UNL     1       6.105   4.659  18.398  0.00  0.00    +0.000 A 
ATOM      9  C   UNL     1       6.979   5.285  17.515  0.00  0.00    +0.000 A 
ATOM     10  C   UNL     1       6.581   5.436  16.199  0.00  0.00    +0.000 A 
ATOM     11  N   UNL     1       5.388   5.016  15.727  0.00  0.00    +0.000 NA
ATOM     12  C   UNL     1       4.565   4.400  16.606  0.00  0.00    +0.000 A 
ENDBRANCH   5   7
BRANCH   6  13
ATOM     13  C   UNL     1       3.060   5.290  20.237  0.00  0.00    +0.000 C 
BRANCH  13  14
ATOM     14  C   UNL     1       2.504   6.625  19.783  0.00  0.00    +0.000 A 
ATOM     15  C   UNL     1       2.695   7.053  18.461  0.00  0.00    +0.000 A 
ATOM     16  C   UNL     1       2.170   8.272  18.018  0.00  0.00    +0.000 A 
ATOM     17  C   UNL     1       1.427   9.077  18.884  0.00  0.00    +0.000 A 
ATOM     18 CL   UNL     1       0.827  10.581  18.281  0.00  0.00    +0.000 Cl
ATOM     19  C   UNL     1       1.197   8.650  20.191  0.00  0.00    +0.000 A 
ATOM     20 CL   UNL     1       0.257   9.560  21.320  0.00  0.00    +0.000 Cl
ATOM     21  C   UNL     1       1.732   7.434  20.628  0.00  0.00    +0.000 A 
ENDBRANCH  13  14
ENDBRANCH   6  13
TORSDOF 3
ENDMDL
MODEL 3
REMARK VINA RESULT:      -7.1      1.184      1.542
REMARK  Name = 
REMARK  3 active torsions:
REMARK  status: ('A' for Active; 'I' for Inactive)
REMARK    1  A    between atoms: C_5  and  C_6
REMARK    2  A    between atoms: N_12  and  C_13
REMARK    3  A    between atoms: C_13  and  C_14
REMARK                            x       y       z     vdW  Elec       q    Type
REMARK                         _______ _______ _______ _____ _____    ______ ____
ROOT
ATOM      1  O   UNL     1       1.033   4.082  18.902  0.00  0.00    +0.000 OA
ATOM      2  C   UNL     1       2.192   3.937  18.525  0.00  0.00    +0.000 C 
ATOM      3  C   UNL     1       2.609   2.830  17.591  0.00  0.00    +0.000 C 
ATOM      4  S   UNL     1       4.388   2.959  17.364  0.00  0.00    +0.000 S 
ATOM      5  C   UNL     1       4.579   4.227  18.640  0.00  0.00    +0.000 C 
ATOM      6  N   UNL     1       3.251   4.739  18.935  0.00  0.00    +0.000 N 
ENDROOT
BRANCH   5   7
ATOM      7  C   UNL     1       5.571   5.288  18.241  0.00  0.00    +0.000 A 
ATOM      8  C   UNL     1       6.733   5.565  18.974  0.00  0.00    +0.000 A 
ATOM      9  C   UNL     1       7.655   6.495  18.502  0.00  0.00    +0.000 A 
ATOM     10  C   UNL     1       7.371   7.153  17.320  0.00  0.00    +0.000 A 
ATOM     11  N   UNL     1       6.245   6.951  16.603  0.00  0.00    +0.000 NA
ATOM     12  C   UNL     1       5.374   6.034  17.081  0.00  0.00    +0.000 A 
ENDBRANCH   5   7
BRANCH   6  13
ATOM     13  C   UNL     1       3.055   5.634  20.076  0.00  0.00    +0.000 C 
BRANCH  13  14
ATOM     14  C   UNL     1       2.423   6.969  19.736  0.00  0.00    +0.000 A 
ATOM     15  C   UNL     1       2.554   7.499  18.444  0.00  0.00    +0.000 A 
ATOM     16  C   UNL     1       1.959   8.720  18.105  0.00  0.00    +0.000 A 
ATOM     17  C   UNL     1       1.205   9.424  19.047  0.00  0.00    +0.000 A 
ATOM     18 CL   UNL     1       0.518  10.936  18.571  0.00  0.00    +0.000 Cl
ATOM     19  C   UNL     1       1.034   8.892  20.324  0.00  0.00    +0.000 A 
ATOM     20 CL   UNL     1       0.086   9.671  21.541  0.00  0.00    +0.000 Cl
ATOM     21  C   UNL     1       1.639   7.676  20.657  0.00  0.00    +0.000 A 
ENDBRANCH  13  14
ENDBRANCH   6  13
TORSDOF 3
ENDMDL
MODEL 4
REMARK VINA RESULT:      -6.8      1.264      1.402
REMARK  Name = 
REMARK  3 active torsions:
REMARK  status: ('A' for Active; 'I' for Inactive)
REMARK    1  A    between atoms: C_5  and  C_6
REMARK    2  A    between atoms: N_12  and  C_13
REMARK    3  A    between atoms: C_13  and  C_14
REMARK                            x       y       z     vdW  Elec       q    Type
REMARK                         _______ _______ _______ _____ _____    ______ ____
ROOT
ATOM      1  O   UNL     1       1.142   4.235  18.483  0.00  0.00    +0.000 OA
ATOM      2  C   UNL     1       2.320   4.075  18.180  0.00  0.00    +0.000 C 
ATOM      3  C   UNL     1       2.769   3.023  17.196  0.00  0.00    +0.000 C 
ATOM      4  S   UNL     1       4.563   3.102  17.107  0.00  0.00    +0.000 S 
ATOM      5  C   UNL     1       4.700   4.266  18.484  0.00  0.00    +0.000 C 
ATOM      6  N   UNL     1       3.372   4.805  18.723  0.00  0.00    +0.000 N 
ENDROOT
BRANCH   5   7
ATOM      7  C   UNL     1       5.753   5.315  18.237  0.00  0.00    +0.000 A 
ATOM      8  C   UNL     1       5.647   6.285  17.231  0.00  0.00    +0.000 A 
ATOM      9  C   UNL     1       6.610   7.283  17.114  0.00  0.00    +0.000 A 
ATOM     10  C   UNL     1       7.681   7.262  17.989  0.00  0.00    +0.000 A 
ATOM     11  N   UNL     1       7.847   6.322  18.944  0.00  0.00    +0.000 NA
ATOM     12  C   UNL     1       6.889   5.373  19.041  0.00  0.00    +0.000 A 
ENDBRANCH   5   7
BRANCH   6  13
ATOM     13  C   UNL     1       3.121   5.621  19.910  0.00  0.00    +0.000 C 
BRANCH  13  14
ATOM     14  C   UNL     1       2.466   6.960  19.635  0.00  0.00    +0.000 A 
ATOM     15  C   UNL     1       2.537   7.526  18.353  0.00  0.00    +0.000 A 
ATOM     16  C   UNL     1       1.921   8.751  18.075  0.00  0.00    +0.000 A 
ATOM     17  C   UNL     1       1.205   9.424  19.068  0.00  0.00    +0.000 A 
ATOM     18 CL   UNL     1       0.488  10.943  18.665  0.00  0.00    +0.000 Cl
ATOM     19  C   UNL     1       1.094   8.857  20.336  0.00  0.00    +0.000 A 
ATOM     20 CL   UNL     1       0.196   9.596  21.615  0.00  0.00    +0.000 Cl
ATOM     21  C   UNL     1       1.720   7.637  20.609  0.00  0.00    +0.000 A 
ENDBRANCH  13  14
ENDBRANCH   6  13
TORSDOF 3
ENDMDL
MODEL 5
REMARK VINA RESULT:      -6.8      0.999      1.687
REMARK  Name = 
REMARK  3 active torsions:
REMARK  status: ('A' for Active; 'I' for Inactive)
REMARK    1  A    between atoms: C_5  and  C_6
REMARK    2  A    between atoms: N_12  and  C_13
REMARK    3  A    between atoms: C_13  and  C_14
REMARK                            x       y       z     vdW  Elec       q    Type
REMARK                         _______ _______ _______ _____ _____    ______ ____
ROOT
ATOM      1  O   UNL     1       0.444   3.687  19.980  0.00  0.00    +0.000 OA
ATOM      2  C   UNL     1       1.478   3.510  19.344  0.00  0.00    +0.000 C 
ATOM      3  C   UNL     1       1.647   2.368  18.373  0.00  0.00    +0.000 C 
ATOM      4  S   UNL     1       3.323   2.457  17.727  0.00  0.00    +0.000 S 
ATOM      5  C   UNL     1       3.826   3.757  18.879  0.00  0.00    +0.000 C 
ATOM      6  N   UNL     1       2.614   4.302  19.465  0.00  0.00    +0.000 N 
ENDROOT
BRANCH   5   7
ATOM      7  C   UNL     1       4.708   4.787  18.221  0.00  0.00    +0.000 A 
ATOM      8  C   UNL     1       4.361   5.447  17.034  0.00  0.00    +0.000 A 
ATOM      9  C   UNL     1       5.177   6.454  16.528  0.00  0.00    +0.000 A 
ATOM     10  C   UNL     1       6.345   6.751  17.207  0.00  0.00    +0.000 A 
ATOM     11  N   UNL     1       6.741   6.111  18.328  0.00  0.00    +0.000 NA
ATOM     12  C   UNL     1       5.922   5.146  18.802  0.00  0.00    +0.000 A 
ENDBRANCH   5   7
BRANCH   6  13
ATOM     13  C   UNL     1       2.704   5.233  20.590  0.00  0.00    +0.000 C 
BRANCH  13  14
ATOM     14  C   UNL     1       2.081   6.592  20.343  0.00  0.00    +0.000 A 
ATOM     15  C   UNL     1       1.283   7.188  21.330  0.00  0.00    +0.000 A 
ATOM     16  C   UNL     1       0.717   8.452  21.129  0.00  0.00    +0.000 A 
ATOM     17  C   UNL     1       0.955   9.153  19.944  0.00  0.00    +0.000 A 
ATOM     18 CL   UNL     1       0.207  10.698  19.750  0.00  0.00    +0.000 Cl
ATOM     19  C   UNL     1       1.777   8.590  18.968  0.00  0.00    +0.000 A 
ATOM     20 CL   UNL     1       2.160   9.399  17.490  0.00  0.00    +0.000 Cl
ATOM     21  C   UNL     1       2.331   7.323  19.174  0.00  0.00    +0.000 A 
ENDBRANCH  13  14
ENDBRANCH   6  13
TORSDOF 3
ENDMDL
MODEL 6
REMARK VINA RESULT:      -6.7      3.146      4.823
REMARK  Name = 
REMARK  3 active torsions:
REMARK  status: ('A' for Active; 'I' for Inactive)
REMARK    1  A    between atoms: C_5  and  C_6
REMARK    2  A    between atoms: N_12  and  C_13
REMARK    3  A    between atoms: C_13  and  C_14
REMARK                            x       y       z     vdW  Elec       q    Type
REMARK                         _______ _______ _______ _____ _____    ______ ____
ROOT
ATOM      1  O   UNL     1       3.959   1.359  18.568  0.00  0.00    +0.000 OA
ATOM      2  C   UNL     1       3.102   2.192  18.848  0.00  0.00    +0.000 C 
ATOM      3  C   UNL     1       2.000   1.921  19.841  0.00  0.00    +0.000 C 
ATOM      4  S   UNL     1       0.948   3.378  19.888  0.00  0.00    +0.000 S 
ATOM      5  C   UNL     1       1.774   4.167  18.486  0.00  0.00    +0.000 C 
ATOM      6  N   UNL     1       3.020   3.453  18.267  0.00  0.00    +0.000 N 
ENDROOT
BRANCH   5   7
ATOM      7  C   UNL     1       1.943   5.650  18.688  0.00  0.00    +0.000 A 
ATOM      8  C   UNL     1       1.966   6.570  17.631  0.00  0.00    +0.000 A 
ATOM      9  C   UNL     1       2.033   7.935  17.891  0.00  0.00    +0.000 A 
ATOM     10  C   UNL     1       2.114   8.346  19.210  0.00  0.00    +0.000 A 
ATOM     11  N   UNL     1       2.140   7.494  20.257  0.00  0.00    +0.000 NA
ATOM     12  C   UNL     1       2.061   6.174  19.973  0.00  0.00    +0.000 A 
ENDBRANCH   5   7
BRANCH   6  13
ATOM     13  C   UNL     1       3.815   3.727  17.070  0.00  0.00    +0.000 C 
BRANCH  13  14
ATOM     14  C   UNL     1       4.886   4.785  17.246  0.00  0.00    +0.000 A 
ATOM     15  C   UNL     1       4.932   5.889  16.382  0.00  0.00    +0.000 A 
ATOM     16  C   UNL     1       5.900   6.886  16.542  0.00  0.00    +0.000 A 
ATOM     17  C   UNL     1       6.828   6.809  17.582  0.00  0.00    +0.000 A 
ATOM     18 CL   UNL     1       8.012   8.061  17.710  0.00  0.00    +0.000 Cl
ATOM     19  C   UNL     1       6.774   5.738  18.473  0.00  0.00    +0.000 A 
ATOM     20 CL   UNL     1       7.854   5.579  19.812  0.00  0.00    +0.000 Cl
ATOM     21  C   UNL     1       5.808   4.741  18.300  0.00  0.00    +0.000 A 
ENDBRANCH  13  14
ENDBRANCH   6  13
TORSDOF 3
ENDMDL
MODEL 7
REMARK VINA RESULT:      -6.7      2.258      3.983
REMARK  Name = 
REMARK  3 active torsions:
REMARK  status: ('A' for Active; 'I' for Inactive)
REMARK    1  A    between atoms: C_5  and  C_6
REMARK    2  A    between atoms: N_12  and  C_13
REMARK    3  A    between atoms: C_13  and  C_14
REMARK                            x       y       z     vdW  Elec       q    Type
REMARK                         _______ _______ _______ _____ _____    ______ ____
ROOT
ATOM      1  O   UNL     1       6.423   8.224  17.315  0.00  0.00    +0.000 OA
ATOM      2  C   UNL     1       6.399   6.999  17.367  0.00  0.00    +0.000 C 
ATOM      3  C   UNL     1       7.647   6.166  17.514  0.00  0.00    +0.000 C 
ATOM      4  S   UNL     1       7.149   4.439  17.479  0.00  0.00    +0.000 S 
ATOM      5  C   UNL     1       5.439   4.817  17.028  0.00  0.00    +0.000 C 
ATOM      6  N   UNL     1       5.239   6.237  17.261  0.00  0.00    +0.000 N 
ENDROOT
BRANCH   5   7
ATOM      7  C   UNL     1       4.454   3.932  17.747  0.00  0.00    +0.000 A 
ATOM      8  C   UNL     1       3.267   3.472  17.161  0.00  0.00    +0.000 A 
ATOM      9  C   UNL     1       2.445   2.583  17.847  0.00  0.00    +0.000 A 
ATOM     10  C   UNL     1       2.816   2.204  19.125  0.00  0.00    +0.000 A 
ATOM     11  N   UNL     1       3.926   2.657  19.745  0.00  0.00    +0.000 NA
ATOM     12  C   UNL     1       4.711   3.510  19.049  0.00  0.00    +0.000 A 
ENDBRANCH   5   7
BRANCH   6  13
ATOM     13  C   UNL     1       4.014   6.885  16.796  0.00  0.00    +0.000 C 
BRANCH  13  14
ATOM     14  C   UNL     1       3.099   7.384  17.897  0.00  0.00    +0.000 A 
ATOM     15  C   UNL     1       2.961   6.647  19.082  0.00  0.00    +0.000 A 
ATOM     16  C   UNL     1       2.139   7.102  20.119  0.00  0.00    +0.000 A 
ATOM     17  C   UNL     1       1.454   8.314  19.997  0.00  0.00    +0.000 A 
ATOM     18 CL   UNL     1       0.437   8.807  21.304  0.00  0.00    +0.000 Cl
ATOM     19  C   UNL     1       1.610   9.077  18.841  0.00  0.00    +0.000 A 
ATOM     20 CL   UNL     1       0.836  10.606  18.619  0.00  0.00    +0.000 Cl
ATOM     21  C   UNL     1       2.427   8.610  17.807  0.00  0.00    +0.000 A 
ENDBRANCH  13  14
ENDBRANCH   6  13
TORSDOF 3
ENDMDL
MODEL 8
REMARK VINA RESULT:      -6.6      1.086      1.965
REMARK  Name = 
REMARK  3 active torsions:
REMARK  status: ('A' for Active; 'I' for Inactive)
REMARK    1  A    between atoms: C_5  and  C_6
REMARK    2  A    between atoms: N_12  and  C_13
REMARK    3  A    between atoms: C_13  and  C_14
REMARK                            x       y       z     vdW  Elec       q    Type
REMARK                         _______ _______ _______ _____ _____    ______ ____
ROOT
ATOM      1  O   UNL     1       0.512   3.690  19.831  0.00  0.00    +0.000 OA
ATOM      2  C   UNL     1       1.577   3.514  19.249  0.00  0.00    +0.000 C 
ATOM      3  C   UNL     1       1.792   2.385  18.272  0.00  0.00    +0.000 C 
ATOM      4  S   UNL     1       3.501   2.471  17.718  0.00  0.00    +0.000 S 
ATOM      5  C   UNL     1       3.949   3.752  18.914  0.00  0.00    +0.000 C 
ATOM      6  N   UNL     1       2.710   4.297  19.442  0.00  0.00    +0.000 N 
ENDROOT
BRANCH   5   7
ATOM      7  C   UNL     1       4.871   4.785  18.320  0.00  0.00    +0.000 A 
ATOM      8  C   UNL     1       6.055   5.204  18.943  0.00  0.00    +0.000 A 
ATOM      9  C   UNL     1       6.908   6.094  18.298  0.00  0.00    +0.000 A 
ATOM     10  C   UNL     1       6.535   6.573  17.055  0.00  0.00    +0.000 A 
ATOM     11  N   UNL     1       5.384   6.232  16.438  0.00  0.00    +0.000 NA
ATOM     12  C   UNL     1       4.581   5.356  17.084  0.00  0.00    +0.000 A 
ENDBRANCH   5   7
BRANCH   6  13
ATOM     13  C   UNL     1       2.745   5.211  20.583  0.00  0.00    +0.000 C 
BRANCH  13  14
ATOM     14  C   UNL     1       2.118   6.568  20.332  0.00  0.00    +0.000 A 
ATOM     15  C   UNL     1       1.326   7.170  21.321  0.00  0.00    +0.000 A 
ATOM     16  C   UNL     1       0.757   8.431  21.116  0.00  0.00    +0.000 A 
ATOM     17  C   UNL     1       0.984   9.124  19.924  0.00  0.00    +0.000 A 
ATOM     18 CL   UNL     1       0.232  10.666  19.724  0.00  0.00    +0.000 Cl
ATOM     19  C   UNL     1       1.798   8.556  18.945  0.00  0.00    +0.000 A 
ATOM     20 CL   UNL     1       2.168   9.354  17.458  0.00  0.00    +0.000 Cl
ATOM     21  C   UNL     1       2.357   7.291  19.155  0.00  0.00    +0.000 A 
ENDBRANCH  13  14
ENDBRANCH   6  13
TORSDOF 3
ENDMDL
MODEL 9
REMARK VINA RESULT:      -6.5      1.553      2.358
REMARK  Name = 
REMARK  3 active torsions:
REMARK  status: ('A' for Active; 'I' for Inactive)
REMARK    1  A    between atoms: C_5  and  C_6
REMARK    2  A    between atoms: N_12  and  C_13
REMARK    3  A    between atoms: C_13  and  C_14
REMARK                            x       y       z     vdW  Elec       q    Type
REMARK                         _______ _______ _______ _____ _____    ______ ____
ROOT
ATOM      1  O   UNL     1       1.270   4.197  18.350  0.00  0.00    +0.000 OA
ATOM      2  C   UNL     1       2.438   4.137  17.978  0.00  0.00    +0.000 C 
ATOM      3  C   UNL     1       2.876   3.294  16.808  0.00  0.00    +0.000 C 
ATOM      4  S   UNL     1       4.661   3.455  16.666  0.00  0.00    +0.000 S 
ATOM      5  C   UNL     1       4.822   4.362  18.223  0.00  0.00    +0.000 C 
ATOM      6  N   UNL     1       3.490   4.799  18.603  0.00  0.00    +0.000 N 
ENDROOT
BRANCH   5   7
ATOM      7  C   UNL     1       5.831   5.477  18.127  0.00  0.00    +0.000 A 
ATOM      8  C   UNL     1       6.965   5.557  18.947  0.00  0.00    +0.000 A 
ATOM      9  C   UNL     1       7.906   6.563  18.746  0.00  0.00    +0.000 A 
ATOM     10  C   UNL     1       7.667   7.490  17.748  0.00  0.00    +0.000 A 
ATOM     11  N   UNL     1       6.568   7.478  16.964  0.00  0.00    +0.000 NA
ATOM     12  C   UNL     1       5.678   6.482  17.175  0.00  0.00    +0.000 A 
ENDBRANCH   5   7
BRANCH   6  13
ATOM     13  C   UNL     1       3.266   5.383  19.925  0.00  0.00    +0.000 C 
BRANCH  13  14
ATOM     14  C   UNL     1       2.451   6.661  19.927  0.00  0.00    +0.000 A 
ATOM     15  C   UNL     1       1.664   6.990  21.040  0.00  0.00    +0.000 A 
ATOM     16  C   UNL     1       0.922   8.176  21.068  0.00  0.00    +0.000 A 
ATOM     17  C   UNL     1       0.969   9.066  19.992  0.00  0.00    +0.000 A 
ATOM     18 CL   UNL     1       0.010  10.500  20.080  0.00  0.00    +0.000 Cl
ATOM     19  C   UNL     1       1.775   8.771  18.894  0.00  0.00    +0.000 A 
ATOM     20 CL   UNL     1       1.928   9.829  17.536  0.00  0.00    +0.000 Cl
ATOM     21  C   UNL     1       2.507   7.579  18.870  0.00  0.00    +0.000 A 
ENDBRANCH  13  14
ENDBRANCH   6  13
TORSDOF 3
ENDMDL
