MODEL 1
REMARK VINA RESULT:      -8.2      0.000      0.000
REMARK  Name = 
REMARK  8 active torsions:
REMARK  status: ('A' for Active; 'I' for Inactive)
REMARK    1  A    between atoms: C_1  and  C_2
REMARK    2  A    between atoms: C_2  and  N_3
REMARK    3  A    between atoms: C_4  and  C_5
REMARK    4  A    between atoms: C_5  and  C_6
REMARK    5  A    between atoms: C_6  and  C_7
REMARK    6  A    between atoms: C_16  and  C_17
REMARK    7  A    between atoms: C_18  and  C_19
REMARK    8  A    between atoms: N_21  and  O_22
REMARK                            x       y       z     vdW  Elec       q    Type
REMARK                         _______ _______ _______ _____ _____    ______ ____
ROOT
ATOM      1  N   UNL     1       1.944   4.845  19.908  0.00  0.00    +0.000 N 
ATOM      2  C   UNL     1       2.111   6.219  19.942  0.00  0.00    +0.000 A 
ATOM      3  N   UNL     1       2.910   6.609  18.965  0.00  0.00    +0.000 NA
ATOM      4  C   UNL     1       3.331   5.474  18.335  0.00  0.00    +0.000 A 
ATOM      5  C   UNL     1       4.235   5.336  17.267  0.00  0.00    +0.000 A 
ATOM      6  C   UNL     1       4.569   4.054  16.806  0.00  0.00    +0.000 A 
ATOM      7  C   UNL     1       3.956   2.934  17.386  0.00  0.00    +0.000 A 
ATOM      8  C   UNL     1       3.036   3.056  18.439  0.00  0.00    +0.000 A 
ATOM      9  C   UNL     1       2.751   4.348  18.897  0.00  0.00    +0.000 A 
ENDROOT
BRANCH   1  11
ATOM     10  C   UNL     1       2.096   3.139  21.751  0.00  0.00    +0.000 C 
ATOM     11  C   UNL     1       1.225   3.989  20.831  0.00  0.00    +0.000 C 
ENDBRANCH   1  11
BRANCH   6  12
ATOM     12  C   UNL     1       5.521   3.855  15.698  0.00  0.00    +0.000 C 
ATOM     13  C   UNL     1       5.638   4.709  14.670  0.00  0.00    +0.000 C 
BRANCH  13  14
ATOM     14  C   UNL     1       6.606   4.453  13.577  0.00  0.00    +0.000 C 
ATOM     15  O   UNL     1       7.544   5.188  13.310  0.00  0.00    +0.000 OA
ATOM     16  N   UNL     1       6.346   3.290  12.897  0.00  0.00    +0.000 N 
ATOM     17  H   UNL     1       5.610   2.628  13.108  0.00  0.00    +0.000 HD
BRANCH  16  18
ATOM     18  O   UNL     1       7.246   2.942  11.867  0.00  0.00    +0.000 OA
ATOM     19  H   UNL     1       7.216   3.735  11.288  0.00  0.00    +0.000 HD
ENDBRANCH  16  18
ENDBRANCH  13  14
ENDBRANCH   6  12
BRANCH   2  20
ATOM     20  C   UNL     1       1.463   7.208  20.867  0.00  0.00    +0.000 C 
BRANCH  20  21
ATOM     21  C   UNL     1       1.349   8.661  20.386  0.00  0.00    +0.000 C 
BRANCH  21  22
ATOM     22  C   UNL     1       0.514   9.626  21.192  0.00  0.00    +0.000 A 
ATOM     23  C   UNL     1       0.133  10.881  20.698  0.00  0.00    +0.000 A 
ATOM     24  C   UNL     1      -0.650  11.742  21.472  0.00  0.00    +0.000 A 
ATOM     25  C   UNL     1      -1.077  11.354  22.740  0.00  0.00    +0.000 A 
ATOM     26  C   UNL     1      -0.741  10.095  23.228  0.00  0.00    +0.000 A 
ATOM     27  C   UNL     1       0.041   9.234  22.456  0.00  0.00    +0.000 A 
ENDBRANCH  21  22
ENDBRANCH  20  21
ENDBRANCH   2  20
TORSDOF 7
ENDMDL
MODEL 2
REMARK VINA RESULT:      -8.1      0.781      1.376
REMARK  Name = 
REMARK  8 active torsions:
REMARK  status: ('A' for Active; 'I' for Inactive)
REMARK    1  A    between atoms: C_1  and  C_2
REMARK    2  A    between atoms: C_2  and  N_3
REMARK    3  A    between atoms: C_4  and  C_5
REMARK    4  A    between atoms: C_5  and  C_6
REMARK    5  A    between atoms: C_6  and  C_7
REMARK    6  A    between atoms: C_16  and  C_17
REMARK    7  A    between atoms: C_18  and  C_19
REMARK    8  A    between atoms: N_21  and  O_22
REMARK                            x       y       z     vdW  Elec       q    Type
REMARK                         _______ _______ _______ _____ _____    ______ ____
ROOT
ATOM      1  N   UNL     1       1.850   4.827  19.832  0.00  0.00    +0.000 N 
ATOM      2  C   UNL     1       2.014   6.192  19.991  0.00  0.00    +0.000 A 
ATOM      3  N   UNL     1       2.889   6.654  19.116  0.00  0.00    +0.000 NA
ATOM      4  C   UNL     1       3.359   5.572  18.432  0.00  0.00    +0.000 A 
ATOM      5  C   UNL     1       4.345   5.514  17.431  0.00  0.00    +0.000 A 
ATOM      6  C   UNL     1       4.715   4.272  16.895  0.00  0.00    +0.000 A 
ATOM      7  C   UNL     1       4.057   3.113  17.331  0.00  0.00    +0.000 A 
ATOM      8  C   UNL     1       3.056   3.156  18.313  0.00  0.00    +0.000 A 
ATOM      9  C   UNL     1       2.736   4.408  18.851  0.00  0.00    +0.000 A 
ENDROOT
BRANCH   1  11
ATOM     10  C   UNL     1       1.833   3.100  21.662  0.00  0.00    +0.000 C 
ATOM     11  C   UNL     1       1.059   3.903  20.622  0.00  0.00    +0.000 C 
ENDBRANCH   1  11
BRANCH   6  12
ATOM     12  C   UNL     1       5.752   4.157  15.854  0.00  0.00    +0.000 C 
ATOM     13  C   UNL     1       5.827   4.983  14.799  0.00  0.00    +0.000 C 
BRANCH  13  14
ATOM     14  C   UNL     1       6.887   4.814  13.777  0.00  0.00    +0.000 C 
ATOM     15  O   UNL     1       6.813   4.036  12.838  0.00  0.00    +0.000 OA
ATOM     16  N   UNL     1       7.966   5.636  13.987  0.00  0.00    +0.000 N 
ATOM     17  H   UNL     1       8.055   6.325  14.722  0.00  0.00    +0.000 HD
BRANCH  16  18
ATOM     18  O   UNL     1       9.005   5.575  13.035  0.00  0.00    +0.000 OA
ATOM     19  H   UNL     1       9.790   5.832  13.567  0.00  0.00    +0.000 HD
ENDBRANCH  16  18
ENDBRANCH  13  14
ENDBRANCH   6  12
BRANCH   2  20
ATOM     20  C   UNL     1       1.295   7.107  20.939  0.00  0.00    +0.000 C 
BRANCH  20  21
ATOM     21  C   UNL     1       1.477   8.618  20.743  0.00  0.00    +0.000 C 
BRANCH  21  22
ATOM     22  C   UNL     1       0.544   9.559  21.467  0.00  0.00    +0.000 A 
ATOM     23  C   UNL     1      -0.060   9.224  22.685  0.00  0.00    +0.000 A 
ATOM     24  C   UNL     1      -0.910  10.128  23.329  0.00  0.00    +0.000 A 
ATOM     25  C   UNL     1      -1.152  11.383  22.774  0.00  0.00    +0.000 A 
ATOM     26  C   UNL     1      -0.526  11.745  21.584  0.00  0.00    +0.000 A 
ATOM     27  C   UNL     1       0.322  10.843  20.941  0.00  0.00    +0.000 A 
ENDBRANCH  21  22
ENDBRANCH  20  21
ENDBRANCH   2  20
TORSDOF 7
ENDMDL
MODEL 3
REMARK VINA RESULT:      -8.1      1.122      1.492
REMARK  Name = 
REMARK  8 active torsions:
REMARK  status: ('A' for Active; 'I' for Inactive)
REMARK    1  A    between atoms: C_1  and  C_2
REMARK    2  A    between atoms: C_2  and  N_3
REMARK    3  A    between atoms: C_4  and  C_5
REMARK    4  A    between atoms: C_5  and  C_6
REMARK    5  A    between atoms: C_6  and  C_7
REMARK    6  A    between atoms: C_16  and  C_17
REMARK    7  A    between atoms: C_18  and  C_19
REMARK    8  A    between atoms: N_21  and  O_22
REMARK                            x       y       z     vdW  Elec       q    Type
REMARK                         _______ _______ _______ _____ _____    ______ ____
ROOT
ATOM      1  N   UNL     1       2.206   5.184  20.195  0.00  0.00    +0.000 N 
ATOM      2  C   UNL     1       1.922   6.537  20.266  0.00  0.00    +0.000 A 
ATOM      3  N   UNL     1       2.500   7.180  19.266  0.00  0.00    +0.000 NA
ATOM      4  C   UNL     1       3.231   6.253  18.583  0.00  0.00    +0.000 A 
ATOM      5  C   UNL     1       4.074   6.431  17.472  0.00  0.00    +0.000 A 
ATOM      6  C   UNL     1       4.779   5.335  16.955  0.00  0.00    +0.000 A 
ATOM      7  C   UNL     1       4.591   4.068  17.525  0.00  0.00    +0.000 A 
ATOM      8  C   UNL     1       3.738   3.868  18.622  0.00  0.00    +0.000 A 
ATOM      9  C   UNL     1       3.076   4.991  19.133  0.00  0.00    +0.000 A 
ENDROOT
BRANCH   1  11
ATOM     10  C   UNL     1       0.873   3.086  20.585  0.00  0.00    +0.000 C 
ATOM     11  C   UNL     1       1.851   4.126  21.121  0.00  0.00    +0.000 C 
ENDBRANCH   1  11
BRANCH   6  12
ATOM     12  C   UNL     1       5.684   5.472  15.800  0.00  0.00    +0.000 C 
ATOM     13  C   UNL     1       5.970   4.460  14.968  0.00  0.00    +0.000 C 
BRANCH  13  14
ATOM     14  C   UNL     1       6.896   4.654  13.827  0.00  0.00    +0.000 C 
ATOM     15  O   UNL     1       6.776   4.095  12.747  0.00  0.00    +0.000 OA
ATOM     16  N   UNL     1       7.905   5.541  14.104  0.00  0.00    +0.000 N 
ATOM     17  H   UNL     1       8.021   6.061  14.965  0.00  0.00    +0.000 HD
BRANCH  16  18
ATOM     18  O   UNL     1       8.810   5.822  13.058  0.00  0.00    +0.000 OA
ATOM     19  H   UNL     1       9.185   4.934  12.864  0.00  0.00    +0.000 HD
ENDBRANCH  16  18
ENDBRANCH  13  14
ENDBRANCH   6  12
BRANCH   2  20
ATOM     20  C   UNL     1       1.039   7.248  21.250  0.00  0.00    +0.000 C 
BRANCH  20  21
ATOM     21  C   UNL     1       1.391   8.701  21.598  0.00  0.00    +0.000 C 
BRANCH  21  22
ATOM     22  C   UNL     1       0.410   9.789  21.234  0.00  0.00    +0.000 A 
ATOM     23  C   UNL     1      -0.005  10.014  19.915  0.00  0.00    +0.000 A 
ATOM     24  C   UNL     1      -0.923  11.026  19.621  0.00  0.00    +0.000 A 
ATOM     25  C   UNL     1      -1.451  11.813  20.642  0.00  0.00    +0.000 A 
ATOM     26  C   UNL     1      -1.079  11.576  21.962  0.00  0.00    +0.000 A 
ATOM     27  C   UNL     1      -0.163  10.566  22.256  0.00  0.00    +0.000 A 
ENDBRANCH  21  22
ENDBRANCH  20  21
ENDBRANCH   2  20
TORSDOF 7
ENDMDL
MODEL 4
REMARK VINA RESULT:      -8.1      4.537      8.361
REMARK  Name = 
REMARK  8 active torsions:
REMARK  status: ('A' for Active; 'I' for Inactive)
REMARK    1  A    between atoms: C_1  and  C_2
REMARK    2  A    between atoms: C_2  and  N_3
REMARK    3  A    between atoms: C_4  and  C_5
REMARK    4  A    between atoms: C_5  and  C_6
REMARK    5  A    between atoms: C_6  and  C_7
REMARK    6  A    between atoms: C_16  and  C_17
REMARK    7  A    between atoms: C_18  and  C_19
REMARK    8  A    between atoms: N_21  and  O_22
REMARK                            x       y       z     vdW  Elec       q    Type
REMARK                         _______ _______ _______ _____ _____    ______ ____
ROOT
ATOM      1  N   UNL     1       3.548   4.008  18.474  0.00  0.00    +0.000 N 
ATOM      2  C   UNL     1       4.014   4.591  17.307  0.00  0.00    +0.000 A 
ATOM      3  N   UNL     1       3.777   5.891  17.318  0.00  0.00    +0.000 NA
ATOM      4  C   UNL     1       3.081   6.147  18.464  0.00  0.00    +0.000 A 
ATOM      5  C   UNL     1       2.543   7.362  18.922  0.00  0.00    +0.000 A 
ATOM      6  C   UNL     1       1.810   7.387  20.117  0.00  0.00    +0.000 A 
ATOM      7  C   UNL     1       1.670   6.207  20.861  0.00  0.00    +0.000 A 
ATOM      8  C   UNL     1       2.219   4.990  20.428  0.00  0.00    +0.000 A 
ATOM      9  C   UNL     1       2.915   4.994  19.214  0.00  0.00    +0.000 A 
ENDROOT
BRANCH   1  11
ATOM     10  C   UNL     1       4.508   2.202  19.939  0.00  0.00    +0.000 C 
ATOM     11  C   UNL     1       3.522   2.607  18.848  0.00  0.00    +0.000 C 
ENDBRANCH   1  11
BRANCH   6  12
ATOM     12  C   UNL     1       1.215   8.633  20.633  0.00  0.00    +0.000 C 
ATOM     13  C   UNL     1       0.550   8.701  21.796  0.00  0.00    +0.000 C 
BRANCH  13  14
ATOM     14  C   UNL     1      -0.037   9.980  22.261  0.00  0.00    +0.000 C 
ATOM     15  O   UNL     1      -0.112  10.311  23.435  0.00  0.00    +0.000 OA
ATOM     16  N   UNL     1      -0.482  10.769  21.229  0.00  0.00    +0.000 N 
ATOM     17  H   UNL     1      -0.403  10.559  20.243  0.00  0.00    +0.000 HD
BRANCH  16  18
ATOM     18  O   UNL     1      -1.016  12.028  21.577  0.00  0.00    +0.000 OA
ATOM     19  H   UNL     1      -0.218  12.515  21.882  0.00  0.00    +0.000 HD
ENDBRANCH  16  18
ENDBRANCH  13  14
ENDBRANCH   6  12
BRANCH   2  20
ATOM     20  C   UNL     1       4.755   3.938  16.178  0.00  0.00    +0.000 C 
BRANCH  20  21
ATOM     21  C   UNL     1       6.261   4.210  16.067  0.00  0.00    +0.000 C 
BRANCH  21  22
ATOM     22  C   UNL     1       6.893   5.188  17.029  0.00  0.00    +0.000 A 
ATOM     23  C   UNL     1       7.380   4.797  18.282  0.00  0.00    +0.000 A 
ATOM     24  C   UNL     1       7.967   5.731  19.140  0.00  0.00    +0.000 A 
ATOM     25  C   UNL     1       8.090   7.063  18.749  0.00  0.00    +0.000 A 
ATOM     26  C   UNL     1       7.647   7.458  17.490  0.00  0.00    +0.000 A 
ATOM     27  C   UNL     1       7.061   6.526  16.634  0.00  0.00    +0.000 A 
ENDBRANCH  21  22
ENDBRANCH  20  21
ENDBRANCH   2  20
TORSDOF 7
ENDMDL
MODEL 5
REMARK VINA RESULT:      -8.1      4.594      8.386
REMARK  Name = 
REMARK  8 active torsions:
REMARK  status: ('A' for Active; 'I' for Inactive)
REMARK    1  A    between atoms: C_1  and  C_2
REMARK    2  A    between atoms: C_2  and  N_3
REMARK    3  A    between atoms: C_4  and  C_5
REMARK    4  A    between atoms: C_5  and  C_6
REMARK    5  A    between atoms: C_6  and  C_7
REMARK    6  A    between atoms: C_16  and  C_17
REMARK    7  A    between atoms: C_18  and  C_19
REMARK    8  A    between atoms: N_21  and  O_22
REMARK                            x       y       z     vdW  Elec       q    Type
REMARK                         _______ _______ _______ _____ _____    ______ ____
ROOT
ATOM      1  N   UNL     1       3.546   3.965  18.550  0.00  0.00    +0.000 N 
ATOM      2  C   UNL     1       4.027   4.510  17.371  0.00  0.00    +0.000 A 
ATOM      3  N   UNL     1       3.809   5.813  17.345  0.00  0.00    +0.000 NA
ATOM      4  C   UNL     1       3.110   6.109  18.479  0.00  0.00    +0.000 A 
ATOM      5  C   UNL     1       2.587   7.344  18.900  0.00  0.00    +0.000 A 
ATOM      6  C   UNL     1       1.847   7.412  20.089  0.00  0.00    +0.000 A 
ATOM      7  C   UNL     1       1.685   6.255  20.864  0.00  0.00    +0.000 A 
ATOM      8  C   UNL     1       2.219   5.018  20.468  0.00  0.00    +0.000 A 
ATOM      9  C   UNL     1       2.923   4.980  19.259  0.00  0.00    +0.000 A 
ENDROOT
BRANCH   1  11
ATOM     10  C   UNL     1       4.518   2.169  20.020  0.00  0.00    +0.000 C 
ATOM     11  C   UNL     1       3.498   2.576  18.961  0.00  0.00    +0.000 C 
ENDBRANCH   1  11
BRANCH   6  12
ATOM     12  C   UNL     1       1.266   8.680  20.568  0.00  0.00    +0.000 C 
ATOM     13  C   UNL     1       0.624   8.796  21.740  0.00  0.00    +0.000 C 
BRANCH  13  14
ATOM     14  C   UNL     1       0.052  10.095  22.166  0.00  0.00    +0.000 C 
ATOM     15  O   UNL     1       0.444  11.180  21.763  0.00  0.00    +0.000 OA
ATOM     16  N   UNL     1      -0.981   9.955  23.059  0.00  0.00    +0.000 N 
ATOM     17  H   UNL     1      -1.369   9.080  23.388  0.00  0.00    +0.000 HD
BRANCH  16  18
ATOM     18  O   UNL     1      -1.618  11.140  23.485  0.00  0.00    +0.000 OA
ATOM     19  H   UNL     1      -2.134  11.396  22.689  0.00  0.00    +0.000 HD
ENDBRANCH  16  18
ENDBRANCH  13  14
ENDBRANCH   6  12
BRANCH   2  20
ATOM     20  C   UNL     1       4.766   3.816  16.264  0.00  0.00    +0.000 C 
BRANCH  20  21
ATOM     21  C   UNL     1       6.164   4.340  15.907  0.00  0.00    +0.000 C 
BRANCH  21  22
ATOM     22  C   UNL     1       6.856   5.271  16.874  0.00  0.00    +0.000 A 
ATOM     23  C   UNL     1       6.981   6.645  16.631  0.00  0.00    +0.000 A 
ATOM     24  C   UNL     1       7.621   7.475  17.556  0.00  0.00    +0.000 A 
ATOM     25  C   UNL     1       8.127   6.946  18.741  0.00  0.00    +0.000 A 
ATOM     26  C   UNL     1       7.975   5.590  19.015  0.00  0.00    +0.000 A 
ATOM     27  C   UNL     1       7.337   4.761  18.092  0.00  0.00    +0.000 A 
ENDBRANCH  21  22
ENDBRANCH  20  21
ENDBRANCH   2  20
TORSDOF 7
ENDMDL
MODEL 6
REMARK VINA RESULT:      -8.0      0.409      1.053
REMARK  Name = 
REMARK  8 active torsions:
REMARK  status: ('A' for Active; 'I' for Inactive)
REMARK    1  A    between atoms: C_1  and  C_2
REMARK    2  A    between atoms: C_2  and  N_3
REMARK    3  A    between atoms: C_4  and  C_5
REMARK    4  A    between atoms: C_5  and  C_6
REMARK    5  A    between atoms: C_6  and  C_7
REMARK    6  A    between atoms: C_16  and  C_17
REMARK    7  A    between atoms: C_18  and  C_19
REMARK    8  A    between atoms: N_21  and  O_22
REMARK                            x       y       z     vdW  Elec       q    Type
REMARK                         _______ _______ _______ _____ _____    ______ ____
ROOT
ATOM      1  N   UNL     1       2.420   4.927  20.212  0.00  0.00    +0.000 N 
ATOM      2  C   UNL     1       2.367   6.302  20.053  0.00  0.00    +0.000 A 
ATOM      3  N   UNL     1       2.982   6.658  18.939  0.00  0.00    +0.000 NA
ATOM      4  C   UNL     1       3.508   5.518  18.407  0.00  0.00    +0.000 A 
ATOM      5  C   UNL     1       4.300   5.360  17.256  0.00  0.00    +0.000 A 
ATOM      6  C   UNL     1       4.782   4.088  16.918  0.00  0.00    +0.000 A 
ATOM      7  C   UNL     1       4.424   2.986  17.708  0.00  0.00    +0.000 A 
ATOM      8  C   UNL     1       3.617   3.123  18.848  0.00  0.00    +0.000 A 
ATOM      9  C   UNL     1       3.181   4.413  19.175  0.00  0.00    +0.000 A 
ENDROOT
BRANCH   1  11
ATOM     10  C   UNL     1       0.992   2.992  20.951  0.00  0.00    +0.000 C 
ATOM     11  C   UNL     1       1.953   4.117  21.321  0.00  0.00    +0.000 C 
ENDBRANCH   1  11
BRANCH   6  12
ATOM     12  C   UNL     1       5.627   3.871  15.729  0.00  0.00    +0.000 C 
ATOM     13  C   UNL     1       5.759   4.778  14.749  0.00  0.00    +0.000 C 
BRANCH  13  14
ATOM     14  C   UNL     1       6.615   4.502  13.571  0.00  0.00    +0.000 C 
ATOM     15  O   UNL     1       7.507   5.242  13.187  0.00  0.00    +0.000 OA
ATOM     16  N   UNL     1       6.307   3.314  12.955  0.00  0.00    +0.000 N 
ATOM     17  H   UNL     1       5.609   2.649  13.260  0.00  0.00    +0.000 HD
BRANCH  16  18
ATOM     18  O   UNL     1       7.103   2.948  11.849  0.00  0.00    +0.000 OA
ATOM     19  H   UNL     1       6.659   3.418  11.109  0.00  0.00    +0.000 HD
ENDBRANCH  16  18
ENDBRANCH  13  14
ENDBRANCH   6  12
BRANCH   2  20
ATOM     20  C   UNL     1       1.674   7.309  20.924  0.00  0.00    +0.000 C 
BRANCH  20  21
ATOM     21  C   UNL     1       1.167   8.594  20.257  0.00  0.00    +0.000 C 
BRANCH  21  22
ATOM     22  C   UNL     1       0.421   9.601  21.100  0.00  0.00    +0.000 A 
ATOM     23  C   UNL     1      -0.167   9.263  22.325  0.00  0.00    +0.000 A 
ATOM     24  C   UNL     1      -0.841  10.227  23.081  0.00  0.00    +0.000 A 
ATOM     25  C   UNL     1      -0.919  11.543  22.631  0.00  0.00    +0.000 A 
ATOM     26  C   UNL     1      -0.304  11.903  21.435  0.00  0.00    +0.000 A 
ATOM     27  C   UNL     1       0.368  10.941  20.680  0.00  0.00    +0.000 A 
ENDBRANCH  21  22
ENDBRANCH  20  21
ENDBRANCH   2  20
TORSDOF 7
ENDMDL
MODEL 7
REMARK VINA RESULT:      -7.9      4.437      8.169
REMARK  Name = 
REMARK  8 active torsions:
REMARK  status: ('A' for Active; 'I' for Inactive)
REMARK    1  A    between atoms: C_1  and  C_2
REMARK    2  A    between atoms: C_2  and  N_3
REMARK    3  A    between atoms: C_4  and  C_5
REMARK    4  A    between atoms: C_5  and  C_6
REMARK    5  A    between atoms: C_6  and  C_7
REMARK    6  A    between atoms: C_16  and  C_17
REMARK    7  A    between atoms: C_18  and  C_19
REMARK    8  A    between atoms: N_21  and  O_22
REMARK                            x       y       z     vdW  Elec       q    Type
REMARK                         _______ _______ _______ _____ _____    ______ ____
ROOT
ATOM      1  N   UNL     1       3.664   4.017  18.422  0.00  0.00    +0.000 N 
ATOM      2  C   UNL     1       4.068   4.720  17.300  0.00  0.00    +0.000 A 
ATOM      3  N   UNL     1       3.741   5.995  17.415  0.00  0.00    +0.000 NA
ATOM      4  C   UNL     1       3.049   6.112  18.584  0.00  0.00    +0.000 A 
ATOM      5  C   UNL     1       2.434   7.248  19.141  0.00  0.00    +0.000 A 
ATOM      6  C   UNL     1       1.721   7.129  20.343  0.00  0.00    +0.000 A 
ATOM      7  C   UNL     1       1.676   5.888  20.994  0.00  0.00    +0.000 A 
ATOM      8  C   UNL     1       2.301   4.749  20.462  0.00  0.00    +0.000 A 
ATOM      9  C   UNL     1       2.976   4.896  19.244  0.00  0.00    +0.000 A 
ENDROOT
BRANCH   1  11
ATOM     10  C   UNL     1       2.539   1.775  18.228  0.00  0.00    +0.000 C 
ATOM     11  C   UNL     1       3.742   2.594  18.686  0.00  0.00    +0.000 C 
ENDBRANCH   1  11
BRANCH   6  12
ATOM     12  C   UNL     1       1.049   8.286  20.961  0.00  0.00    +0.000 C 
ATOM     13  C   UNL     1       0.868   9.454  20.327  0.00  0.00    +0.000 C 
BRANCH  13  14
ATOM     14  C   UNL     1       0.194  10.588  21.002  0.00  0.00    +0.000 C 
ATOM     15  O   UNL     1       0.596  11.107  22.032  0.00  0.00    +0.000 OA
ATOM     16  N   UNL     1      -0.934  11.007  20.340  0.00  0.00    +0.000 N 
ATOM     17  H   UNL     1      -1.282  10.639  19.464  0.00  0.00    +0.000 HD
BRANCH  16  18
ATOM     18  O   UNL     1      -1.616  12.114  20.888  0.00  0.00    +0.000 OA
ATOM     19  H   UNL     1      -1.180  12.216  21.763  0.00  0.00    +0.000 HD
ENDBRANCH  16  18
ENDBRANCH  13  14
ENDBRANCH   6  12
BRANCH   2  20
ATOM     20  C   UNL     1       4.835   4.210  16.115  0.00  0.00    +0.000 C 
BRANCH  20  21
ATOM     21  C   UNL     1       6.367   4.249  16.191  0.00  0.00    +0.000 C 
BRANCH  21  22
ATOM     22  C   UNL     1       7.022   5.297  17.058  0.00  0.00    +0.000 A 
ATOM     23  C   UNL     1       7.126   6.637  16.665  0.00  0.00    +0.000 A 
ATOM     24  C   UNL     1       7.731   7.579  17.502  0.00  0.00    +0.000 A 
ATOM     25  C   UNL     1       8.222   7.198  18.748  0.00  0.00    +0.000 A 
ATOM     26  C   UNL     1       8.089   5.878  19.170  0.00  0.00    +0.000 A 
ATOM     27  C   UNL     1       7.486   4.937  18.335  0.00  0.00    +0.000 A 
ENDBRANCH  21  22
ENDBRANCH  20  21
ENDBRANCH   2  20
TORSDOF 7
ENDMDL
MODEL 8
REMARK VINA RESULT:      -7.9      4.504      9.323
REMARK  Name = 
REMARK  8 active torsions:
REMARK  status: ('A' for Active; 'I' for Inactive)
REMARK    1  A    between atoms: C_1  and  C_2
REMARK    2  A    between atoms: C_2  and  N_3
REMARK    3  A    between atoms: C_4  and  C_5
REMARK    4  A    between atoms: C_5  and  C_6
REMARK    5  A    between atoms: C_6  and  C_7
REMARK    6  A    between atoms: C_16  and  C_17
REMARK    7  A    between atoms: C_18  and  C_19
REMARK    8  A    between atoms: N_21  and  O_22
REMARK                            x       y       z     vdW  Elec       q    Type
REMARK                         _______ _______ _______ _____ _____    ______ ____
ROOT
ATOM      1  N   UNL     1       3.439   4.062  18.598  0.00  0.00    +0.000 N 
ATOM      2  C   UNL     1       3.932   4.622  17.432  0.00  0.00    +0.000 A 
ATOM      3  N   UNL     1       3.724   5.926  17.425  0.00  0.00    +0.000 NA
ATOM      4  C   UNL     1       3.020   6.211  18.558  0.00  0.00    +0.000 A 
ATOM      5  C   UNL     1       2.504   7.443  18.996  0.00  0.00    +0.000 A 
ATOM      6  C   UNL     1       1.756   7.498  20.181  0.00  0.00    +0.000 A 
ATOM      7  C   UNL     1       1.579   6.330  20.936  0.00  0.00    +0.000 A 
ATOM      8  C   UNL     1       2.106   5.096  20.524  0.00  0.00    +0.000 A 
ATOM      9  C   UNL     1       2.818   5.071  19.319  0.00  0.00    +0.000 A 
ENDROOT
BRANCH   1  11
ATOM     10  C   UNL     1       4.383   2.237  20.049  0.00  0.00    +0.000 C 
ATOM     11  C   UNL     1       3.377   2.667  18.987  0.00  0.00    +0.000 C 
ENDBRANCH   1  11
BRANCH   6  12
ATOM     12  C   UNL     1       1.182   8.763  20.675  0.00  0.00    +0.000 C 
ATOM     13  C   UNL     1       0.482   8.854  21.816  0.00  0.00    +0.000 C 
BRANCH  13  14
ATOM     14  C   UNL     1      -0.080  10.152  22.259  0.00  0.00    +0.000 C 
ATOM     15  O   UNL     1      -0.270  10.450  23.428  0.00  0.00    +0.000 OA
ATOM     16  N   UNL     1      -0.359  10.997  21.214  0.00  0.00    +0.000 N 
ATOM     17  H   UNL     1      -0.180  10.813  20.236  0.00  0.00    +0.000 HD
BRANCH  16  18
ATOM     18  O   UNL     1      -0.856  12.275  21.547  0.00  0.00    +0.000 OA
ATOM     19  H   UNL     1      -0.107  12.860  21.299  0.00  0.00    +0.000 HD
ENDBRANCH  16  18
ENDBRANCH  13  14
ENDBRANCH   6  12
BRANCH   2  20
ATOM     20  C   UNL     1       4.673   3.939  16.319  0.00  0.00    +0.000 C 
BRANCH  20  21
ATOM     21  C   UNL     1       6.064   4.478  15.959  0.00  0.00    +0.000 C 
BRANCH  21  22
ATOM     22  C   UNL     1       6.493   4.464  14.511  0.00  0.00    +0.000 A 
ATOM     23  C   UNL     1       7.517   5.287  14.025  0.00  0.00    +0.000 A 
ATOM     24  C   UNL     1       7.891   5.237  12.679  0.00  0.00    +0.000 A 
ATOM     25  C   UNL     1       7.258   4.354  11.807  0.00  0.00    +0.000 A 
ATOM     26  C   UNL     1       6.266   3.502  12.284  0.00  0.00    +0.000 A 
ATOM     27  C   UNL     1       5.893   3.551  13.627  0.00  0.00    +0.000 A 
ENDBRANCH  21  22
ENDBRANCH  20  21
ENDBRANCH   2  20
TORSDOF 7
ENDMDL
MODEL 9
REMARK VINA RESULT:      -7.9      1.137      1.732
REMARK  Name = 
REMARK  8 active torsions:
REMARK  status: ('A' for Active; 'I' for Inactive)
REMARK    1  A    between atoms: C_1  and  C_2
REMARK    2  A    between atoms: C_2  and  N_3
REMARK    3  A    between atoms: C_4  and  C_5
REMARK    4  A    between atoms: C_5  and  C_6
REMARK    5  A    between atoms: C_6  and  C_7
REMARK    6  A    between atoms: C_16  and  C_17
REMARK    7  A    between atoms: C_18  and  C_19
REMARK    8  A    between atoms: N_21  and  O_22
REMARK                            x       y       z     vdW  Elec       q    Type
REMARK                         _______ _______ _______ _____ _____    ______ ____
ROOT
ATOM      1  N   UNL     1       1.989   5.007  19.841  0.00  0.00    +0.000 N 
ATOM      2  C   UNL     1       1.932   6.368  20.094  0.00  0.00    +0.000 A 
ATOM      3  N   UNL     1       2.697   7.026  19.242  0.00  0.00    +0.000 NA
ATOM      4  C   UNL     1       3.321   6.085  18.477  0.00  0.00    +0.000 A 
ATOM      5  C   UNL     1       4.279   6.259  17.463  0.00  0.00    +0.000 A 
ATOM      6  C   UNL     1       4.833   5.134  16.835  0.00  0.00    +0.000 A 
ATOM      7  C   UNL     1       4.385   3.856  17.196  0.00  0.00    +0.000 A 
ATOM      8  C   UNL     1       3.415   3.665  18.192  0.00  0.00    +0.000 A 
ATOM      9  C   UNL     1       2.907   4.808  18.822  0.00  0.00    +0.000 A 
ENDROOT
BRANCH   1  11
ATOM     10  C   UNL     1       0.625   2.897  19.725  0.00  0.00    +0.000 C 
ATOM     11  C   UNL     1       1.380   3.915  20.573  0.00  0.00    +0.000 C 
ENDBRANCH   1  11
BRANCH   6  12
ATOM     12  C   UNL     1       5.850   5.263  15.774  0.00  0.00    +0.000 C 
ATOM     13  C   UNL     1       5.839   4.524  14.655  0.00  0.00    +0.000 C 
BRANCH  13  14
ATOM     14  C   UNL     1       6.893   4.690  13.626  0.00  0.00    +0.000 C 
ATOM     15  O   UNL     1       6.894   4.113  12.550  0.00  0.00    +0.000 OA
ATOM     16  N   UNL     1       7.873   5.574  14.005  0.00  0.00    +0.000 N 
ATOM     17  H   UNL     1       7.894   6.107  14.864  0.00  0.00    +0.000 HD
BRANCH  16  18
ATOM     18  O   UNL     1       8.896   5.828  13.066  0.00  0.00    +0.000 OA
ATOM     19  H   UNL     1       8.457   5.605  12.215  0.00  0.00    +0.000 HD
ENDBRANCH  16  18
ENDBRANCH  13  14
ENDBRANCH   6  12
BRANCH   2  20
ATOM     20  C   UNL     1       1.096   7.084  21.114  0.00  0.00    +0.000 C 
BRANCH  20  21
ATOM     21  C   UNL     1       1.445   8.548  21.415  0.00  0.00    +0.000 C 
BRANCH  21  22
ATOM     22  C   UNL     1       0.513   9.630  20.923  0.00  0.00    +0.000 A 
ATOM     23  C   UNL     1      -0.150  10.501  21.797  0.00  0.00    +0.000 A 
ATOM     24  C   UNL     1      -0.997  11.497  21.301  0.00  0.00    +0.000 A 
ATOM     25  C   UNL     1      -1.178  11.645  19.927  0.00  0.00    +0.000 A 
ATOM     26  C   UNL     1      -0.494  10.813  19.046  0.00  0.00    +0.000 A 
ATOM     27  C   UNL     1       0.351   9.819  19.540  0.00  0.00    +0.000 A 
ENDBRANCH  21  22
ENDBRANCH  20  21
ENDBRANCH   2  20
TORSDOF 7
ENDMDL
