MODEL 1
REMARK VINA RESULT:      -8.2      0.000      0.000
REMARK  Name = 
REMARK  7 active torsions:
REMARK  status: ('A' for Active; 'I' for Inactive)
REMARK    1  A    between atoms: C_1  and  C_2
REMARK    2  A    between atoms: C_2  and  N_3
REMARK    3  A    between atoms: N_3  and  C_4
REMARK    4  A    between atoms: N_3  and  C_6
REMARK    5  A    between atoms: C_4  and  C_5
REMARK    6  A    between atoms: C_6  and  C_7
REMARK    7  A    between atoms: C_7  and  N_8
REMARK                            x       y       z     vdW  Elec       q    Type
REMARK                         _______ _______ _______ _____ _____    ______ ____
ROOT
ATOM      1  N   UNL     1       3.038   7.085  18.059  0.00  0.00    +0.000 N 
ATOM      2  C   UNL     1       2.522   8.383  18.166  0.00  0.00    +0.000 A 
ATOM      3  O   UNL     1       2.716   9.273  17.339  0.00  0.00    +0.000 OA
ATOM      4  C   UNL     1       1.710   8.752  19.340  0.00  0.00    +0.000 A 
ATOM      5  C   UNL     1       1.294  10.096  19.468  0.00  0.00    +0.000 A 
ATOM      6  C   UNL     1       0.543  10.444  20.564  0.00  0.00    +0.000 A 
ATOM      7  C   UNL     1       0.203   9.513  21.505  0.00  0.00    +0.000 A 
ATOM      8  C   UNL     1       0.601   8.194  21.400  0.00  0.00    +0.000 A 
ATOM      9  C   UNL     1       1.386   7.777  20.296  0.00  0.00    +0.000 A 
ATOM     10  C   UNL     1       1.865   6.391  20.111  0.00  0.00    +0.000 A 
ATOM     11  C   UNL     1       1.562   5.409  21.068  0.00  0.00    +0.000 A 
ATOM     12  C   UNL     1       2.023   4.107  20.958  0.00  0.00    +0.000 A 
ATOM     13  C   UNL     1       2.767   3.689  19.885  0.00  0.00    +0.000 A 
ATOM     14  N   UNL     1       3.139   2.401  19.946  0.00  0.00    +0.000 NA
ATOM     15  C   UNL     1       3.843   1.878  18.931  0.00  0.00    +0.000 A 
ATOM     16  C   UNL     1       4.152   2.598  17.808  0.00  0.00    +0.000 A 
ATOM     17  C   UNL     1       3.724   3.924  17.752  0.00  0.00    +0.000 A 
ATOM     18  C   UNL     1       3.061   4.594  18.834  0.00  0.00    +0.000 A 
ATOM     19  C   UNL     1       2.651   6.010  18.984  0.00  0.00    +0.000 A 
ATOM     20  O   UNL     1      -0.543  10.039  22.513  0.00  0.00    +0.000 OA
ATOM     21  C   UNL     1      -0.626  11.420  22.096  0.00  0.00    +0.000 C 
ATOM     22  O   UNL     1       0.062  11.680  20.854  0.00  0.00    +0.000 OA
ENDROOT
BRANCH   1  23
ATOM     23  C   UNL     1       3.932   6.794  16.931  0.00  0.00    +0.000 C 
BRANCH  23  24
ATOM     24  C   UNL     1       5.456   7.041  17.020  0.00  0.00    +0.000 C 
BRANCH  24  25
ATOM     25  N   UNL     1       6.285   6.163  16.144  0.00  0.00    +0.000 NA
BRANCH  25  27
ATOM     26  C   UNL     1       7.506   5.903  18.345  0.00  0.00    +0.000 C 
ATOM     27  C   UNL     1       7.114   5.298  17.002  0.00  0.00    +0.000 C 
ENDBRANCH  25  27
BRANCH  25  28
ATOM     28  C   UNL     1       5.561   5.449  15.086  0.00  0.00    +0.000 C 
ATOM     29  C   UNL     1       6.050   4.043  14.758  0.00  0.00    +0.000 C 
ENDBRANCH  25  28
ENDBRANCH  24  25
ENDBRANCH  23  24
ENDBRANCH   1  23
TORSDOF 5
ENDMDL
MODEL 2
REMARK VINA RESULT:      -7.8      0.276      1.340
REMARK  Name = 
REMARK  7 active torsions:
REMARK  status: ('A' for Active; 'I' for Inactive)
REMARK    1  A    between atoms: C_1  and  C_2
REMARK    2  A    between atoms: C_2  and  N_3
REMARK    3  A    between atoms: N_3  and  C_4
REMARK    4  A    between atoms: N_3  and  C_6
REMARK    5  A    between atoms: C_4  and  C_5
REMARK    6  A    between atoms: C_6  and  C_7
REMARK    7  A    between atoms: C_7  and  N_8
REMARK                            x       y       z     vdW  Elec       q    Type
REMARK                         _______ _______ _______ _____ _____    ______ ____
ROOT
ATOM      1  N   UNL     1       2.824   7.163  18.087  0.00  0.00    +0.000 N 
ATOM      2  C   UNL     1       2.309   8.456  18.246  0.00  0.00    +0.000 A 
ATOM      3  O   UNL     1       2.450   9.361  17.426  0.00  0.00    +0.000 OA
ATOM      4  C   UNL     1       1.566   8.800  19.472  0.00  0.00    +0.000 A 
ATOM      5  C   UNL     1       1.152  10.139  19.649  0.00  0.00    +0.000 A 
ATOM      6  C   UNL     1       0.465  10.463  20.792  0.00  0.00    +0.000 A 
ATOM      7  C   UNL     1       0.185   9.513  21.735  0.00  0.00    +0.000 A 
ATOM      8  C   UNL     1       0.582   8.199  21.583  0.00  0.00    +0.000 A 
ATOM      9  C   UNL     1       1.303   7.806  20.428  0.00  0.00    +0.000 A 
ATOM     10  C   UNL     1       1.777   6.426  20.191  0.00  0.00    +0.000 A 
ATOM     11  C   UNL     1       1.535   5.426  21.146  0.00  0.00    +0.000 A 
ATOM     12  C   UNL     1       1.995   4.129  20.986  0.00  0.00    +0.000 A 
ATOM     13  C   UNL     1       2.677   3.733  19.864  0.00  0.00    +0.000 A 
ATOM     14  N   UNL     1       3.058   2.447  19.880  0.00  0.00    +0.000 NA
ATOM     15  C   UNL     1       3.703   1.946  18.816  0.00  0.00    +0.000 A 
ATOM     16  C   UNL     1       3.943   2.687  17.690  0.00  0.00    +0.000 A 
ATOM     17  C   UNL     1       3.506   4.011  17.683  0.00  0.00    +0.000 A 
ATOM     18  C   UNL     1       2.904   4.658  18.814  0.00  0.00    +0.000 A 
ATOM     19  C   UNL     1       2.497   6.069  19.013  0.00  0.00    +0.000 A 
ATOM     20  O   UNL     1      -0.504  10.017  22.794  0.00  0.00    +0.000 OA
ATOM     21  C   UNL     1      -0.617  11.405  22.408  0.00  0.00    +0.000 C 
ATOM     22  O   UNL     1      -0.005  11.691  21.132  0.00  0.00    +0.000 OA
ENDROOT
BRANCH   1  23
ATOM     23  C   UNL     1       3.652   6.897  16.902  0.00  0.00    +0.000 C 
BRANCH  23  24
ATOM     24  C   UNL     1       5.188   7.077  16.930  0.00  0.00    +0.000 C 
BRANCH  24  25
ATOM     25  N   UNL     1       5.969   5.836  16.661  0.00  0.00    +0.000 NA
BRANCH  25  27
ATOM     26  C   UNL     1       6.155   4.033  14.895  0.00  0.00    +0.000 C 
ATOM     27  C   UNL     1       5.791   5.472  15.243  0.00  0.00    +0.000 C 
ENDBRANCH  25  27
BRANCH  25  28
ATOM     28  C   UNL     1       7.366   5.849  17.109  0.00  0.00    +0.000 C 
ATOM     29  C   UNL     1       7.596   5.933  18.614  0.00  0.00    +0.000 C 
ENDBRANCH  25  28
ENDBRANCH  24  25
ENDBRANCH  23  24
ENDBRANCH   1  23
TORSDOF 5
ENDMDL
MODEL 3
REMARK VINA RESULT:      -7.5      3.427      7.902
REMARK  Name = 
REMARK  7 active torsions:
REMARK  status: ('A' for Active; 'I' for Inactive)
REMARK    1  A    between atoms: C_1  and  C_2
REMARK    2  A    between atoms: C_2  and  N_3
REMARK    3  A    between atoms: N_3  and  C_4
REMARK    4  A    between atoms: N_3  and  C_6
REMARK    5  A    between atoms: C_4  and  C_5
REMARK    6  A    between atoms: C_6  and  C_7
REMARK    7  A    between atoms: C_7  and  N_8
REMARK                            x       y       z     vdW  Elec       q    Type
REMARK                         _______ _______ _______ _____ _____    ______ ____
ROOT
ATOM      1  N   UNL     1       0.640  10.805  19.189  0.00  0.00    +0.000 N 
ATOM      2  C   UNL     1       1.422   9.920  18.436  0.00  0.00    +0.000 A 
ATOM      3  O   UNL     1       1.841  10.160  17.305  0.00  0.00    +0.000 OA
ATOM      4  C   UNL     1       1.766   8.597  18.990  0.00  0.00    +0.000 A 
ATOM      5  C   UNL     1       2.466   7.689  18.165  0.00  0.00    +0.000 A 
ATOM      6  C   UNL     1       2.781   6.454  18.675  0.00  0.00    +0.000 A 
ATOM      7  C   UNL     1       2.432   6.114  19.952  0.00  0.00    +0.000 A 
ATOM      8  C   UNL     1       1.745   6.985  20.776  0.00  0.00    +0.000 A 
ATOM      9  C   UNL     1       1.383   8.270  20.301  0.00  0.00    +0.000 A 
ATOM     10  C   UNL     1       0.638   9.260  21.108  0.00  0.00    +0.000 A 
ATOM     11  C   UNL     1       0.235   8.940  22.414  0.00  0.00    +0.000 A 
ATOM     12  C   UNL     1      -0.499   9.819  23.193  0.00  0.00    +0.000 A 
ATOM     13  C   UNL     1      -0.838  11.073  22.751  0.00  0.00    +0.000 A 
ATOM     14  N   UNL     1      -1.559  11.786  23.629  0.00  0.00    +0.000 NA
ATOM     15  C   UNL     1      -1.917  13.039  23.311  0.00  0.00    +0.000 A 
ATOM     16  C   UNL     1      -1.529  13.636  22.142  0.00  0.00    +0.000 A 
ATOM     17  C   UNL     1      -0.750  12.887  21.261  0.00  0.00    +0.000 A 
ATOM     18  C   UNL     1      -0.412  11.508  21.471  0.00  0.00    +0.000 A 
ATOM     19  C   UNL     1       0.295  10.545  20.595  0.00  0.00    +0.000 A 
ATOM     20  O   UNL     1       2.830   4.856  20.283  0.00  0.00    +0.000 OA
ATOM     21  C   UNL     1       3.468   4.442  19.055  0.00  0.00    +0.000 C 
ATOM     22  O   UNL     1       3.442   5.458  18.031  0.00  0.00    +0.000 OA
ENDROOT
BRANCH   1  23
ATOM     23  C   UNL     1       0.229  12.064  18.555  0.00  0.00    +0.000 C 
BRANCH  23  24
ATOM     24  C   UNL     1      -1.133  12.203  17.835  0.00  0.00    +0.000 C 
BRANCH  24  25
ATOM     25  N   UNL     1      -2.048  11.037  17.994  0.00  0.00    +0.000 NA
BRANCH  25  27
ATOM     26  C   UNL     1      -3.734  12.238  19.449  0.00  0.00    +0.000 C 
ATOM     27  C   UNL     1      -3.427  11.541  18.129  0.00  0.00    +0.000 C 
ENDBRANCH  25  27
BRANCH  25  28
ATOM     28  C   UNL     1      -1.892   9.962  17.007  0.00  0.00    +0.000 C 
ATOM     29  C   UNL     1      -2.724  10.082  15.735  0.00  0.00    +0.000 C 
ENDBRANCH  25  28
ENDBRANCH  24  25
ENDBRANCH  23  24
ENDBRANCH   1  23
TORSDOF 5
ENDMDL
MODEL 4
REMARK VINA RESULT:      -7.2      1.035      1.388
REMARK  Name = 
REMARK  7 active torsions:
REMARK  status: ('A' for Active; 'I' for Inactive)
REMARK    1  A    between atoms: C_1  and  C_2
REMARK    2  A    between atoms: C_2  and  N_3
REMARK    3  A    between atoms: N_3  and  C_4
REMARK    4  A    between atoms: N_3  and  C_6
REMARK    5  A    between atoms: C_4  and  C_5
REMARK    6  A    between atoms: C_6  and  C_7
REMARK    7  A    between atoms: C_7  and  N_8
REMARK                            x       y       z     vdW  Elec       q    Type
REMARK                         _______ _______ _______ _____ _____    ______ ____
ROOT
ATOM      1  N   UNL     1       2.932   6.999  18.171  0.00  0.00    +0.000 N 
ATOM      2  C   UNL     1       2.433   8.292  18.373  0.00  0.00    +0.000 A 
ATOM      3  O   UNL     1       2.641   9.239  17.616  0.00  0.00    +0.000 OA
ATOM      4  C   UNL     1       1.622   8.583  19.570  0.00  0.00    +0.000 A 
ATOM      5  C   UNL     1       1.223   9.919  19.798  0.00  0.00    +0.000 A 
ATOM      6  C   UNL     1       0.474  10.193  20.915  0.00  0.00    +0.000 A 
ATOM      7  C   UNL     1       0.118   9.198  21.782  0.00  0.00    +0.000 A 
ATOM      8  C   UNL     1       0.498   7.886  21.580  0.00  0.00    +0.000 A 
ATOM      9  C   UNL     1       1.281   7.542  20.450  0.00  0.00    +0.000 A 
ATOM     10  C   UNL     1       1.743   6.168  20.162  0.00  0.00    +0.000 A 
ATOM     11  C   UNL     1       1.423   5.121  21.042  0.00  0.00    +0.000 A 
ATOM     12  C   UNL     1       1.867   3.825  20.835  0.00  0.00    +0.000 A 
ATOM     13  C   UNL     1       2.609   3.478  19.734  0.00  0.00    +0.000 A 
ATOM     14  N   UNL     1       2.963   2.185  19.700  0.00  0.00    +0.000 NA
ATOM     15  C   UNL     1       3.664   1.730  18.649  0.00  0.00    +0.000 A 
ATOM     16  C   UNL     1       3.986   2.528  17.585  0.00  0.00    +0.000 A 
ATOM     17  C   UNL     1       3.576   3.860  17.628  0.00  0.00    +0.000 A 
ATOM     18  C   UNL     1       2.918   4.456  18.756  0.00  0.00    +0.000 A 
ATOM     19  C   UNL     1       2.527   5.862  19.011  0.00  0.00    +0.000 A 
ATOM     20  O   UNL     1      -0.624   9.658  22.825  0.00  0.00    +0.000 OA
ATOM     21  C   UNL     1      -0.687  11.067  22.514  0.00  0.00    +0.000 C 
ATOM     22  O   UNL     1       0.008  11.410  21.296  0.00  0.00    +0.000 OA
ENDROOT
BRANCH   1  23
ATOM     23  C   UNL     1       3.825   6.782  17.025  0.00  0.00    +0.000 C 
BRANCH  23  24
ATOM     24  C   UNL     1       5.266   7.344  17.003  0.00  0.00    +0.000 C 
BRANCH  24  25
ATOM     25  N   UNL     1       6.320   6.386  17.444  0.00  0.00    +0.000 NA
BRANCH  25  27
ATOM     26  C   UNL     1       7.799   8.431  17.627  0.00  0.00    +0.000 C 
ATOM     27  C   UNL     1       7.639   6.985  17.171  0.00  0.00    +0.000 C 
ENDBRANCH  25  27
BRANCH  25  28
ATOM     28  C   UNL     1       6.170   5.850  18.802  0.00  0.00    +0.000 C 
ATOM     29  C   UNL     1       7.456   5.476  19.531  0.00  0.00    +0.000 C 
ENDBRANCH  25  28
ENDBRANCH  24  25
ENDBRANCH  23  24
ENDBRANCH   1  23
TORSDOF 5
ENDMDL
MODEL 5
REMARK VINA RESULT:      -7.0      3.440      7.745
REMARK  Name = 
REMARK  7 active torsions:
REMARK  status: ('A' for Active; 'I' for Inactive)
REMARK    1  A    between atoms: C_1  and  C_2
REMARK    2  A    between atoms: C_2  and  N_3
REMARK    3  A    between atoms: N_3  and  C_4
REMARK    4  A    between atoms: N_3  and  C_6
REMARK    5  A    between atoms: C_4  and  C_5
REMARK    6  A    between atoms: C_6  and  C_7
REMARK    7  A    between atoms: C_7  and  N_8
REMARK                            x       y       z     vdW  Elec       q    Type
REMARK                         _______ _______ _______ _____ _____    ______ ____
ROOT
ATOM      1  N   UNL     1       0.985  10.798  19.176  0.00  0.00    +0.000 N 
ATOM      2  C   UNL     1       1.733   9.868  18.442  0.00  0.00    +0.000 A 
ATOM      3  O   UNL     1       2.245  10.103  17.348  0.00  0.00    +0.000 OA
ATOM      4  C   UNL     1       1.921   8.504  18.969  0.00  0.00    +0.000 A 
ATOM      5  C   UNL     1       2.590   7.561  18.156  0.00  0.00    +0.000 A 
ATOM      6  C   UNL     1       2.761   6.289  18.642  0.00  0.00    +0.000 A 
ATOM      7  C   UNL     1       2.300   5.943  19.881  0.00  0.00    +0.000 A 
ATOM      8  C   UNL     1       1.641   6.848  20.691  0.00  0.00    +0.000 A 
ATOM      9  C   UNL     1       1.426   8.174  20.240  0.00  0.00    +0.000 A 
ATOM     10  C   UNL     1       0.721   9.203  21.034  0.00  0.00    +0.000 A 
ATOM     11  C   UNL     1       0.207   8.883  22.300  0.00  0.00    +0.000 A 
ATOM     12  C   UNL     1      -0.496   9.801  23.063  0.00  0.00    +0.000 A 
ATOM     13  C   UNL     1      -0.692  11.093  22.646  0.00  0.00    +0.000 A 
ATOM     14  N   UNL     1      -1.403  11.842  23.502  0.00  0.00    +0.000 NA
ATOM     15  C   UNL     1      -1.627  13.132  23.207  0.00  0.00    +0.000 A 
ATOM     16  C   UNL     1      -1.112  13.726  22.087  0.00  0.00    +0.000 A 
ATOM     17  C   UNL     1      -0.347  12.935  21.230  0.00  0.00    +0.000 A 
ATOM     18  C   UNL     1      -0.146  11.526  21.411  0.00  0.00    +0.000 A 
ATOM     19  C   UNL     1       0.528  10.529  20.547  0.00  0.00    +0.000 A 
ATOM     20  O   UNL     1       2.563   4.645  20.192  0.00  0.00    +0.000 OA
ATOM     21  C   UNL     1       3.240   4.212  18.992  0.00  0.00    +0.000 C 
ATOM     22  O   UNL     1       3.372   5.256  18.005  0.00  0.00    +0.000 OA
ENDROOT
BRANCH   1  23
ATOM     23  C   UNL     1       0.730  12.108  18.562  0.00  0.00    +0.000 C 
BRANCH  23  24
ATOM     24  C   UNL     1       1.885  13.075  18.207  0.00  0.00    +0.000 C 
BRANCH  24  25
ATOM     25  N   UNL     1       2.037  14.235  19.132  0.00  0.00    +0.000 NA
BRANCH  25  27
ATOM     26  C   UNL     1       2.940  14.736  21.442  0.00  0.00    +0.000 C 
ATOM     27  C   UNL     1       2.987  13.861  20.196  0.00  0.00    +0.000 C 
ENDBRANCH  25  27
BRANCH  25  28
ATOM     28  C   UNL     1       2.321  15.527  18.497  0.00  0.00    +0.000 C 
ATOM     29  C   UNL     1       3.516  15.571  17.551  0.00  0.00    +0.000 C 
ENDBRANCH  25  28
ENDBRANCH  24  25
ENDBRANCH  23  24
ENDBRANCH   1  23
TORSDOF 5
ENDMDL
MODEL 6
REMARK VINA RESULT:      -6.9      3.547      7.979
REMARK  Name = 
REMARK  7 active torsions:
REMARK  status: ('A' for Active; 'I' for Inactive)
REMARK    1  A    between atoms: C_1  and  C_2
REMARK    2  A    between atoms: C_2  and  N_3
REMARK    3  A    between atoms: N_3  and  C_4
REMARK    4  A    between atoms: N_3  and  C_6
REMARK    5  A    between atoms: C_4  and  C_5
REMARK    6  A    between atoms: C_6  and  C_7
REMARK    7  A    between atoms: C_7  and  N_8
REMARK                            x       y       z     vdW  Elec       q    Type
REMARK                         _______ _______ _______ _____ _____    ______ ____
ROOT
ATOM      1  N   UNL     1       1.011  10.881  19.209  0.00  0.00    +0.000 N 
ATOM      2  C   UNL     1       1.785  10.000  18.442  0.00  0.00    +0.000 A 
ATOM      3  O   UNL     1       2.304  10.295  17.367  0.00  0.00    +0.000 OA
ATOM      4  C   UNL     1       1.994   8.617  18.907  0.00  0.00    +0.000 A 
ATOM      5  C   UNL     1       2.689   7.725  18.060  0.00  0.00    +0.000 A 
ATOM      6  C   UNL     1       2.879   6.435  18.487  0.00  0.00    +0.000 A 
ATOM      7  C   UNL     1       2.411   6.023  19.703  0.00  0.00    +0.000 A 
ATOM      8  C   UNL     1       1.727   6.877  20.547  0.00  0.00    +0.000 A 
ATOM      9  C   UNL     1       1.491   8.219  20.156  0.00  0.00    +0.000 A 
ATOM     10  C   UNL     1       0.758   9.196  20.989  0.00  0.00    +0.000 A 
ATOM     11  C   UNL     1       0.236   8.807  22.233  0.00  0.00    +0.000 A 
ATOM     12  C   UNL     1      -0.492   9.676  23.029  0.00  0.00    +0.000 A 
ATOM     13  C   UNL     1      -0.709  10.982  22.670  0.00  0.00    +0.000 A 
ATOM     14  N   UNL     1      -1.443  11.677  23.551  0.00  0.00    +0.000 NA
ATOM     15  C   UNL     1      -1.688  12.974  23.315  0.00  0.00    +0.000 A 
ATOM     16  C   UNL     1      -1.173  13.629  22.229  0.00  0.00    +0.000 A 
ATOM     17  C   UNL     1      -0.383  12.894  21.345  0.00  0.00    +0.000 A 
ATOM     18  C   UNL     1      -0.158  11.482  21.463  0.00  0.00    +0.000 A 
ATOM     19  C   UNL     1       0.544  10.539  20.561  0.00  0.00    +0.000 A 
ATOM     20  O   UNL     1       2.695   4.717  19.956  0.00  0.00    +0.000 OA
ATOM     21  C   UNL     1       3.394   4.353  18.746  0.00  0.00    +0.000 C 
ATOM     22  O   UNL     1       3.516   5.445  17.810  0.00  0.00    +0.000 OA
ENDROOT
BRANCH   1  23
ATOM     23  C   UNL     1       0.738  12.213  18.655  0.00  0.00    +0.000 C 
BRANCH  23  24
ATOM     24  C   UNL     1       1.840  13.296  18.567  0.00  0.00    +0.000 C 
BRANCH  24  25
ATOM     25  N   UNL     1       1.401  14.668  18.949  0.00  0.00    +0.000 NA
BRANCH  25  27
ATOM     26  C   UNL     1       3.645  15.009  17.830  0.00  0.00    +0.000 C 
ATOM     27  C   UNL     1       2.405  15.631  18.462  0.00  0.00    +0.000 C 
ENDBRANCH  25  27
BRANCH  25  28
ATOM     28  C   UNL     1       0.017  15.016  18.607  0.00  0.00    +0.000 C 
ATOM     29  C   UNL     1      -0.315  16.503  18.542  0.00  0.00    +0.000 C 
ENDBRANCH  25  28
ENDBRANCH  24  25
ENDBRANCH  23  24
ENDBRANCH   1  23
TORSDOF 5
ENDMDL
MODEL 7
REMARK VINA RESULT:      -6.8      3.479      7.772
REMARK  Name = 
REMARK  7 active torsions:
REMARK  status: ('A' for Active; 'I' for Inactive)
REMARK    1  A    between atoms: C_1  and  C_2
REMARK    2  A    between atoms: C_2  and  N_3
REMARK    3  A    between atoms: N_3  and  C_4
REMARK    4  A    between atoms: N_3  and  C_6
REMARK    5  A    between atoms: C_4  and  C_5
REMARK    6  A    between atoms: C_6  and  C_7
REMARK    7  A    between atoms: C_7  and  N_8
REMARK                            x       y       z     vdW  Elec       q    Type
REMARK                         _______ _______ _______ _____ _____    ______ ____
ROOT
ATOM      1  N   UNL     1       0.512  11.025  19.188  0.00  0.00    +0.000 N 
ATOM      2  C   UNL     1       1.372  10.194  18.459  0.00  0.00    +0.000 A 
ATOM      3  O   UNL     1       1.841  10.482  17.359  0.00  0.00    +0.000 OA
ATOM      4  C   UNL     1       1.742   8.873  18.999  0.00  0.00    +0.000 A 
ATOM      5  C   UNL     1       2.525   8.017  18.192  0.00  0.00    +0.000 A 
ATOM      6  C   UNL     1       2.866   6.784  18.689  0.00  0.00    +0.000 A 
ATOM      7  C   UNL     1       2.462   6.395  19.936  0.00  0.00    +0.000 A 
ATOM      8  C   UNL     1       1.694   7.215  20.741  0.00  0.00    +0.000 A 
ATOM      9  C   UNL     1       1.303   8.496  20.278  0.00  0.00    +0.000 A 
ATOM     10  C   UNL     1       0.473   9.431  21.066  0.00  0.00    +0.000 A 
ATOM     11  C   UNL     1       0.013   9.060  22.339  0.00  0.00    +0.000 A 
ATOM     12  C   UNL     1      -0.800   9.887  23.098  0.00  0.00    +0.000 A 
ATOM     13  C   UNL     1      -1.168  11.136  22.668  0.00  0.00    +0.000 A 
ATOM     14  N   UNL     1      -1.966  11.795  23.521  0.00  0.00    +0.000 NA
ATOM     15  C   UNL     1      -2.361  13.040  23.214  0.00  0.00    +0.000 A 
ATOM     16  C   UNL     1      -1.935  13.684  22.084  0.00  0.00    +0.000 A 
ATOM     17  C   UNL     1      -1.078  12.991  21.230  0.00  0.00    +0.000 A 
ATOM     18  C   UNL     1      -0.692  11.623  21.425  0.00  0.00    +0.000 A 
ATOM     19  C   UNL     1       0.103  10.714  20.566  0.00  0.00    +0.000 A 
ATOM     20  O   UNL     1       2.896   5.147  20.258  0.00  0.00    +0.000 OA
ATOM     21  C   UNL     1       3.617   4.793  19.058  0.00  0.00    +0.000 C 
ATOM     22  O   UNL     1       3.603   5.834  18.059  0.00  0.00    +0.000 OA
ENDROOT
BRANCH   1  23
ATOM     23  C   UNL     1       0.083  12.283  18.563  0.00  0.00    +0.000 C 
BRANCH  23  24
ATOM     24  C   UNL     1       0.968  13.551  18.600  0.00  0.00    +0.000 C 
BRANCH  24  25
ATOM     25  N   UNL     1       2.257  13.393  19.333  0.00  0.00    +0.000 NA
BRANCH  25  27
ATOM     26  C   UNL     1       3.293  15.114  17.793  0.00  0.00    +0.000 C 
ATOM     27  C   UNL     1       3.360  13.722  18.411  0.00  0.00    +0.000 C 
ENDBRANCH  25  27
BRANCH  25  28
ATOM     28  C   UNL     1       2.339  14.064  20.635  0.00  0.00    +0.000 C 
ATOM     29  C   UNL     1       3.700  14.054  21.321  0.00  0.00    +0.000 C 
ENDBRANCH  25  28
ENDBRANCH  24  25
ENDBRANCH  23  24
ENDBRANCH   1  23
TORSDOF 5
ENDMDL
MODEL 8
REMARK VINA RESULT:      -6.8      3.369      7.836
REMARK  Name = 
REMARK  7 active torsions:
REMARK  status: ('A' for Active; 'I' for Inactive)
REMARK    1  A    between atoms: C_1  and  C_2
REMARK    2  A    between atoms: C_2  and  N_3
REMARK    3  A    between atoms: N_3  and  C_4
REMARK    4  A    between atoms: N_3  and  C_6
REMARK    5  A    between atoms: C_4  and  C_5
REMARK    6  A    between atoms: C_6  and  C_7
REMARK    7  A    between atoms: C_7  and  N_8
REMARK                            x       y       z     vdW  Elec       q    Type
REMARK                         _______ _______ _______ _____ _____    ______ ____
ROOT
ATOM      1  N   UNL     1       1.086  10.406  19.220  0.00  0.00    +0.000 N 
ATOM      2  C   UNL     1       1.816   9.433  18.526  0.00  0.00    +0.000 A 
ATOM      3  O   UNL     1       2.372   9.627  17.446  0.00  0.00    +0.000 OA
ATOM      4  C   UNL     1       1.929   8.071  19.080  0.00  0.00    +0.000 A 
ATOM      5  C   UNL     1       2.582   7.087  18.305  0.00  0.00    +0.000 A 
ATOM      6  C   UNL     1       2.683   5.816  18.815  0.00  0.00    +0.000 A 
ATOM      7  C   UNL     1       2.168   5.512  20.044  0.00  0.00    +0.000 A 
ATOM      8  C   UNL     1       1.524   6.458  20.818  0.00  0.00    +0.000 A 
ATOM      9  C   UNL     1       1.380   7.784  20.340  0.00  0.00    +0.000 A 
ATOM     10  C   UNL     1       0.695   8.855  21.094  0.00  0.00    +0.000 A 
ATOM     11  C   UNL     1       0.127   8.578  22.348  0.00  0.00    +0.000 A 
ATOM     12  C   UNL     1      -0.559   9.539  23.073  0.00  0.00    +0.000 A 
ATOM     13  C   UNL     1      -0.687  10.830  22.629  0.00  0.00    +0.000 A 
ATOM     14  N   UNL     1      -1.391  11.623  23.450  0.00  0.00    +0.000 NA
ATOM     15  C   UNL     1      -1.550  12.916  23.128  0.00  0.00    +0.000 A 
ATOM     16  C   UNL     1      -0.975  13.468  22.016  0.00  0.00    +0.000 A 
ATOM     17  C   UNL     1      -0.218  12.632  21.197  0.00  0.00    +0.000 A 
ATOM     18  C   UNL     1      -0.084  11.218  21.407  0.00  0.00    +0.000 A 
ATOM     19  C   UNL     1       0.574  10.179  20.580  0.00  0.00    +0.000 A 
ATOM     20  O   UNL     1       2.366   4.209  20.384  0.00  0.00    +0.000 OA
ATOM     21  C   UNL     1       3.062   3.727  19.213  0.00  0.00    +0.000 C 
ATOM     22  O   UNL     1       3.269   4.748  18.215  0.00  0.00    +0.000 OA
ENDROOT
BRANCH   1  23
ATOM     23  C   UNL     1       0.907  11.714  18.579  0.00  0.00    +0.000 C 
BRANCH  23  24
ATOM     24  C   UNL     1       2.064  12.738  18.489  0.00  0.00    +0.000 C 
BRANCH  24  25
ATOM     25  N   UNL     1       1.633  14.160  18.365  0.00  0.00    +0.000 NA
BRANCH  25  27
ATOM     26  C   UNL     1      -0.424  15.519  18.935  0.00  0.00    +0.000 C 
ATOM     27  C   UNL     1       0.161  14.208  18.423  0.00  0.00    +0.000 C 
ENDBRANCH  25  27
BRANCH  25  28
ATOM     28  C   UNL     1       2.303  15.111  19.260  0.00  0.00    +0.000 C 
ATOM     29  C   UNL     1       2.995  14.521  20.484  0.00  0.00    +0.000 C 
ENDBRANCH  25  28
ENDBRANCH  24  25
ENDBRANCH  23  24
ENDBRANCH   1  23
TORSDOF 5
ENDMDL
MODEL 9
REMARK VINA RESULT:      -6.6      2.569      7.171
REMARK  Name = 
REMARK  7 active torsions:
REMARK  status: ('A' for Active; 'I' for Inactive)
REMARK    1  A    between atoms: C_1  and  C_2
REMARK    2  A    between atoms: C_2  and  N_3
REMARK    3  A    between atoms: N_3  and  C_4
REMARK    4  A    between atoms: N_3  and  C_6
REMARK    5  A    between atoms: C_4  and  C_5
REMARK    6  A    between atoms: C_6  and  C_7
REMARK    7  A    between atoms: C_7  and  N_8
REMARK                            x       y       z     vdW  Elec       q    Type
REMARK                         _______ _______ _______ _____ _____    ______ ____
ROOT
ATOM      1  N   UNL     1       4.026   5.901  18.208  0.00  0.00    +0.000 N 
ATOM      2  C   UNL     1       4.884   6.389  17.213  0.00  0.00    +0.000 A 
ATOM      3  O   UNL     1       5.278   7.551  17.151  0.00  0.00    +0.000 OA
ATOM      4  C   UNL     1       5.346   5.486  16.142  0.00  0.00    +0.000 A 
ATOM      5  C   UNL     1       6.123   6.034  15.098  0.00  0.00    +0.000 A 
ATOM      6  C   UNL     1       6.550   5.198  14.096  0.00  0.00    +0.000 A 
ATOM      7  C   UNL     1       6.234   3.868  14.111  0.00  0.00    +0.000 A 
ATOM      8  C   UNL     1       5.473   3.312  15.121  0.00  0.00    +0.000 A 
ATOM      9  C   UNL     1       4.996   4.127  16.177  0.00  0.00    +0.000 A 
ATOM     10  C   UNL     1       4.166   3.620  17.291  0.00  0.00    +0.000 A 
ATOM     11  C   UNL     1       3.795   2.266  17.330  0.00  0.00    +0.000 A 
ATOM     12  C   UNL     1       2.986   1.754  18.330  0.00  0.00    +0.000 A 
ATOM     13  C   UNL     1       2.535   2.529  19.368  0.00  0.00    +0.000 A 
ATOM     14  N   UNL     1       1.754   1.875  20.240  0.00  0.00    +0.000 NA
ATOM     15  C   UNL     1       1.284   2.530  21.313  0.00  0.00    +0.000 A 
ATOM     16  C   UNL     1       1.615   3.832  21.576  0.00  0.00    +0.000 A 
ATOM     17  C   UNL     1       2.457   4.480  20.674  0.00  0.00    +0.000 A 
ATOM     18  C   UNL     1       2.918   3.891  19.449  0.00  0.00    +0.000 A 
ATOM     19  C   UNL     1       3.707   4.472  18.338  0.00  0.00    +0.000 A 
ATOM     20  O   UNL     1       6.744   3.199  13.042  0.00  0.00    +0.000 OA
ATOM     21  C   UNL     1       7.415   4.273  12.346  0.00  0.00    +0.000 C 
ATOM     22  O   UNL     1       7.297   5.545  13.016  0.00  0.00    +0.000 OA
ENDROOT
BRANCH   1  23
ATOM     23  C   UNL     1       3.503   6.860  19.190  0.00  0.00    +0.000 C 
BRANCH  23  24
ATOM     24  C   UNL     1       2.185   7.634  18.945  0.00  0.00    +0.000 C 
BRANCH  24  25
ATOM     25  N   UNL     1       1.784   8.553  20.049  0.00  0.00    +0.000 NA
BRANCH  25  27
ATOM     26  C   UNL     1       1.358   9.975  18.000  0.00  0.00    +0.000 C 
ATOM     27  C   UNL     1       1.049   9.690  19.465  0.00  0.00    +0.000 C 
ENDBRANCH  25  27
BRANCH  25  28
ATOM     28  C   UNL     1       1.114   7.925  21.193  0.00  0.00    +0.000 C 
ATOM     29  C   UNL     1      -0.189   8.567  21.654  0.00  0.00    +0.000 C 
ENDBRANCH  25  28
ENDBRANCH  24  25
ENDBRANCH  23  24
ENDBRANCH   1  23
TORSDOF 5
ENDMDL
