MODEL 1
REMARK VINA RESULT:      -7.7      0.000      0.000
REMARK  Name = 
REMARK  11 active torsions:
REMARK  status: ('A' for Active; 'I' for Inactive)
REMARK    1  A    between atoms: C_1  and  O_2
REMARK    2  A    between atoms: O_2  and  C_3
REMARK    3  A    between atoms: C_3  and  C_5
REMARK    4  A    between atoms: C_10  and  N_11
REMARK    5  A    between atoms: C_12  and  C_14
REMARK    6  A    between atoms: C_14  and  N_15
REMARK    7  A    between atoms: N_15  and  C_16
REMARK    8  A    between atoms: N_15  and  S_24
REMARK    9  A    between atoms: C_19  and  O_20
REMARK   10  A    between atoms: O_20  and  C_21
REMARK   11  A    between atoms: S_24  and  C_27
REMARK                            x       y       z     vdW  Elec       q    Type
REMARK                         _______ _______ _______ _____ _____    ______ ____
ROOT
ATOM      1  N   UNL     1      -0.473  11.171  21.320  0.00  0.00    +0.000 N 
ENDROOT
BRANCH   1   2
ATOM      2  C   UNL     1      -1.175  12.068  22.200  0.00  0.00    +0.000 A 
ATOM      3  C   UNL     1      -0.530  13.246  22.568  0.00  0.00    +0.000 A 
ATOM      4  C   UNL     1      -1.143  14.142  23.445  0.00  0.00    +0.000 A 
ATOM      5  C   UNL     1      -2.401  13.865  23.980  0.00  0.00    +0.000 A 
ATOM      6  C   UNL     1      -3.034  12.667  23.647  0.00  0.00    +0.000 A 
ATOM      7  C   UNL     1      -2.424  11.771  22.754  0.00  0.00    +0.000 A 
BRANCH   5   8
ATOM      8  O   UNL     1      -2.871  14.805  24.853  0.00  0.00    +0.000 OA
ATOM      9  C   UNL     1      -1.910  15.384  25.727  0.00  0.00    +0.000 C 
ENDBRANCH   5   8
ENDBRANCH   1   2
BRANCH   1  10
ATOM     10  S   UNL     1      -0.106  11.778  19.759  0.00  0.00    +0.000 S 
ATOM     11  O   UNL     1      -0.218  13.222  19.811  0.00  0.00    +0.000 OA
ATOM     12  O   UNL     1       1.128  11.163  19.311  0.00  0.00    +0.000 OA
BRANCH  10  13
ATOM     13  C   UNL     1      -1.405  11.184  18.687  0.00  0.00    +0.000 A 
ATOM     14  C   UNL     1      -2.664  11.791  18.704  0.00  0.00    +0.000 A 
ATOM     15  C   UNL     1      -3.660  11.341  17.830  0.00  0.00    +0.000 A 
ATOM     16  C   UNL     1      -3.392  10.306  16.932  0.00  0.00    +0.000 A 
ATOM     17  C   UNL     1      -2.119   9.737  16.882  0.00  0.00    +0.000 A 
ATOM     18  C   UNL     1      -1.121  10.182  17.750  0.00  0.00    +0.000 A 
ENDBRANCH  10  13
ENDBRANCH   1  10
BRANCH   1  19
ATOM     19  C   UNL     1       0.503  10.228  21.919  0.00  0.00    +0.000 C 
BRANCH  19  21
ATOM     20  N   UNL     1       1.766   8.516  20.675  0.00  0.00    +0.000 N 
ATOM     21  C   UNL     1       0.541   8.863  21.232  0.00  0.00    +0.000 C 
ATOM     22  O   UNL     1      -0.451   8.136  21.230  0.00  0.00    +0.000 OA
ATOM     23  H   UNL     1       2.344   9.297  20.374  0.00  0.00    +0.000 HD
BRANCH  20  29
ATOM     24  C   UNL     1       2.268   4.837  20.139  0.00  0.00    +0.000 A 
ATOM     25  C   UNL     1       2.411   4.797  18.747  0.00  0.00    +0.000 A 
ATOM     26  C   UNL     1       2.384   5.979  18.006  0.00  0.00    +0.000 A 
ATOM     27  C   UNL     1       2.211   7.208  18.651  0.00  0.00    +0.000 A 
ATOM     28 CL   UNL     1       2.191   8.636  17.682  0.00  0.00    +0.000 Cl
ATOM     29  C   UNL     1       2.001   7.264  20.039  0.00  0.00    +0.000 A 
ATOM     30  C   UNL     1       2.050   6.071  20.778  0.00  0.00    +0.000 A 
BRANCH  24  31
ATOM     31  C   UNL     1       2.371   3.549  20.887  0.00  0.00    +0.000 C 
ATOM     32  O   UNL     1       2.078   3.424  22.068  0.00  0.00    +0.000 OA
BRANCH  31  34
ATOM     33  C   UNL     1       4.197   2.266  20.176  0.00  0.00    +0.000 C 
ATOM     34  O   UNL     1       2.803   2.563  20.068  0.00  0.00    +0.000 OA
ENDBRANCH  31  34
ENDBRANCH  24  31
ENDBRANCH  20  29
ENDBRANCH  19  21
ENDBRANCH   1  19
TORSDOF 9
ENDMDL
MODEL 2
REMARK VINA RESULT:      -7.7      3.488      8.952
REMARK  Name = 
REMARK  11 active torsions:
REMARK  status: ('A' for Active; 'I' for Inactive)
REMARK    1  A    between atoms: C_1  and  O_2
REMARK    2  A    between atoms: O_2  and  C_3
REMARK    3  A    between atoms: C_3  and  C_5
REMARK    4  A    between atoms: C_10  and  N_11
REMARK    5  A    between atoms: C_12  and  C_14
REMARK    6  A    between atoms: C_14  and  N_15
REMARK    7  A    between atoms: N_15  and  C_16
REMARK    8  A    between atoms: N_15  and  S_24
REMARK    9  A    between atoms: C_19  and  O_20
REMARK   10  A    between atoms: O_20  and  C_21
REMARK   11  A    between atoms: S_24  and  C_27
REMARK                            x       y       z     vdW  Elec       q    Type
REMARK                         _______ _______ _______ _____ _____    ______ ____
ROOT
ATOM      1  N   UNL     1       3.532   6.651  17.593  0.00  0.00    +0.000 N 
ENDROOT
BRANCH   1   2
ATOM      2  C   UNL     1       2.805   5.653  18.333  0.00  0.00    +0.000 A 
ATOM      3  C   UNL     1       3.197   5.413  19.647  0.00  0.00    +0.000 A 
ATOM      4  C   UNL     1       2.555   4.436  20.409  0.00  0.00    +0.000 A 
ATOM      5  C   UNL     1       1.523   3.673  19.861  0.00  0.00    +0.000 A 
ATOM      6  C   UNL     1       1.153   3.881  18.533  0.00  0.00    +0.000 A 
ATOM      7  C   UNL     1       1.790   4.874  17.770  0.00  0.00    +0.000 A 
BRANCH   5   8
ATOM      8  O   UNL     1       1.005   2.725  20.699  0.00  0.00    +0.000 OA
ATOM      9  C   UNL     1       1.694   2.532  21.928  0.00  0.00    +0.000 C 
ENDBRANCH   5   8
ENDBRANCH   1   2
BRANCH   1  10
ATOM     10  S   UNL     1       4.843   6.083  16.645  0.00  0.00    +0.000 S 
ATOM     11  O   UNL     1       4.715   4.644  16.535  0.00  0.00    +0.000 OA
ATOM     12  O   UNL     1       4.925   6.897  15.448  0.00  0.00    +0.000 OA
BRANCH  10  13
ATOM     13  C   UNL     1       6.315   6.412  17.603  0.00  0.00    +0.000 A 
ATOM     14  C   UNL     1       7.029   7.598  17.410  0.00  0.00    +0.000 A 
ATOM     15  C   UNL     1       8.156   7.860  18.196  0.00  0.00    +0.000 A 
ATOM     16  C   UNL     1       8.554   6.953  19.180  0.00  0.00    +0.000 A 
ATOM     17  C   UNL     1       7.810   5.794  19.403  0.00  0.00    +0.000 A 
ATOM     18  C   UNL     1       6.683   5.527  18.625  0.00  0.00    +0.000 A 
ENDBRANCH  10  13
ENDBRANCH   1  10
BRANCH   1  19
ATOM     19  C   UNL     1       2.777   7.814  17.065  0.00  0.00    +0.000 C 
BRANCH  19  21
ATOM     20  N   UNL     1       1.045   9.476  17.626  0.00  0.00    +0.000 N 
ATOM     21  C   UNL     1       1.941   8.536  18.122  0.00  0.00    +0.000 C 
ATOM     22  O   UNL     1       2.054   8.248  19.313  0.00  0.00    +0.000 OA
ATOM     23  H   UNL     1       1.315   9.913  16.749  0.00  0.00    +0.000 HD
BRANCH  20  29
ATOM     24  C   UNL     1      -0.297  11.523  20.468  0.00  0.00    +0.000 A 
ATOM     25  C   UNL     1      -1.623  11.701  20.055  0.00  0.00    +0.000 A 
ATOM     26  C   UNL     1      -2.071  11.113  18.871  0.00  0.00    +0.000 A 
ATOM     27  C   UNL     1      -1.198  10.345  18.093  0.00  0.00    +0.000 A 
ATOM     28 CL   UNL     1      -1.812   9.639  16.643  0.00  0.00    +0.000 Cl
ATOM     29  C   UNL     1       0.152  10.208  18.458  0.00  0.00    +0.000 A 
ATOM     30  C   UNL     1       0.588  10.788  19.660  0.00  0.00    +0.000 A 
BRANCH  24  31
ATOM     31  C   UNL     1       0.109  12.120  21.775  0.00  0.00    +0.000 C 
ATOM     32  O   UNL     1       0.842  13.095  21.878  0.00  0.00    +0.000 OA
BRANCH  31  34
ATOM     33  C   UNL     1      -0.131  10.059  22.862  0.00  0.00    +0.000 C 
ATOM     34  O   UNL     1      -0.464  11.448  22.799  0.00  0.00    +0.000 OA
ENDBRANCH  31  34
ENDBRANCH  24  31
ENDBRANCH  20  29
ENDBRANCH  19  21
ENDBRANCH   1  19
TORSDOF 9
ENDMDL
MODEL 3
REMARK VINA RESULT:      -7.7      2.971      4.465
REMARK  Name = 
REMARK  11 active torsions:
REMARK  status: ('A' for Active; 'I' for Inactive)
REMARK    1  A    between atoms: C_1  and  O_2
REMARK    2  A    between atoms: O_2  and  C_3
REMARK    3  A    between atoms: C_3  and  C_5
REMARK    4  A    between atoms: C_10  and  N_11
REMARK    5  A    between atoms: C_12  and  C_14
REMARK    6  A    between atoms: C_14  and  N_15
REMARK    7  A    between atoms: N_15  and  C_16
REMARK    8  A    between atoms: N_15  and  S_24
REMARK    9  A    between atoms: C_19  and  O_20
REMARK   10  A    between atoms: O_20  and  C_21
REMARK   11  A    between atoms: S_24  and  C_27
REMARK                            x       y       z     vdW  Elec       q    Type
REMARK                         _______ _______ _______ _____ _____    ______ ____
ROOT
ATOM      1  N   UNL     1       1.267  11.045  18.792  0.00  0.00    +0.000 N 
ENDROOT
BRANCH   1   2
ATOM      2  C   UNL     1       1.994  12.261  19.042  0.00  0.00    +0.000 A 
ATOM      3  C   UNL     1       2.008  12.747  20.347  0.00  0.00    +0.000 A 
ATOM      4  C   UNL     1       2.668  13.939  20.650  0.00  0.00    +0.000 A 
ATOM      5  C   UNL     1       3.308  14.670  19.650  0.00  0.00    +0.000 A 
ATOM      6  C   UNL     1       3.263  14.210  18.334  0.00  0.00    +0.000 A 
ATOM      7  C   UNL     1       2.611  13.003  18.031  0.00  0.00    +0.000 A 
BRANCH   5   8
ATOM      8  O   UNL     1       3.882  15.837  20.072  0.00  0.00    +0.000 OA
ATOM      9  C   UNL     1       4.903  16.370  19.238  0.00  0.00    +0.000 C 
ENDBRANCH   5   8
ENDBRANCH   1   2
BRANCH   1  10
ATOM     10  S   UNL     1      -0.443  11.164  18.835  0.00  0.00    +0.000 S 
ATOM     11  O   UNL     1      -0.811  12.429  18.231  0.00  0.00    +0.000 OA
ATOM     12  O   UNL     1      -0.998   9.928  18.320  0.00  0.00    +0.000 OA
BRANCH  10  13
ATOM     13  C   UNL     1      -0.883  11.255  20.564  0.00  0.00    +0.000 A 
ATOM     14  C   UNL     1      -1.817  12.197  21.004  0.00  0.00    +0.000 A 
ATOM     15  C   UNL     1      -2.181  12.229  22.354  0.00  0.00    +0.000 A 
ATOM     16  C   UNL     1      -1.631  11.313  23.253  0.00  0.00    +0.000 A 
ATOM     17  C   UNL     1      -0.737  10.342  22.801  0.00  0.00    +0.000 A 
ATOM     18  C   UNL     1      -0.371  10.302  21.455  0.00  0.00    +0.000 A 
ENDBRANCH  10  13
ENDBRANCH   1  10
BRANCH   1  19
ATOM     19  C   UNL     1       1.847  10.070  17.836  0.00  0.00    +0.000 C 
BRANCH  19  21
ATOM     20  N   UNL     1       2.583   7.734  17.554  0.00  0.00    +0.000 N 
ATOM     21  C   UNL     1       2.064   8.679  18.432  0.00  0.00    +0.000 C 
ATOM     22  O   UNL     1       1.824   8.463  19.619  0.00  0.00    +0.000 OA
ATOM     23  H   UNL     1       2.355   7.881  16.574  0.00  0.00    +0.000 HD
BRANCH  20  29
ATOM     24  C   UNL     1       2.215   4.211  18.786  0.00  0.00    +0.000 A 
ATOM     25  C   UNL     1       3.532   3.754  18.659  0.00  0.00    +0.000 A 
ATOM     26  C   UNL     1       4.532   4.619  18.212  0.00  0.00    +0.000 A 
ATOM     27  C   UNL     1       4.222   5.943  17.887  0.00  0.00    +0.000 A 
ATOM     28 CL   UNL     1       5.502   6.967  17.343  0.00  0.00    +0.000 Cl
ATOM     29  C   UNL     1       2.895   6.402  17.945  0.00  0.00    +0.000 A 
ATOM     30  C   UNL     1       1.900   5.530  18.415  0.00  0.00    +0.000 A 
BRANCH  24  31
ATOM     31  C   UNL     1       1.200   3.261  19.331  0.00  0.00    +0.000 C 
ATOM     32  O   UNL     1       0.735   2.324  18.695  0.00  0.00    +0.000 OA
BRANCH  31  34
ATOM     33  C   UNL     1       1.556   2.769  21.594  0.00  0.00    +0.000 C 
ATOM     34  O   UNL     1       0.901   3.576  20.612  0.00  0.00    +0.000 OA
ENDBRANCH  31  34
ENDBRANCH  24  31
ENDBRANCH  20  29
ENDBRANCH  19  21
ENDBRANCH   1  19
TORSDOF 9
ENDMDL
MODEL 4
REMARK VINA RESULT:      -7.6      3.938     10.270
REMARK  Name = 
REMARK  11 active torsions:
REMARK  status: ('A' for Active; 'I' for Inactive)
REMARK    1  A    between atoms: C_1  and  O_2
REMARK    2  A    between atoms: O_2  and  C_3
REMARK    3  A    between atoms: C_3  and  C_5
REMARK    4  A    between atoms: C_10  and  N_11
REMARK    5  A    between atoms: C_12  and  C_14
REMARK    6  A    between atoms: C_14  and  N_15
REMARK    7  A    between atoms: N_15  and  C_16
REMARK    8  A    between atoms: N_15  and  S_24
REMARK    9  A    between atoms: C_19  and  O_20
REMARK   10  A    between atoms: O_20  and  C_21
REMARK   11  A    between atoms: S_24  and  C_27
REMARK                            x       y       z     vdW  Elec       q    Type
REMARK                         _______ _______ _______ _____ _____    ______ ____
ROOT
ATOM      1  N   UNL     1       4.511   5.636  17.356  0.00  0.00    +0.000 N 
ENDROOT
BRANCH   1   2
ATOM      2  C   UNL     1       5.219   5.212  16.177  0.00  0.00    +0.000 A 
ATOM      3  C   UNL     1       4.551   4.370  15.291  0.00  0.00    +0.000 A 
ATOM      4  C   UNL     1       5.193   3.897  14.146  0.00  0.00    +0.000 A 
ATOM      5  C   UNL     1       6.518   4.243  13.881  0.00  0.00    +0.000 A 
ATOM      6  C   UNL     1       7.206   5.053  14.784  0.00  0.00    +0.000 A 
ATOM      7  C   UNL     1       6.555   5.541  15.930  0.00  0.00    +0.000 A 
BRANCH   5   8
ATOM      8  O   UNL     1       7.040   3.683  12.749  0.00  0.00    +0.000 OA
ATOM      9  C   UNL     1       6.125   2.975  11.921  0.00  0.00    +0.000 C 
ENDBRANCH   5   8
ENDBRANCH   1   2
BRANCH   1  10
ATOM     10  S   UNL     1       4.790   4.719  18.777  0.00  0.00    +0.000 S 
ATOM     11  O   UNL     1       5.669   3.622  18.426  0.00  0.00    +0.000 OA
ATOM     12  O   UNL     1       5.161   5.632  19.841  0.00  0.00    +0.000 OA
BRANCH  10  13
ATOM     13  C   UNL     1       3.211   4.012  19.220  0.00  0.00    +0.000 A 
ATOM     14  C   UNL     1       2.639   3.013  18.427  0.00  0.00    +0.000 A 
ATOM     15  C   UNL     1       1.422   2.441  18.808  0.00  0.00    +0.000 A 
ATOM     16  C   UNL     1       0.790   2.849  19.985  0.00  0.00    +0.000 A 
ATOM     17  C   UNL     1       1.388   3.811  20.800  0.00  0.00    +0.000 A 
ATOM     18  C   UNL     1       2.604   4.384  20.427  0.00  0.00    +0.000 A 
ENDBRANCH  10  13
ENDBRANCH   1  10
BRANCH   1  19
ATOM     19  C   UNL     1       4.259   7.087  17.533  0.00  0.00    +0.000 C 
BRANCH  19  21
ATOM     20  N   UNL     1       2.683   8.666  18.581  0.00  0.00    +0.000 N 
ATOM     21  C   UNL     1       2.840   7.414  18.000  0.00  0.00    +0.000 C 
ATOM     22  O   UNL     1       1.923   6.614  17.819  0.00  0.00    +0.000 OA
ATOM     23  H   UNL     1       3.510   9.040  19.039  0.00  0.00    +0.000 HD
BRANCH  20  29
ATOM     24  C   UNL     1      -0.626  10.432  18.648  0.00  0.00    +0.000 A 
ATOM     25  C   UNL     1      -1.084  10.074  19.922  0.00  0.00    +0.000 A 
ATOM     26  C   UNL     1      -0.284   9.294  20.759  0.00  0.00    +0.000 A 
ATOM     27  C   UNL     1       0.975   8.865  20.328  0.00  0.00    +0.000 A 
ATOM     28 CL   UNL     1       1.920   7.907  21.409  0.00  0.00    +0.000 Cl
ATOM     29  C   UNL     1       1.425   9.159  19.029  0.00  0.00    +0.000 A 
ATOM     30  C   UNL     1       0.622   9.961  18.203  0.00  0.00    +0.000 A 
BRANCH  24  31
ATOM     31  C   UNL     1      -1.495  11.322  17.822  0.00  0.00    +0.000 C 
ATOM     32  O   UNL     1      -2.030  10.970  16.779  0.00  0.00    +0.000 OA
BRANCH  31  34
ATOM     33  C   UNL     1      -0.471  13.381  18.266  0.00  0.00    +0.000 C 
ATOM     34  O   UNL     1      -1.615  12.536  18.406  0.00  0.00    +0.000 OA
ENDBRANCH  31  34
ENDBRANCH  24  31
ENDBRANCH  20  29
ENDBRANCH  19  21
ENDBRANCH   1  19
TORSDOF 9
ENDMDL
MODEL 5
REMARK VINA RESULT:      -7.5      2.906      4.419
REMARK  Name = 
REMARK  11 active torsions:
REMARK  status: ('A' for Active; 'I' for Inactive)
REMARK    1  A    between atoms: C_1  and  O_2
REMARK    2  A    between atoms: O_2  and  C_3
REMARK    3  A    between atoms: C_3  and  C_5
REMARK    4  A    between atoms: C_10  and  N_11
REMARK    5  A    between atoms: C_12  and  C_14
REMARK    6  A    between atoms: C_14  and  N_15
REMARK    7  A    between atoms: N_15  and  C_16
REMARK    8  A    between atoms: N_15  and  S_24
REMARK    9  A    between atoms: C_19  and  O_20
REMARK   10  A    between atoms: O_20  and  C_21
REMARK   11  A    between atoms: S_24  and  C_27
REMARK                            x       y       z     vdW  Elec       q    Type
REMARK                         _______ _______ _______ _____ _____    ______ ____
ROOT
ATOM      1  N   UNL     1       1.137  10.944  18.811  0.00  0.00    +0.000 N 
ENDROOT
BRANCH   1   2
ATOM      2  C   UNL     1       1.934  12.120  19.042  0.00  0.00    +0.000 A 
ATOM      3  C   UNL     1       1.957  12.641  20.333  0.00  0.00    +0.000 A 
ATOM      4  C   UNL     1       2.685  13.798  20.616  0.00  0.00    +0.000 A 
ATOM      5  C   UNL     1       3.384  14.461  19.608  0.00  0.00    +0.000 A 
ATOM      6  C   UNL     1       3.332  13.968  18.304  0.00  0.00    +0.000 A 
ATOM      7  C   UNL     1       2.611  12.796  18.022  0.00  0.00    +0.000 A 
BRANCH   5   8
ATOM      8  O   UNL     1       4.022  15.601  20.009  0.00  0.00    +0.000 OA
ATOM      9  C   UNL     1       3.585  16.811  19.402  0.00  0.00    +0.000 C 
ENDBRANCH   5   8
ENDBRANCH   1   2
BRANCH   1  10
ATOM     10  S   UNL     1      -0.563  11.168  18.827  0.00  0.00    +0.000 S 
ATOM     11  O   UNL     1      -0.840  12.470  18.254  0.00  0.00    +0.000 OA
ATOM     12  O   UNL     1      -1.182   9.983  18.267  0.00  0.00    +0.000 OA
BRANCH  10  13
ATOM     13  C   UNL     1      -1.029  11.237  20.550  0.00  0.00    +0.000 A 
ATOM     14  C   UNL     1      -0.465  10.347  21.468  0.00  0.00    +0.000 A 
ATOM     15  C   UNL     1      -0.810  10.439  22.821  0.00  0.00    +0.000 A 
ATOM     16  C   UNL     1      -1.695  11.427  23.255  0.00  0.00    +0.000 A 
ATOM     17  C   UNL     1      -2.218  12.346  22.344  0.00  0.00    +0.000 A 
ATOM     18  C   UNL     1      -1.876  12.261  20.993  0.00  0.00    +0.000 A 
ENDBRANCH  10  13
ENDBRANCH   1  10
BRANCH   1  19
ATOM     19  C   UNL     1       1.669   9.913  17.888  0.00  0.00    +0.000 C 
BRANCH  19  21
ATOM     20  N   UNL     1       2.794   7.721  17.803  0.00  0.00    +0.000 N 
ATOM     21  C   UNL     1       2.064   8.609  18.584  0.00  0.00    +0.000 C 
ATOM     22  O   UNL     1       1.773   8.417  19.763  0.00  0.00    +0.000 OA
ATOM     23  H   UNL     1       2.620   7.777  16.803  0.00  0.00    +0.000 HD
BRANCH  20  29
ATOM     24  C   UNL     1       2.967   4.396  19.531  0.00  0.00    +0.000 A 
ATOM     25  C   UNL     1       4.274   4.009  19.216  0.00  0.00    +0.000 A 
ATOM     26  C   UNL     1       5.097   4.860  18.477  0.00  0.00    +0.000 A 
ATOM     27  C   UNL     1       4.618   6.102  18.047  0.00  0.00    +0.000 A 
ATOM     28 CL   UNL     1       5.683   7.113  17.141  0.00  0.00    +0.000 Cl
ATOM     29  C   UNL     1       3.288   6.481  18.298  0.00  0.00    +0.000 A 
ATOM     30  C   UNL     1       2.475   5.626  19.059  0.00  0.00    +0.000 A 
BRANCH  24  31
ATOM     31  C   UNL     1       2.155   3.474  20.380  0.00  0.00    +0.000 C 
ATOM     32  O   UNL     1       1.752   3.760  21.500  0.00  0.00    +0.000 OA
BRANCH  31  34
ATOM     33  C   UNL     1       0.833   2.362  18.798  0.00  0.00    +0.000 C 
ATOM     34  O   UNL     1       1.920   2.315  19.724  0.00  0.00    +0.000 OA
ENDBRANCH  31  34
ENDBRANCH  24  31
ENDBRANCH  20  29
ENDBRANCH  19  21
ENDBRANCH   1  19
TORSDOF 9
ENDMDL
MODEL 6
REMARK VINA RESULT:      -7.5      2.951      4.479
REMARK  Name = 
REMARK  11 active torsions:
REMARK  status: ('A' for Active; 'I' for Inactive)
REMARK    1  A    between atoms: C_1  and  O_2
REMARK    2  A    between atoms: O_2  and  C_3
REMARK    3  A    between atoms: C_3  and  C_5
REMARK    4  A    between atoms: C_10  and  N_11
REMARK    5  A    between atoms: C_12  and  C_14
REMARK    6  A    between atoms: C_14  and  N_15
REMARK    7  A    between atoms: N_15  and  C_16
REMARK    8  A    between atoms: N_15  and  S_24
REMARK    9  A    between atoms: C_19  and  O_20
REMARK   10  A    between atoms: O_20  and  C_21
REMARK   11  A    between atoms: S_24  and  C_27
REMARK                            x       y       z     vdW  Elec       q    Type
REMARK                         _______ _______ _______ _____ _____    ______ ____
ROOT
ATOM      1  N   UNL     1       1.211  11.120  18.780  0.00  0.00    +0.000 N 
ENDROOT
BRANCH   1   2
ATOM      2  C   UNL     1       1.956  12.308  19.107  0.00  0.00    +0.000 A 
ATOM      3  C   UNL     1       2.666  12.926  18.081  0.00  0.00    +0.000 A 
ATOM      4  C   UNL     1       3.434  14.062  18.339  0.00  0.00    +0.000 A 
ATOM      5  C   UNL     1       3.518  14.585  19.630  0.00  0.00    +0.000 A 
ATOM      6  C   UNL     1       2.842  13.947  20.669  0.00  0.00    +0.000 A 
ATOM      7  C   UNL     1       2.057  12.811  20.408  0.00  0.00    +0.000 A 
BRANCH   5   8
ATOM      8  O   UNL     1       4.333  15.675  19.753  0.00  0.00    +0.000 OA
ATOM      9  C   UNL     1       3.719  16.943  19.553  0.00  0.00    +0.000 C 
ENDBRANCH   5   8
ENDBRANCH   1   2
BRANCH   1  10
ATOM     10  S   UNL     1      -0.497  11.276  18.780  0.00  0.00    +0.000 S 
ATOM     11  O   UNL     1      -0.819  12.579  18.235  0.00  0.00    +0.000 OA
ATOM     12  O   UNL     1      -1.062  10.081  18.183  0.00  0.00    +0.000 OA
BRANCH  10  13
ATOM     13  C   UNL     1      -0.986  11.284  20.498  0.00  0.00    +0.000 A 
ATOM     14  C   UNL     1      -0.402  10.390  21.400  0.00  0.00    +0.000 A 
ATOM     15  C   UNL     1      -0.766  10.435  22.750  0.00  0.00    +0.000 A 
ATOM     16  C   UNL     1      -1.691  11.380  23.198  0.00  0.00    +0.000 A 
ATOM     17  C   UNL     1      -2.234  12.303  22.304  0.00  0.00    +0.000 A 
ATOM     18  C   UNL     1      -1.874  12.265  20.956  0.00  0.00    +0.000 A 
ENDBRANCH  10  13
ENDBRANCH   1  10
BRANCH   1  19
ATOM     19  C   UNL     1       1.799  10.178  17.798  0.00  0.00    +0.000 C 
BRANCH  19  21
ATOM     20  N   UNL     1       2.719   7.909  17.506  0.00  0.00    +0.000 N 
ATOM     21  C   UNL     1       2.061   8.782  18.365  0.00  0.00    +0.000 C 
ATOM     22  O   UNL     1       1.734   8.505  19.518  0.00  0.00    +0.000 OA
ATOM     23  H   UNL     1       2.568   8.078  16.515  0.00  0.00    +0.000 HD
BRANCH  20  29
ATOM     24  C   UNL     1       2.535   4.405  18.830  0.00  0.00    +0.000 A 
ATOM     25  C   UNL     1       3.834   3.958  18.559  0.00  0.00    +0.000 A 
ATOM     26  C   UNL     1       4.766   4.823  17.984  0.00  0.00    +0.000 A 
ATOM     27  C   UNL     1       4.405   6.139  17.675  0.00  0.00    +0.000 A 
ATOM     28 CL   UNL     1       5.602   7.164  16.970  0.00  0.00    +0.000 Cl
ATOM     29  C   UNL     1       3.089   6.587  17.881  0.00  0.00    +0.000 A 
ATOM     30  C   UNL     1       2.165   5.715  18.478  0.00  0.00    +0.000 A 
BRANCH  24  31
ATOM     31  C   UNL     1       1.601   3.456  19.506  0.00  0.00    +0.000 C 
ATOM     32  O   UNL     1       1.043   2.530  18.933  0.00  0.00    +0.000 OA
BRANCH  31  34
ATOM     33  C   UNL     1       1.409   2.625  21.688  0.00  0.00    +0.000 C 
ATOM     34  O   UNL     1       1.492   3.758  20.819  0.00  0.00    +0.000 OA
ENDBRANCH  31  34
ENDBRANCH  24  31
ENDBRANCH  20  29
ENDBRANCH  19  21
ENDBRANCH   1  19
TORSDOF 9
ENDMDL
MODEL 7
REMARK VINA RESULT:      -7.5      3.104      9.689
REMARK  Name = 
REMARK  11 active torsions:
REMARK  status: ('A' for Active; 'I' for Inactive)
REMARK    1  A    between atoms: C_1  and  O_2
REMARK    2  A    between atoms: O_2  and  C_3
REMARK    3  A    between atoms: C_3  and  C_5
REMARK    4  A    between atoms: C_10  and  N_11
REMARK    5  A    between atoms: C_12  and  C_14
REMARK    6  A    between atoms: C_14  and  N_15
REMARK    7  A    between atoms: N_15  and  C_16
REMARK    8  A    between atoms: N_15  and  S_24
REMARK    9  A    between atoms: C_19  and  O_20
REMARK   10  A    between atoms: O_20  and  C_21
REMARK   11  A    between atoms: S_24  and  C_27
REMARK                            x       y       z     vdW  Elec       q    Type
REMARK                         _______ _______ _______ _____ _____    ______ ____
ROOT
ATOM      1  N   UNL     1       2.555   5.860  18.974  0.00  0.00    +0.000 N 
ENDROOT
BRANCH   1   2
ATOM      2  C   UNL     1       3.837   5.873  18.320  0.00  0.00    +0.000 A 
ATOM      3  C   UNL     1       3.855   6.052  16.939  0.00  0.00    +0.000 A 
ATOM      4  C   UNL     1       5.064   6.041  16.241  0.00  0.00    +0.000 A 
ATOM      5  C   UNL     1       6.269   5.833  16.911  0.00  0.00    +0.000 A 
ATOM      6  C   UNL     1       6.255   5.613  18.288  0.00  0.00    +0.000 A 
ATOM      7  C   UNL     1       5.040   5.637  18.994  0.00  0.00    +0.000 A 
BRANCH   5   8
ATOM      8  O   UNL     1       7.374   5.808  16.107  0.00  0.00    +0.000 OA
ATOM      9  C   UNL     1       7.287   4.988  14.948  0.00  0.00    +0.000 C 
ENDBRANCH   5   8
ENDBRANCH   1   2
BRANCH   1  10
ATOM     10  S   UNL     1       1.672   4.393  18.878  0.00  0.00    +0.000 S 
ATOM     11  O   UNL     1       0.772   4.348  20.013  0.00  0.00    +0.000 OA
ATOM     12  O   UNL     1       1.148   4.264  17.533  0.00  0.00    +0.000 OA
BRANCH  10  13
ATOM     13  C   UNL     1       2.871   3.087  19.100  0.00  0.00    +0.000 A 
ATOM     14  C   UNL     1       3.520   2.929  20.328  0.00  0.00    +0.000 A 
ATOM     15  C   UNL     1       4.426   1.877  20.500  0.00  0.00    +0.000 A 
ATOM     16  C   UNL     1       4.666   0.979  19.458  0.00  0.00    +0.000 A 
ATOM     17  C   UNL     1       3.979   1.111  18.251  0.00  0.00    +0.000 A 
ATOM     18  C   UNL     1       3.072   2.156  18.073  0.00  0.00    +0.000 A 
ENDBRANCH  10  13
ENDBRANCH   1  10
BRANCH   1  19
ATOM     19  C   UNL     1       2.398   6.658  20.214  0.00  0.00    +0.000 C 
BRANCH  19  21
ATOM     20  N   UNL     1       0.716   8.319  20.913  0.00  0.00    +0.000 N 
ATOM     21  C   UNL     1       1.711   8.007  19.995  0.00  0.00    +0.000 C 
ATOM     22  O   UNL     1       2.072   8.751  19.085  0.00  0.00    +0.000 OA
ATOM     23  H   UNL     1       0.237   7.521  21.324  0.00  0.00    +0.000 HD
BRANCH  20  29
ATOM     24  C   UNL     1      -1.075  11.374  19.675  0.00  0.00    +0.000 A 
ATOM     25  C   UNL     1      -1.453  11.960  20.888  0.00  0.00    +0.000 A 
ATOM     26  C   UNL     1      -1.081  11.371  22.097  0.00  0.00    +0.000 A 
ATOM     27  C   UNL     1      -0.330  10.191  22.101  0.00  0.00    +0.000 A 
ATOM     28 CL   UNL     1       0.105   9.511  23.626  0.00  0.00    +0.000 Cl
ATOM     29  C   UNL     1       0.004   9.551  20.894  0.00  0.00    +0.000 A 
ATOM     30  C   UNL     1      -0.359  10.164  19.684  0.00  0.00    +0.000 A 
BRANCH  24  31
ATOM     31  C   UNL     1      -1.445  12.083  18.414  0.00  0.00    +0.000 C 
ATOM     32  O   UNL     1      -0.768  12.969  17.910  0.00  0.00    +0.000 OA
BRANCH  31  34
ATOM     33  C   UNL     1      -2.471  10.895  16.676  0.00  0.00    +0.000 C 
ATOM     34  O   UNL     1      -2.602  11.590  17.918  0.00  0.00    +0.000 OA
ENDBRANCH  31  34
ENDBRANCH  24  31
ENDBRANCH  20  29
ENDBRANCH  19  21
ENDBRANCH   1  19
TORSDOF 9
ENDMDL
MODEL 8
REMARK VINA RESULT:      -7.4      3.583      9.141
REMARK  Name = 
REMARK  11 active torsions:
REMARK  status: ('A' for Active; 'I' for Inactive)
REMARK    1  A    between atoms: C_1  and  O_2
REMARK    2  A    between atoms: O_2  and  C_3
REMARK    3  A    between atoms: C_3  and  C_5
REMARK    4  A    between atoms: C_10  and  N_11
REMARK    5  A    between atoms: C_12  and  C_14
REMARK    6  A    between atoms: C_14  and  N_15
REMARK    7  A    between atoms: N_15  and  C_16
REMARK    8  A    between atoms: N_15  and  S_24
REMARK    9  A    between atoms: C_19  and  O_20
REMARK   10  A    between atoms: O_20  and  C_21
REMARK   11  A    between atoms: S_24  and  C_27
REMARK                            x       y       z     vdW  Elec       q    Type
REMARK                         _______ _______ _______ _____ _____    ______ ____
ROOT
ATOM      1  N   UNL     1       3.531   6.701  17.595  0.00  0.00    +0.000 N 
ENDROOT
BRANCH   1   2
ATOM      2  C   UNL     1       2.942   5.699  18.444  0.00  0.00    +0.000 A 
ATOM      3  C   UNL     1       1.918   4.922  17.910  0.00  0.00    +0.000 A 
ATOM      4  C   UNL     1       1.284   3.955  18.691  0.00  0.00    +0.000 A 
ATOM      5  C   UNL     1       1.653   3.764  20.023  0.00  0.00    +0.000 A 
ATOM      6  C   UNL     1       2.650   4.567  20.576  0.00  0.00    +0.000 A 
ATOM      7  C   UNL     1       3.298   5.531  19.786  0.00  0.00    +0.000 A 
BRANCH   5   8
ATOM      8  O   UNL     1       0.928   2.814  20.687  0.00  0.00    +0.000 OA
ATOM      9  C   UNL     1       1.442   2.401  21.947  0.00  0.00    +0.000 C 
ENDBRANCH   5   8
ENDBRANCH   1   2
BRANCH   1  10
ATOM     10  S   UNL     1       4.840   6.187  16.614  0.00  0.00    +0.000 S 
ATOM     11  O   UNL     1       4.726   4.752  16.446  0.00  0.00    +0.000 OA
ATOM     12  O   UNL     1       4.902   7.049  15.450  0.00  0.00    +0.000 OA
BRANCH  10  13
ATOM     13  C   UNL     1       6.317   6.493  17.571  0.00  0.00    +0.000 A 
ATOM     14  C   UNL     1       7.016   7.695  17.421  0.00  0.00    +0.000 A 
ATOM     15  C   UNL     1       8.147   7.937  18.207  0.00  0.00    +0.000 A 
ATOM     16  C   UNL     1       8.564   6.996  19.150  0.00  0.00    +0.000 A 
ATOM     17  C   UNL     1       7.835   5.820  19.332  0.00  0.00    +0.000 A 
ATOM     18  C   UNL     1       6.704   5.573  18.553  0.00  0.00    +0.000 A 
ENDBRANCH  10  13
ENDBRANCH   1  10
BRANCH   1  19
ATOM     19  C   UNL     1       2.642   7.747  17.034  0.00  0.00    +0.000 C 
BRANCH  19  21
ATOM     20  N   UNL     1       1.215   9.675  17.600  0.00  0.00    +0.000 N 
ATOM     21  C   UNL     1       1.968   8.617  18.095  0.00  0.00    +0.000 C 
ATOM     22  O   UNL     1       2.076   8.342  19.289  0.00  0.00    +0.000 OA
ATOM     23  H   UNL     1       1.520  10.044  16.703  0.00  0.00    +0.000 HD
BRANCH  20  29
ATOM     24  C   UNL     1       0.386  12.221  20.228  0.00  0.00    +0.000 A 
ATOM     25  C   UNL     1      -0.996  12.343  20.042  0.00  0.00    +0.000 A 
ATOM     26  C   UNL     1      -1.646  11.558  19.088  0.00  0.00    +0.000 A 
ATOM     27  C   UNL     1      -0.918  10.650  18.312  0.00  0.00    +0.000 A 
ATOM     28 CL   UNL     1      -1.777   9.704  17.151  0.00  0.00    +0.000 Cl
ATOM     29  C   UNL     1       0.479  10.560  18.438  0.00  0.00    +0.000 A 
ATOM     30  C   UNL     1       1.119  11.339  19.415  0.00  0.00    +0.000 A 
BRANCH  24  31
ATOM     31  C   UNL     1       1.017  13.037  21.307  0.00  0.00    +0.000 C 
ATOM     32  O   UNL     1       0.385  13.586  22.200  0.00  0.00    +0.000 OA
BRANCH  31  34
ATOM     33  C   UNL     1       2.911  14.332  20.837  0.00  0.00    +0.000 C 
ATOM     34  O   UNL     1       2.361  13.053  21.161  0.00  0.00    +0.000 OA
ENDBRANCH  31  34
ENDBRANCH  24  31
ENDBRANCH  20  29
ENDBRANCH  19  21
ENDBRANCH   1  19
TORSDOF 9
ENDMDL
MODEL 9
REMARK VINA RESULT:      -7.4      3.528      9.887
REMARK  Name = 
REMARK  11 active torsions:
REMARK  status: ('A' for Active; 'I' for Inactive)
REMARK    1  A    between atoms: C_1  and  O_2
REMARK    2  A    between atoms: O_2  and  C_3
REMARK    3  A    between atoms: C_3  and  C_5
REMARK    4  A    between atoms: C_10  and  N_11
REMARK    5  A    between atoms: C_12  and  C_14
REMARK    6  A    between atoms: C_14  and  N_15
REMARK    7  A    between atoms: N_15  and  C_16
REMARK    8  A    between atoms: N_15  and  S_24
REMARK    9  A    between atoms: C_19  and  O_20
REMARK   10  A    between atoms: O_20  and  C_21
REMARK   11  A    between atoms: S_24  and  C_27
REMARK                            x       y       z     vdW  Elec       q    Type
REMARK                         _______ _______ _______ _____ _____    ______ ____
ROOT
ATOM      1  N   UNL     1       3.259   5.533  17.746  0.00  0.00    +0.000 N 
ENDROOT
BRANCH   1   2
ATOM      2  C   UNL     1       4.496   5.454  17.015  0.00  0.00    +0.000 A 
ATOM      3  C   UNL     1       4.720   6.402  16.020  0.00  0.00    +0.000 A 
ATOM      4  C   UNL     1       5.885   6.361  15.254  0.00  0.00    +0.000 A 
ATOM      5  C   UNL     1       6.834   5.359  15.458  0.00  0.00    +0.000 A 
ATOM      6  C   UNL     1       6.598   4.382  16.425  0.00  0.00    +0.000 A 
ATOM      7  C   UNL     1       5.431   4.432  17.207  0.00  0.00    +0.000 A 
BRANCH   5   8
ATOM      8  O   UNL     1       7.910   5.410  14.616  0.00  0.00    +0.000 OA
ATOM      9  C   UNL     1       7.681   4.974  13.281  0.00  0.00    +0.000 C 
ENDBRANCH   5   8
ENDBRANCH   1   2
BRANCH   1  10
ATOM     10  S   UNL     1       2.237   4.159  17.654  0.00  0.00    +0.000 S 
ATOM     11  O   UNL     1       0.894   4.629  17.379  0.00  0.00    +0.000 OA
ATOM     12  O   UNL     1       2.859   3.188  16.776  0.00  0.00    +0.000 OA
BRANCH  10  13
ATOM     13  C   UNL     1       2.226   3.450  19.294  0.00  0.00    +0.000 A 
ATOM     14  C   UNL     1       3.383   2.862  19.814  0.00  0.00    +0.000 A 
ATOM     15  C   UNL     1       3.370   2.347  21.114  0.00  0.00    +0.000 A 
ATOM     16  C   UNL     1       2.216   2.437  21.895  0.00  0.00    +0.000 A 
ATOM     17  C   UNL     1       1.080   3.069  21.391  0.00  0.00    +0.000 A 
ATOM     18  C   UNL     1       1.086   3.588  20.095  0.00  0.00    +0.000 A 
ENDBRANCH  10  13
ENDBRANCH   1  10
BRANCH   1  19
ATOM     19  C   UNL     1       3.251   6.291  19.020  0.00  0.00    +0.000 C 
BRANCH  19  21
ATOM     20  N   UNL     1       1.611   7.800  20.075  0.00  0.00    +0.000 N 
ATOM     21  C   UNL     1       2.420   7.575  18.968  0.00  0.00    +0.000 C 
ATOM     22  O   UNL     1       2.522   8.346  18.015  0.00  0.00    +0.000 OA
ATOM     23  H   UNL     1       1.297   6.964  20.562  0.00  0.00    +0.000 HD
BRANCH  20  29
ATOM     24  C   UNL     1      -0.840  10.545  19.348  0.00  0.00    +0.000 A 
ATOM     25  C   UNL     1      -0.814  11.242  20.561  0.00  0.00    +0.000 A 
ATOM     26  C   UNL     1       0.036  10.829  21.588  0.00  0.00    +0.000 A 
ATOM     27  C   UNL     1       0.865   9.716  21.408  0.00  0.00    +0.000 A 
ATOM     28 CL   UNL     1       1.899   9.256  22.712  0.00  0.00    +0.000 Cl
ATOM     29  C   UNL     1       0.807   8.965  20.222  0.00  0.00    +0.000 A 
ATOM     30  C   UNL     1      -0.037   9.401  19.189  0.00  0.00    +0.000 A 
BRANCH  24  31
ATOM     31  C   UNL     1      -1.720  11.071  18.263  0.00  0.00    +0.000 C 
ATOM     32  O   UNL     1      -1.656  10.703  17.097  0.00  0.00    +0.000 OA
BRANCH  31  34
ATOM     33  C   UNL     1      -3.969  11.681  18.507  0.00  0.00    +0.000 C 
ATOM     34  O   UNL     1      -2.593  11.976  18.761  0.00  0.00    +0.000 OA
ENDBRANCH  31  34
ENDBRANCH  24  31
ENDBRANCH  20  29
ENDBRANCH  19  21
ENDBRANCH   1  19
TORSDOF 9
ENDMDL
