MODEL 1
REMARK VINA RESULT:      -8.2      0.000      0.000
REMARK  Name = 
REMARK  8 active torsions:
REMARK  status: ('A' for Active; 'I' for Inactive)
REMARK    1  A    between atoms: C_1  and  O_2
REMARK    2  A    between atoms: O_2  and  C_3
REMARK    3  A    between atoms: C_6  and  C_7
REMARK    4  A    between atoms: C_13  and  S_14
REMARK    5  A    between atoms: S_14  and  C_15
REMARK    6  A    between atoms: C_15  and  C_16
REMARK    7  A    between atoms: N_18  and  C_19
REMARK    8  A    between atoms: C_19  and  C_20
REMARK                            x       y       z     vdW  Elec       q    Type
REMARK                         _______ _______ _______ _____ _____    ______ ____
ROOT
ATOM      1  C   UNL     1       4.041   3.481  17.970  0.00  0.00    +0.000 A 
ATOM      2  N   UNL     1       3.782   2.188  18.107  0.00  0.00    +0.000 NA
ATOM      3  N   UNL     1       2.778   2.029  19.025  0.00  0.00    +0.000 NA
ATOM      4  C   UNL     1       2.414   3.223  19.424  0.00  0.00    +0.000 A 
ATOM      5  C   UNL     1       1.430   3.650  20.339  0.00  0.00    +0.000 A 
ATOM      6  C   UNL     1       1.257   4.961  20.546  0.00  0.00    +0.000 A 
ATOM      7  C   UNL     1       2.135   5.888  19.786  0.00  0.00    +0.000 A 
ATOM      8  N   UNL     1       3.055   5.559  18.937  0.00  0.00    +0.000 NA
ATOM      9  N   UNL     1       3.171   4.190  18.784  0.00  0.00    +0.000 N 
ENDROOT
BRANCH   1  13
ATOM     10  C   UNL     1       7.008   5.002  15.279  0.00  0.00    +0.000 A 
ATOM     11  C   UNL     1       5.750   4.619  14.819  0.00  0.00    +0.000 A 
ATOM     12  C   UNL     1       4.785   4.144  15.711  0.00  0.00    +0.000 A 
ATOM     13  C   UNL     1       5.064   4.036  17.082  0.00  0.00    +0.000 A 
ATOM     14  C   UNL     1       6.337   4.405  17.532  0.00  0.00    +0.000 A 
ATOM     15  C   UNL     1       7.304   4.885  16.637  0.00  0.00    +0.000 A 
BRANCH  10  17
ATOM     16  C   UNL     1       7.584   4.998  12.986  0.00  0.00    +0.000 C 
ATOM     17  O   UNL     1       7.876   5.425  14.312  0.00  0.00    +0.000 OA
ENDBRANCH  10  17
ENDBRANCH   1  13
BRANCH   7  18
ATOM     18  S   UNL     1       1.844   7.567  20.194  0.00  0.00    +0.000 S 
BRANCH  18  19
ATOM     19  C   UNL     1       2.129   8.370  18.593  0.00  0.00    +0.000 C 
BRANCH  19  20
ATOM     20  C   UNL     1       1.453   9.733  18.565  0.00  0.00    +0.000 C 
ATOM     21  O   UNL     1       2.007  10.724  18.092  0.00  0.00    +0.000 OA
ATOM     22  N   UNL     1       0.206   9.786  19.155  0.00  0.00    +0.000 N 
ATOM     23  H   UNL     1      -0.305   8.918  19.267  0.00  0.00    +0.000 HD
BRANCH  22  24
ATOM     24  C   UNL     1      -0.577  11.000  19.102  0.00  0.00    +0.000 C 
BRANCH  24  25
ATOM     25  C   UNL     1      -1.733  10.815  18.190  0.00  0.00    +0.000 A 
ATOM     26  C   UNL     1      -1.974   9.956  17.137  0.00  0.00    +0.000 A 
ATOM     27  C   UNL     1      -3.292  10.219  16.695  0.00  0.00    +0.000 A 
ATOM     28  C   UNL     1      -3.771  11.225  17.500  0.00  0.00    +0.000 A 
ATOM     29  O   UNL     1      -2.830  11.601  18.406  0.00  0.00    +0.000 OA
ENDBRANCH  24  25
ENDBRANCH  22  24
ENDBRANCH  19  20
ENDBRANCH  18  19
ENDBRANCH   7  18
TORSDOF 7
ENDMDL
MODEL 2
REMARK VINA RESULT:      -7.9      1.252      1.590
REMARK  Name = 
REMARK  8 active torsions:
REMARK  status: ('A' for Active; 'I' for Inactive)
REMARK    1  A    between atoms: C_1  and  O_2
REMARK    2  A    between atoms: O_2  and  C_3
REMARK    3  A    between atoms: C_6  and  C_7
REMARK    4  A    between atoms: C_13  and  S_14
REMARK    5  A    between atoms: S_14  and  C_15
REMARK    6  A    between atoms: C_15  and  C_16
REMARK    7  A    between atoms: N_18  and  C_19
REMARK    8  A    between atoms: C_19  and  C_20
REMARK                            x       y       z     vdW  Elec       q    Type
REMARK                         _______ _______ _______ _____ _____    ______ ____
ROOT
ATOM      1  C   UNL     1       4.054   3.507  17.840  0.00  0.00    +0.000 A 
ATOM      2  N   UNL     1       3.757   2.238  18.082  0.00  0.00    +0.000 NA
ATOM      3  N   UNL     1       2.806   2.182  19.068  0.00  0.00    +0.000 NA
ATOM      4  C   UNL     1       2.511   3.415  19.402  0.00  0.00    +0.000 A 
ATOM      5  C   UNL     1       1.602   3.943  20.341  0.00  0.00    +0.000 A 
ATOM      6  C   UNL     1       1.490   5.271  20.464  0.00  0.00    +0.000 A 
ATOM      7  C   UNL     1       2.353   6.108  19.591  0.00  0.00    +0.000 A 
ATOM      8  N   UNL     1       3.206   5.685  18.714  0.00  0.00    +0.000 NA
ATOM      9  N   UNL     1       3.262   4.305  18.651  0.00  0.00    +0.000 N 
ENDROOT
BRANCH   1  13
ATOM     10  C   UNL     1       6.965   4.936  15.039  0.00  0.00    +0.000 A 
ATOM     11  C   UNL     1       7.236   4.907  16.405  0.00  0.00    +0.000 A 
ATOM     12  C   UNL     1       6.285   4.420  17.305  0.00  0.00    +0.000 A 
ATOM     13  C   UNL     1       5.040   3.957  16.856  0.00  0.00    +0.000 A 
ATOM     14  C   UNL     1       4.768   4.008  15.483  0.00  0.00    +0.000 A 
ATOM     15  C   UNL     1       5.724   4.495  14.580  0.00  0.00    +0.000 A 
BRANCH  10  17
ATOM     16  C   UNL     1       7.834   5.235  12.861  0.00  0.00    +0.000 C 
ATOM     17  O   UNL     1       7.959   5.459  14.261  0.00  0.00    +0.000 OA
ENDBRANCH  10  17
ENDBRANCH   1  13
BRANCH   7  18
ATOM     18  S   UNL     1       2.149   7.821  19.895  0.00  0.00    +0.000 S 
BRANCH  18  19
ATOM     19  C   UNL     1       0.982   7.793  21.283  0.00  0.00    +0.000 C 
BRANCH  19  20
ATOM     20  C   UNL     1       0.061   9.002  21.215  0.00  0.00    +0.000 C 
ATOM     21  O   UNL     1      -0.637   9.342  22.168  0.00  0.00    +0.000 OA
ATOM     22  N   UNL     1       0.027   9.650  19.996  0.00  0.00    +0.000 N 
ATOM     23  H   UNL     1       0.803   9.512  19.361  0.00  0.00    +0.000 HD
BRANCH  22  24
ATOM     24  C   UNL     1      -0.733  10.871  19.839  0.00  0.00    +0.000 C 
BRANCH  24  25
ATOM     25  C   UNL     1      -1.614  10.766  18.650  0.00  0.00    +0.000 A 
ATOM     26  C   UNL     1      -1.588   9.967  17.525  0.00  0.00    +0.000 A 
ATOM     27  C   UNL     1      -2.741  10.291  16.772  0.00  0.00    +0.000 A 
ATOM     28  C   UNL     1      -3.395  11.273  17.479  0.00  0.00    +0.000 A 
ATOM     29  O   UNL     1      -2.716  11.575  18.617  0.00  0.00    +0.000 OA
ENDBRANCH  24  25
ENDBRANCH  22  24
ENDBRANCH  19  20
ENDBRANCH  18  19
ENDBRANCH   7  18
TORSDOF 7
ENDMDL
MODEL 3
REMARK VINA RESULT:      -7.8      2.370      3.220
REMARK  Name = 
REMARK  8 active torsions:
REMARK  status: ('A' for Active; 'I' for Inactive)
REMARK    1  A    between atoms: C_1  and  O_2
REMARK    2  A    between atoms: O_2  and  C_3
REMARK    3  A    between atoms: C_6  and  C_7
REMARK    4  A    between atoms: C_13  and  S_14
REMARK    5  A    between atoms: S_14  and  C_15
REMARK    6  A    between atoms: C_15  and  C_16
REMARK    7  A    between atoms: N_18  and  C_19
REMARK    8  A    between atoms: C_19  and  C_20
REMARK                            x       y       z     vdW  Elec       q    Type
REMARK                         _______ _______ _______ _____ _____    ______ ____
ROOT
ATOM      1  C   UNL     1       4.344   3.779  18.507  0.00  0.00    +0.000 A 
ATOM      2  N   UNL     1       4.254   2.568  19.037  0.00  0.00    +0.000 NA
ATOM      3  N   UNL     1       3.343   2.595  20.061  0.00  0.00    +0.000 NA
ATOM      4  C   UNL     1       2.866   3.814  20.132  0.00  0.00    +0.000 A 
ATOM      5  C   UNL     1       1.904   4.399  20.980  0.00  0.00    +0.000 A 
ATOM      6  C   UNL     1       1.589   5.690  20.815  0.00  0.00    +0.000 A 
ATOM      7  C   UNL     1       2.292   6.427  19.734  0.00  0.00    +0.000 A 
ATOM      8  N   UNL     1       3.183   5.948  18.927  0.00  0.00    +0.000 NA
ATOM      9  N   UNL     1       3.453   4.613  19.165  0.00  0.00    +0.000 N 
ENDROOT
BRANCH   1  13
ATOM     10  C   UNL     1       6.962   4.946  15.321  0.00  0.00    +0.000 A 
ATOM     11  C   UNL     1       7.362   5.043  16.652  0.00  0.00    +0.000 A 
ATOM     12  C   UNL     1       6.506   4.640  17.680  0.00  0.00    +0.000 A 
ATOM     13  C   UNL     1       5.227   4.138  17.396  0.00  0.00    +0.000 A 
ATOM     14  C   UNL     1       4.826   4.061  16.057  0.00  0.00    +0.000 A 
ATOM     15  C   UNL     1       5.687   4.462  15.025  0.00  0.00    +0.000 A 
BRANCH  10  17
ATOM     16  C   UNL     1       7.620   5.037  13.053  0.00  0.00    +0.000 C 
ATOM     17  O   UNL     1       7.873   5.394  14.406  0.00  0.00    +0.000 OA
ENDBRANCH  10  17
ENDBRANCH   1  13
BRANCH   7  18
ATOM     18  S   UNL     1       1.829   8.115  19.666  0.00  0.00    +0.000 S 
BRANCH  18  19
ATOM     19  C   UNL     1       1.228   8.381  21.357  0.00  0.00    +0.000 C 
BRANCH  19  20
ATOM     20  C   UNL     1       0.750   9.816  21.521  0.00  0.00    +0.000 C 
ATOM     21  O   UNL     1       0.498  10.295  22.625  0.00  0.00    +0.000 OA
ATOM     22  N   UNL     1       0.569  10.516  20.344  0.00  0.00    +0.000 N 
ATOM     23  H   UNL     1       1.046  10.185  19.514  0.00  0.00    +0.000 HD
BRANCH  22  24
ATOM     24  C   UNL     1       0.214  11.917  20.375  0.00  0.00    +0.000 C 
BRANCH  24  25
ATOM     25  C   UNL     1       1.426  12.749  20.182  0.00  0.00    +0.000 A 
ATOM     26  C   UNL     1       2.090  13.201  19.059  0.00  0.00    +0.000 A 
ATOM     27  C   UNL     1       3.156  14.011  19.517  0.00  0.00    +0.000 A 
ATOM     28  C   UNL     1       3.082  13.997  20.890  0.00  0.00    +0.000 A 
ATOM     29  O   UNL     1       2.041  13.228  21.305  0.00  0.00    +0.000 OA
ENDBRANCH  24  25
ENDBRANCH  22  24
ENDBRANCH  19  20
ENDBRANCH  18  19
ENDBRANCH   7  18
TORSDOF 7
ENDMDL
MODEL 4
REMARK VINA RESULT:      -7.7      1.256      2.159
REMARK  Name = 
REMARK  8 active torsions:
REMARK  status: ('A' for Active; 'I' for Inactive)
REMARK    1  A    between atoms: C_1  and  O_2
REMARK    2  A    between atoms: O_2  and  C_3
REMARK    3  A    between atoms: C_6  and  C_7
REMARK    4  A    between atoms: C_13  and  S_14
REMARK    5  A    between atoms: S_14  and  C_15
REMARK    6  A    between atoms: C_15  and  C_16
REMARK    7  A    between atoms: N_18  and  C_19
REMARK    8  A    between atoms: C_19  and  C_20
REMARK                            x       y       z     vdW  Elec       q    Type
REMARK                         _______ _______ _______ _____ _____    ______ ____
ROOT
ATOM      1  C   UNL     1       3.991   3.398  17.887  0.00  0.00    +0.000 A 
ATOM      2  N   UNL     1       3.695   2.118  18.059  0.00  0.00    +0.000 NA
ATOM      3  N   UNL     1       2.717   2.011  19.014  0.00  0.00    +0.000 NA
ATOM      4  C   UNL     1       2.406   3.224  19.400  0.00  0.00    +0.000 A 
ATOM      5  C   UNL     1       1.469   3.702  20.337  0.00  0.00    +0.000 A 
ATOM      6  C   UNL     1       1.346   5.022  20.522  0.00  0.00    +0.000 A 
ATOM      7  C   UNL     1       2.228   5.904  19.714  0.00  0.00    +0.000 A 
ATOM      8  N   UNL     1       3.106   5.528  18.842  0.00  0.00    +0.000 NA
ATOM      9  N   UNL     1       3.172   4.152  18.714  0.00  0.00    +0.000 N 
ENDROOT
BRANCH   1  13
ATOM     10  C   UNL     1       6.964   4.978  15.237  0.00  0.00    +0.000 A 
ATOM     11  C   UNL     1       7.181   4.928  16.612  0.00  0.00    +0.000 A 
ATOM     12  C   UNL     1       6.211   4.392  17.462  0.00  0.00    +0.000 A 
ATOM     13  C   UNL     1       5.000   3.900  16.953  0.00  0.00    +0.000 A 
ATOM     14  C   UNL     1       4.783   3.972  15.572  0.00  0.00    +0.000 A 
ATOM     15  C   UNL     1       5.757   4.507  14.718  0.00  0.00    +0.000 A 
BRANCH  10  17
ATOM     16  C   UNL     1       7.888   5.385  13.099  0.00  0.00    +0.000 C 
ATOM     17  O   UNL     1       7.972   5.547  14.510  0.00  0.00    +0.000 OA
ENDBRANCH  10  17
ENDBRANCH   1  13
BRANCH   7  18
ATOM     18  S   UNL     1       2.005   7.600  20.095  0.00  0.00    +0.000 S 
BRANCH  18  19
ATOM     19  C   UNL     1       2.061   8.340  18.440  0.00  0.00    +0.000 C 
BRANCH  19  20
ATOM     20  C   UNL     1       1.459   9.737  18.473  0.00  0.00    +0.000 C 
ATOM     21  O   UNL     1       2.057  10.714  18.025  0.00  0.00    +0.000 OA
ATOM     22  N   UNL     1       0.226   9.834  19.088  0.00  0.00    +0.000 N 
ATOM     23  H   UNL     1      -0.329   8.992  19.178  0.00  0.00    +0.000 HD
BRANCH  22  24
ATOM     24  C   UNL     1      -0.492  11.090  19.092  0.00  0.00    +0.000 C 
BRANCH  24  25
ATOM     25  C   UNL     1      -0.837  11.468  20.484  0.00  0.00    +0.000 A 
ATOM     26  C   UNL     1      -0.181  11.326  21.689  0.00  0.00    +0.000 A 
ATOM     27  C   UNL     1      -0.994  11.945  22.668  0.00  0.00    +0.000 A 
ATOM     28  C   UNL     1      -2.099  12.419  22.001  0.00  0.00    +0.000 A 
ATOM     29  O   UNL     1      -2.018  12.128  20.676  0.00  0.00    +0.000 OA
ENDBRANCH  24  25
ENDBRANCH  22  24
ENDBRANCH  19  20
ENDBRANCH  18  19
ENDBRANCH   7  18
TORSDOF 7
ENDMDL
MODEL 5
REMARK VINA RESULT:      -7.6      1.357      1.451
REMARK  Name = 
REMARK  8 active torsions:
REMARK  status: ('A' for Active; 'I' for Inactive)
REMARK    1  A    between atoms: C_1  and  O_2
REMARK    2  A    between atoms: O_2  and  C_3
REMARK    3  A    between atoms: C_6  and  C_7
REMARK    4  A    between atoms: C_13  and  S_14
REMARK    5  A    between atoms: S_14  and  C_15
REMARK    6  A    between atoms: C_15  and  C_16
REMARK    7  A    between atoms: N_18  and  C_19
REMARK    8  A    between atoms: C_19  and  C_20
REMARK                            x       y       z     vdW  Elec       q    Type
REMARK                         _______ _______ _______ _____ _____    ______ ____
ROOT
ATOM      1  C   UNL     1       4.409   4.340  18.437  0.00  0.00    +0.000 A 
ATOM      2  N   UNL     1       4.354   3.176  19.068  0.00  0.00    +0.000 NA
ATOM      3  N   UNL     1       3.439   3.263  20.085  0.00  0.00    +0.000 NA
ATOM      4  C   UNL     1       2.925   4.468  20.052  0.00  0.00    +0.000 A 
ATOM      5  C   UNL     1       1.944   5.094  20.846  0.00  0.00    +0.000 A 
ATOM      6  C   UNL     1       1.590   6.356  20.572  0.00  0.00    +0.000 A 
ATOM      7  C   UNL     1       2.276   7.019  19.433  0.00  0.00    +0.000 A 
ATOM      8  N   UNL     1       3.183   6.501  18.671  0.00  0.00    +0.000 NA
ATOM      9  N   UNL     1       3.492   5.199  19.021  0.00  0.00    +0.000 N 
ENDROOT
BRANCH   1  13
ATOM     10  C   UNL     1       6.972   5.050  15.077  0.00  0.00    +0.000 A 
ATOM     11  C   UNL     1       5.841   4.245  14.960  0.00  0.00    +0.000 A 
ATOM     12  C   UNL     1       5.003   4.039  16.059  0.00  0.00    +0.000 A 
ATOM     13  C   UNL     1       5.285   4.629  17.300  0.00  0.00    +0.000 A 
ATOM     14  C   UNL     1       6.434   5.421  17.413  0.00  0.00    +0.000 A 
ATOM     15  C   UNL     1       7.273   5.631  16.310  0.00  0.00    +0.000 A 
BRANCH  10  17
ATOM     16  C   UNL     1       7.157   4.609  12.762  0.00  0.00    +0.000 C 
ATOM     17  O   UNL     1       7.729   5.157  13.944  0.00  0.00    +0.000 OA
ENDBRANCH  10  17
ENDBRANCH   1  13
BRANCH   7  18
ATOM     18  S   UNL     1       1.763   8.681  19.222  0.00  0.00    +0.000 S 
BRANCH  18  19
ATOM     19  C   UNL     1       0.805   8.947  20.739  0.00  0.00    +0.000 C 
BRANCH  19  20
ATOM     20  C   UNL     1      -0.126  10.138  20.567  0.00  0.00    +0.000 C 
ATOM     21  O   UNL     1      -0.178  11.047  21.393  0.00  0.00    +0.000 OA
ATOM     22  N   UNL     1      -0.939  10.095  19.452  0.00  0.00    +0.000 N 
ATOM     23  H   UNL     1      -0.665   9.494  18.684  0.00  0.00    +0.000 HD
BRANCH  22  24
ATOM     24  C   UNL     1      -1.794  11.216  19.127  0.00  0.00    +0.000 C 
BRANCH  24  25
ATOM     25  C   UNL     1      -2.434  10.996  17.807  0.00  0.00    +0.000 A 
ATOM     26  C   UNL     1      -2.073  10.262  16.695  0.00  0.00    +0.000 A 
ATOM     27  C   UNL     1      -3.128  10.394  15.763  0.00  0.00    +0.000 A 
ATOM     28  C   UNL     1      -4.064  11.206  16.359  0.00  0.00    +0.000 A 
ATOM     29  O   UNL     1      -3.649  11.584  17.597  0.00  0.00    +0.000 OA
ENDBRANCH  24  25
ENDBRANCH  22  24
ENDBRANCH  19  20
ENDBRANCH  18  19
ENDBRANCH   7  18
TORSDOF 7
ENDMDL
MODEL 6
REMARK VINA RESULT:      -7.6      1.277      1.651
REMARK  Name = 
REMARK  8 active torsions:
REMARK  status: ('A' for Active; 'I' for Inactive)
REMARK    1  A    between atoms: C_1  and  O_2
REMARK    2  A    between atoms: O_2  and  C_3
REMARK    3  A    between atoms: C_6  and  C_7
REMARK    4  A    between atoms: C_13  and  S_14
REMARK    5  A    between atoms: S_14  and  C_15
REMARK    6  A    between atoms: C_15  and  C_16
REMARK    7  A    between atoms: N_18  and  C_19
REMARK    8  A    between atoms: C_19  and  C_20
REMARK                            x       y       z     vdW  Elec       q    Type
REMARK                         _______ _______ _______ _____ _____    ______ ____
ROOT
ATOM      1  C   UNL     1       4.447   4.402  18.350  0.00  0.00    +0.000 A 
ATOM      2  N   UNL     1       4.361   3.304  19.088  0.00  0.00    +0.000 NA
ATOM      3  N   UNL     1       3.444   3.508  20.086  0.00  0.00    +0.000 NA
ATOM      4  C   UNL     1       2.958   4.716  19.936  0.00  0.00    +0.000 A 
ATOM      5  C   UNL     1       1.988   5.437  20.661  0.00  0.00    +0.000 A 
ATOM      6  C   UNL     1       1.666   6.675  20.267  0.00  0.00    +0.000 A 
ATOM      7  C   UNL     1       2.372   7.212  19.075  0.00  0.00    +0.000 A 
ATOM      8  N   UNL     1       3.270   6.603  18.371  0.00  0.00    +0.000 NA
ATOM      9  N   UNL     1       3.547   5.334  18.845  0.00  0.00    +0.000 N 
ENDROOT
BRANCH   1  13
ATOM     10  C   UNL     1       7.049   5.008  15.001  0.00  0.00    +0.000 A 
ATOM     11  C   UNL     1       7.315   5.600  16.234  0.00  0.00    +0.000 A 
ATOM     12  C   UNL     1       6.469   5.378  17.323  0.00  0.00    +0.000 A 
ATOM     13  C   UNL     1       5.334   4.562  17.197  0.00  0.00    +0.000 A 
ATOM     14  C   UNL     1       5.065   3.987  15.950  0.00  0.00    +0.000 A 
ATOM     15  C   UNL     1       5.915   4.208  14.858  0.00  0.00    +0.000 A 
BRANCH  10  17
ATOM     16  C   UNL     1       7.552   4.922  12.693  0.00  0.00    +0.000 C 
ATOM     17  O   UNL     1       7.932   5.320  14.005  0.00  0.00    +0.000 OA
ENDBRANCH  10  17
ENDBRANCH   1  13
BRANCH   7  18
ATOM     18  S   UNL     1       1.899   8.857  18.705  0.00  0.00    +0.000 S 
BRANCH  18  19
ATOM     19  C   UNL     1       0.982   9.304  20.205  0.00  0.00    +0.000 C 
BRANCH  19  20
ATOM     20  C   UNL     1       0.113  10.525  19.942  0.00  0.00    +0.000 C 
ATOM     21  O   UNL     1       0.489  11.662  20.218  0.00  0.00    +0.000 OA
ATOM     22  N   UNL     1      -1.140  10.257  19.426  0.00  0.00    +0.000 N 
ATOM     23  H   UNL     1      -1.286   9.367  18.966  0.00  0.00    +0.000 HD
BRANCH  22  24
ATOM     24  C   UNL     1      -2.018  11.340  19.040  0.00  0.00    +0.000 C 
BRANCH  24  25
ATOM     25  C   UNL     1      -2.625  11.051  17.718  0.00  0.00    +0.000 A 
ATOM     26  C   UNL     1      -2.242  10.250  16.661  0.00  0.00    +0.000 A 
ATOM     27  C   UNL     1      -3.271  10.339  15.693  0.00  0.00    +0.000 A 
ATOM     28  C   UNL     1      -4.213  11.193  16.217  0.00  0.00    +0.000 A 
ATOM     29  O   UNL     1      -3.827  11.637  17.442  0.00  0.00    +0.000 OA
ENDBRANCH  24  25
ENDBRANCH  22  24
ENDBRANCH  19  20
ENDBRANCH  18  19
ENDBRANCH   7  18
TORSDOF 7
ENDMDL
MODEL 7
REMARK VINA RESULT:      -7.6      1.140      1.681
REMARK  Name = 
REMARK  8 active torsions:
REMARK  status: ('A' for Active; 'I' for Inactive)
REMARK    1  A    between atoms: C_1  and  O_2
REMARK    2  A    between atoms: O_2  and  C_3
REMARK    3  A    between atoms: C_6  and  C_7
REMARK    4  A    between atoms: C_13  and  S_14
REMARK    5  A    between atoms: S_14  and  C_15
REMARK    6  A    between atoms: C_15  and  C_16
REMARK    7  A    between atoms: N_18  and  C_19
REMARK    8  A    between atoms: C_19  and  C_20
REMARK                            x       y       z     vdW  Elec       q    Type
REMARK                         _______ _______ _______ _____ _____    ______ ____
ROOT
ATOM      1  C   UNL     1       4.159   3.663  18.359  0.00  0.00    +0.000 A 
ATOM      2  N   UNL     1       3.965   2.383  18.643  0.00  0.00    +0.000 NA
ATOM      3  N   UNL     1       2.987   2.281  19.598  0.00  0.00    +0.000 NA
ATOM      4  C   UNL     1       2.574   3.494  19.871  0.00  0.00    +0.000 A 
ATOM      5  C   UNL     1       1.589   3.974  20.757  0.00  0.00    +0.000 A 
ATOM      6  C   UNL     1       1.357   5.291  20.823  0.00  0.00    +0.000 A 
ATOM      7  C   UNL     1       2.175   6.168  19.945  0.00  0.00    +0.000 A 
ATOM      8  N   UNL     1       3.093   5.789  19.116  0.00  0.00    +0.000 NA
ATOM      9  N   UNL     1       3.271   4.418  19.111  0.00  0.00    +0.000 N 
ENDROOT
BRANCH   1  13
ATOM     10  C   UNL     1       6.990   5.015  15.441  0.00  0.00    +0.000 A 
ATOM     11  C   UNL     1       5.713   4.604  15.066  0.00  0.00    +0.000 A 
ATOM     12  C   UNL     1       4.793   4.185  16.030  0.00  0.00    +0.000 A 
ATOM     13  C   UNL     1       5.136   4.162  17.390  0.00  0.00    +0.000 A 
ATOM     14  C   UNL     1       6.428   4.558  17.755  0.00  0.00    +0.000 A 
ATOM     15  C   UNL     1       7.350   4.981  16.788  0.00  0.00    +0.000 A 
BRANCH  10  17
ATOM     16  C   UNL     1       7.429   4.910  13.120  0.00  0.00    +0.000 C 
ATOM     17  O   UNL     1       7.810   5.377  14.409  0.00  0.00    +0.000 OA
ENDBRANCH  10  17
ENDBRANCH   1  13
BRANCH   7  18
ATOM     18  S   UNL     1       1.811   7.866  20.173  0.00  0.00    +0.000 S 
BRANCH  18  19
ATOM     19  C   UNL     1       2.032   8.500  18.488  0.00  0.00    +0.000 C 
BRANCH  19  20
ATOM     20  C   UNL     1       1.439   9.897  18.374  0.00  0.00    +0.000 C 
ATOM     21  O   UNL     1       2.120  10.868  18.051  0.00  0.00    +0.000 OA
ATOM     22  N   UNL     1       0.103  10.000  18.710  0.00  0.00    +0.000 N 
ATOM     23  H   UNL     1      -0.460   9.158  18.690  0.00  0.00    +0.000 HD
BRANCH  22  24
ATOM     24  C   UNL     1      -0.597  11.255  18.545  0.00  0.00    +0.000 C 
BRANCH  24  25
ATOM     25  C   UNL     1      -1.208  11.664  19.833  0.00  0.00    +0.000 A 
ATOM     26  C   UNL     1      -0.855  11.458  21.151  0.00  0.00    +0.000 A 
ATOM     27  C   UNL     1      -1.804  12.152  21.938  0.00  0.00    +0.000 A 
ATOM     28  C   UNL     1      -2.682  12.733  21.052  0.00  0.00    +0.000 A 
ATOM     29  O   UNL     1      -2.334  12.436  19.772  0.00  0.00    +0.000 OA
ENDBRANCH  24  25
ENDBRANCH  22  24
ENDBRANCH  19  20
ENDBRANCH  18  19
ENDBRANCH   7  18
TORSDOF 7
ENDMDL
MODEL 8
REMARK VINA RESULT:      -7.6      0.817      1.246
REMARK  Name = 
REMARK  8 active torsions:
REMARK  status: ('A' for Active; 'I' for Inactive)
REMARK    1  A    between atoms: C_1  and  O_2
REMARK    2  A    between atoms: O_2  and  C_3
REMARK    3  A    between atoms: C_6  and  C_7
REMARK    4  A    between atoms: C_13  and  S_14
REMARK    5  A    between atoms: S_14  and  C_15
REMARK    6  A    between atoms: C_15  and  C_16
REMARK    7  A    between atoms: N_18  and  C_19
REMARK    8  A    between atoms: C_19  and  C_20
REMARK                            x       y       z     vdW  Elec       q    Type
REMARK                         _______ _______ _______ _____ _____    ______ ____
ROOT
ATOM      1  C   UNL     1       3.851   3.310  17.783  0.00  0.00    +0.000 A 
ATOM      2  N   UNL     1       3.499   2.032  17.816  0.00  0.00    +0.000 NA
ATOM      3  N   UNL     1       2.528   1.861  18.768  0.00  0.00    +0.000 NA
ATOM      4  C   UNL     1       2.275   3.036  19.291  0.00  0.00    +0.000 A 
ATOM      5  C   UNL     1       1.370   3.446  20.290  0.00  0.00    +0.000 A 
ATOM      6  C   UNL     1       1.308   4.741  20.622  0.00  0.00    +0.000 A 
ATOM      7  C   UNL     1       2.220   5.669  19.905  0.00  0.00    +0.000 A 
ATOM      8  N   UNL     1       3.072   5.355  18.983  0.00  0.00    +0.000 NA
ATOM      9  N   UNL     1       3.075   4.002  18.701  0.00  0.00    +0.000 N 
ENDROOT
BRANCH   1  13
ATOM     10  C   UNL     1       6.871   5.042  15.285  0.00  0.00    +0.000 A 
ATOM     11  C   UNL     1       7.120   4.767  16.628  0.00  0.00    +0.000 A 
ATOM     12  C   UNL     1       6.132   4.184  17.426  0.00  0.00    +0.000 A 
ATOM     13  C   UNL     1       4.872   3.870  16.896  0.00  0.00    +0.000 A 
ATOM     14  C   UNL     1       4.624   4.167  15.551  0.00  0.00    +0.000 A 
ATOM     15  C   UNL     1       5.616   4.749  14.750  0.00  0.00    +0.000 A 
BRANCH  10  17
ATOM     16  C   UNL     1       7.965   5.374  13.217  0.00  0.00    +0.000 C 
ATOM     17  O   UNL     1       7.902   5.636  14.613  0.00  0.00    +0.000 OA
ENDBRANCH  10  17
ENDBRANCH   1  13
BRANCH   7  18
ATOM     18  S   UNL     1       2.077   7.319  20.476  0.00  0.00    +0.000 S 
BRANCH  18  19
ATOM     19  C   UNL     1       1.919   8.219  18.909  0.00  0.00    +0.000 C 
BRANCH  19  20
ATOM     20  C   UNL     1       1.019   9.433  19.093  0.00  0.00    +0.000 C 
ATOM     21  O   UNL     1       0.821   9.934  20.198  0.00  0.00    +0.000 OA
ATOM     22  N   UNL     1       0.403   9.889  17.945  0.00  0.00    +0.000 N 
ATOM     23  H   UNL     1       0.807   9.633  17.052  0.00  0.00    +0.000 HD
BRANCH  22  24
ATOM     24  C   UNL     1      -0.395  11.095  17.974  0.00  0.00    +0.000 C 
BRANCH  24  25
ATOM     25  C   UNL     1      -1.771  10.800  17.506  0.00  0.00    +0.000 A 
ATOM     26  C   UNL     1      -2.516  11.243  16.431  0.00  0.00    +0.000 A 
ATOM     27  C   UNL     1      -3.749  10.551  16.480  0.00  0.00    +0.000 A 
ATOM     28  C   UNL     1      -3.684   9.735  17.586  0.00  0.00    +0.000 A 
ATOM     29  O   UNL     1      -2.491   9.884  18.220  0.00  0.00    +0.000 OA
ENDBRANCH  24  25
ENDBRANCH  22  24
ENDBRANCH  19  20
ENDBRANCH  18  19
ENDBRANCH   7  18
TORSDOF 7
ENDMDL
MODEL 9
REMARK VINA RESULT:      -7.6      1.854      2.812
REMARK  Name = 
REMARK  8 active torsions:
REMARK  status: ('A' for Active; 'I' for Inactive)
REMARK    1  A    between atoms: C_1  and  O_2
REMARK    2  A    between atoms: O_2  and  C_3
REMARK    3  A    between atoms: C_6  and  C_7
REMARK    4  A    between atoms: C_13  and  S_14
REMARK    5  A    between atoms: S_14  and  C_15
REMARK    6  A    between atoms: C_15  and  C_16
REMARK    7  A    between atoms: N_18  and  C_19
REMARK    8  A    between atoms: C_19  and  C_20
REMARK                            x       y       z     vdW  Elec       q    Type
REMARK                         _______ _______ _______ _____ _____    ______ ____
ROOT
ATOM      1  C   UNL     1       3.912   3.359  17.876  0.00  0.00    +0.000 A 
ATOM      2  N   UNL     1       3.585   2.075  17.837  0.00  0.00    +0.000 NA
ATOM      3  N   UNL     1       2.563   1.848  18.721  0.00  0.00    +0.000 NA
ATOM      4  C   UNL     1       2.256   2.996  19.275  0.00  0.00    +0.000 A 
ATOM      5  C   UNL     1       1.286   3.348  20.234  0.00  0.00    +0.000 A 
ATOM      6  C   UNL     1       1.179   4.627  20.614  0.00  0.00    +0.000 A 
ATOM      7  C   UNL     1       2.112   5.600  19.990  0.00  0.00    +0.000 A 
ATOM      8  N   UNL     1       3.024   5.339  19.109  0.00  0.00    +0.000 NA
ATOM      9  N   UNL     1       3.070   3.998  18.773  0.00  0.00    +0.000 N 
ENDROOT
BRANCH   1  13
ATOM     10  C   UNL     1       7.003   5.052  15.439  0.00  0.00    +0.000 A 
ATOM     11  C   UNL     1       5.809   4.605  14.877  0.00  0.00    +0.000 A 
ATOM     12  C   UNL     1       4.802   4.074  15.686  0.00  0.00    +0.000 A 
ATOM     13  C   UNL     1       4.973   3.973  17.075  0.00  0.00    +0.000 A 
ATOM     14  C   UNL     1       6.183   4.407  17.628  0.00  0.00    +0.000 A 
ATOM     15  C   UNL     1       7.193   4.943  16.817  0.00  0.00    +0.000 A 
BRANCH  10  17
ATOM     16  C   UNL     1       7.721   5.152  13.189  0.00  0.00    +0.000 C 
ATOM     17  O   UNL     1       7.923   5.526  14.546  0.00  0.00    +0.000 OA
ENDBRANCH  10  17
ENDBRANCH   1  13
BRANCH   7  18
ATOM     18  S   UNL     1       1.904   7.222  20.618  0.00  0.00    +0.000 S 
BRANCH  18  19
ATOM     19  C   UNL     1       1.881   8.190  19.084  0.00  0.00    +0.000 C 
BRANCH  19  20
ATOM     20  C   UNL     1       1.134   9.497  19.303  0.00  0.00    +0.000 C 
ATOM     21  O   UNL     1       0.393   9.669  20.269  0.00  0.00    +0.000 OA
ATOM     22  N   UNL     1       1.304  10.447  18.316  0.00  0.00    +0.000 N 
ATOM     23  H   UNL     1       2.117  10.370  17.715  0.00  0.00    +0.000 HD
BRANCH  22  24
ATOM     24  C   UNL     1       0.727  11.765  18.462  0.00  0.00    +0.000 C 
BRANCH  24  25
ATOM     25  C   UNL     1       1.760  12.719  18.933  0.00  0.00    +0.000 A 
ATOM     26  C   UNL     1       2.680  13.511  18.276  0.00  0.00    +0.000 A 
ATOM     27  C   UNL     1       3.355  14.258  19.271  0.00  0.00    +0.000 A 
ATOM     28  C   UNL     1       2.810  13.870  20.473  0.00  0.00    +0.000 A 
ATOM     29  O   UNL     1       1.846  12.931  20.280  0.00  0.00    +0.000 OA
ENDBRANCH  24  25
ENDBRANCH  22  24
ENDBRANCH  19  20
ENDBRANCH  18  19
ENDBRANCH   7  18
TORSDOF 7
ENDMDL
