MODEL 1
REMARK VINA RESULT:      -6.9      0.000      0.000
REMARK  Name = 
REMARK  11 active torsions:
REMARK  status: ('A' for Active; 'I' for Inactive)
REMARK    1  A    between atoms: C_1  and  C_2
REMARK    2  A    between atoms: C_2  and  C_3
REMARK    3  A    between atoms: C_2  and  C_4
REMARK    4  A    between atoms: C_4  and  C_5
REMARK    5  A    between atoms: C_5  and  C_6
REMARK    6  A    between atoms: C_5  and  C_11
REMARK    7  A    between atoms: C_6  and  N_7
REMARK    8  A    between atoms: N_7  and  O_8
REMARK    9  A    between atoms: C_14  and  C_16
REMARK   10  A    between atoms: C_16  and  C_17
REMARK   11  A    between atoms: C_16  and  N_18
REMARK                            x       y       z     vdW  Elec       q    Type
REMARK                         _______ _______ _______ _____ _____    ______ ____
ROOT
ATOM      1  C   UNL     1       6.461   3.996  16.097  0.00  0.00    +0.000 C 
ENDROOT
BRANCH   1   2
ATOM      2  C   UNL     1       6.841   4.412  14.674  0.00  0.00    +0.000 C 
ATOM      3  O   UNL     1       7.649   5.312  14.469  0.00  0.00    +0.000 OA
ATOM      4  N   UNL     1       6.206   3.694  13.665  0.00  0.00    +0.000 N 
ATOM      5  C   UNL     1       6.523   3.810  12.320  0.00  0.00    +0.000 C 
ATOM      6  O   UNL     1       7.386   4.552  11.851  0.00  0.00    +0.000 OA
ATOM      7  H   UNL     1       5.560   2.968  13.929  0.00  0.00    +0.000 HD
BRANCH   5   8
ATOM      8  C   UNL     1       5.696   2.889  11.395  0.00  0.00    +0.000 C 
ATOM      9  C   UNL     1       4.209   3.178  11.554  0.00  0.00    +0.000 C 
BRANCH   8  10
ATOM     10  N   UNL     1       5.955   1.478  11.739  0.00  0.00    +0.000 NA
ATOM     11  H   UNL     1       5.101   0.949  11.529  0.00  0.00    +0.000 HD
ATOM     12  H   UNL     1       6.029   1.395  12.756  0.00  0.00    +0.000 HD
ENDBRANCH   8  10
ENDBRANCH   5   8
ENDBRANCH   1   2
BRANCH   1  13
ATOM     13  C   UNL     1       5.056   4.508  16.524  0.00  0.00    +0.000 C 
BRANCH  13  15
ATOM     14  C   UNL     1       4.423   3.803  18.929  0.00  0.00    +0.000 C 
ATOM     15  C   UNL     1       4.196   3.593  17.432  0.00  0.00    +0.000 C 
ATOM     16  C   UNL     1       2.710   3.825  17.122  0.00  0.00    +0.000 C 
ENDBRANCH  13  15
ENDBRANCH   1  13
BRANCH   1  17
ATOM     17  C   UNL     1       7.518   4.503  17.101  0.00  0.00    +0.000 C 
BRANCH  17  18
ATOM     18  N   UNL     1       7.224   5.823  17.666  0.00  0.00    +0.000 N 
ATOM     19  C   UNL     1       7.392   6.093  19.010  0.00  0.00    +0.000 C 
ATOM     20  O   UNL     1       7.454   5.261  19.906  0.00  0.00    +0.000 OA
BRANCH  18  21
ATOM     21  O   UNL     1       7.664   6.882  16.832  0.00  0.00    +0.000 OA
ATOM     22  H   UNL     1       6.835   7.140  16.380  0.00  0.00    +0.000 HD
ENDBRANCH  18  21
ENDBRANCH  17  18
ENDBRANCH   1  17
TORSDOF 8
ENDMDL
MODEL 2
REMARK VINA RESULT:      -6.6      3.169      4.791
REMARK  Name = 
REMARK  11 active torsions:
REMARK  status: ('A' for Active; 'I' for Inactive)
REMARK    1  A    between atoms: C_1  and  C_2
REMARK    2  A    between atoms: C_2  and  C_3
REMARK    3  A    between atoms: C_2  and  C_4
REMARK    4  A    between atoms: C_4  and  C_5
REMARK    5  A    between atoms: C_5  and  C_6
REMARK    6  A    between atoms: C_5  and  C_11
REMARK    7  A    between atoms: C_6  and  N_7
REMARK    8  A    between atoms: N_7  and  O_8
REMARK    9  A    between atoms: C_14  and  C_16
REMARK   10  A    between atoms: C_16  and  C_17
REMARK   11  A    between atoms: C_16  and  N_18
REMARK                            x       y       z     vdW  Elec       q    Type
REMARK                         _______ _______ _______ _____ _____    ______ ____
ROOT
ATOM      1  C   UNL     1       4.132   4.219  18.824  0.00  0.00    +0.000 C 
ENDROOT
BRANCH   1   2
ATOM      2  C   UNL     1       5.543   4.387  18.255  0.00  0.00    +0.000 C 
ATOM      3  O   UNL     1       6.534   4.274  18.969  0.00  0.00    +0.000 OA
ATOM      4  N   UNL     1       5.596   4.668  16.893  0.00  0.00    +0.000 N 
ATOM      5  C   UNL     1       6.770   4.705  16.158  0.00  0.00    +0.000 C 
ATOM      6  O   UNL     1       7.900   4.504  16.606  0.00  0.00    +0.000 OA
ATOM      7  H   UNL     1       4.729   4.739  16.386  0.00  0.00    +0.000 HD
BRANCH   5   8
ATOM      8  C   UNL     1       6.568   5.014  14.658  0.00  0.00    +0.000 C 
ATOM      9  C   UNL     1       6.124   3.761  13.915  0.00  0.00    +0.000 C 
BRANCH   8  10
ATOM     10  N   UNL     1       7.836   5.497  14.076  0.00  0.00    +0.000 NA
ATOM     11  H   UNL     1       7.648   6.411  13.648  0.00  0.00    +0.000 HD
ATOM     12  H   UNL     1       8.072   4.913  13.270  0.00  0.00    +0.000 HD
ENDBRANCH   8  10
ENDBRANCH   5   8
ENDBRANCH   1   2
BRANCH   1  13
ATOM     13  C   UNL     1       3.600   5.506  19.516  0.00  0.00    +0.000 C 
BRANCH  13  15
ATOM     14  C   UNL     1       2.984   7.521  18.020  0.00  0.00    +0.000 C 
ATOM     15  C   UNL     1       2.483   6.306  18.799  0.00  0.00    +0.000 C 
ATOM     16  C   UNL     1       1.735   5.376  17.833  0.00  0.00    +0.000 C 
ENDBRANCH  13  15
ENDBRANCH   1  13
BRANCH   1  17
ATOM     17  C   UNL     1       4.098   3.046  19.826  0.00  0.00    +0.000 C 
BRANCH  17  18
ATOM     18  N   UNL     1       2.805   2.867  20.495  0.00  0.00    +0.000 N 
ATOM     19  C   UNL     1       1.758   2.204  19.886  0.00  0.00    +0.000 C 
ATOM     20  O   UNL     1       1.636   2.006  18.684  0.00  0.00    +0.000 OA
BRANCH  18  21
ATOM     21  O   UNL     1       2.943   2.537  21.866  0.00  0.00    +0.000 OA
ATOM     22  H   UNL     1       3.357   1.651  21.820  0.00  0.00    +0.000 HD
ENDBRANCH  18  21
ENDBRANCH  17  18
ENDBRANCH   1  17
TORSDOF 8
ENDMDL
MODEL 3
REMARK VINA RESULT:      -6.6      3.364      4.838
REMARK  Name = 
REMARK  11 active torsions:
REMARK  status: ('A' for Active; 'I' for Inactive)
REMARK    1  A    between atoms: C_1  and  C_2
REMARK    2  A    between atoms: C_2  and  C_3
REMARK    3  A    between atoms: C_2  and  C_4
REMARK    4  A    between atoms: C_4  and  C_5
REMARK    5  A    between atoms: C_5  and  C_6
REMARK    6  A    between atoms: C_5  and  C_11
REMARK    7  A    between atoms: C_6  and  N_7
REMARK    8  A    between atoms: N_7  and  O_8
REMARK    9  A    between atoms: C_14  and  C_16
REMARK   10  A    between atoms: C_16  and  C_17
REMARK   11  A    between atoms: C_16  and  N_18
REMARK                            x       y       z     vdW  Elec       q    Type
REMARK                         _______ _______ _______ _____ _____    ______ ____
ROOT
ATOM      1  C   UNL     1       3.997   4.349  18.800  0.00  0.00    +0.000 C 
ENDROOT
BRANCH   1   2
ATOM      2  C   UNL     1       5.432   4.418  18.272  0.00  0.00    +0.000 C 
ATOM      3  O   UNL     1       6.391   4.219  19.011  0.00  0.00    +0.000 OA
ATOM      4  N   UNL     1       5.544   4.718  16.918  0.00  0.00    +0.000 N 
ATOM      5  C   UNL     1       6.739   4.679  16.216  0.00  0.00    +0.000 C 
ATOM      6  O   UNL     1       7.836   4.385  16.691  0.00  0.00    +0.000 OA
ATOM      7  H   UNL     1       4.700   4.863  16.389  0.00  0.00    +0.000 HD
BRANCH   5   8
ATOM      8  C   UNL     1       6.603   5.028  14.717  0.00  0.00    +0.000 C 
ATOM      9  C   UNL     1       6.173   3.800  13.925  0.00  0.00    +0.000 C 
BRANCH   8  10
ATOM     10  N   UNL     1       7.900   5.507  14.200  0.00  0.00    +0.000 NA
ATOM     11  H   UNL     1       7.825   6.523  14.080  0.00  0.00    +0.000 HD
ATOM     12  H   UNL     1       8.016   5.172  13.240  0.00  0.00    +0.000 HD
ENDBRANCH   8  10
ENDBRANCH   5   8
ENDBRANCH   1   2
BRANCH   1  13
ATOM     13  C   UNL     1       3.605   5.584  19.659  0.00  0.00    +0.000 C 
BRANCH  13  15
ATOM     14  C   UNL     1       1.940   7.504  20.130  0.00  0.00    +0.000 C 
ATOM     15  C   UNL     1       2.533   6.550  19.094  0.00  0.00    +0.000 C 
ATOM     16  C   UNL     1       3.149   7.379  17.957  0.00  0.00    +0.000 C 
ENDBRANCH  13  15
ENDBRANCH   1  13
BRANCH   1  17
ATOM     17  C   UNL     1       3.796   3.062  19.629  0.00  0.00    +0.000 C 
BRANCH  17  18
ATOM     18  N   UNL     1       2.703   2.208  19.154  0.00  0.00    +0.000 N 
ATOM     19  C   UNL     1       1.379   2.546  19.351  0.00  0.00    +0.000 C 
ATOM     20  O   UNL     1       0.957   3.339  20.183  0.00  0.00    +0.000 OA
BRANCH  18  21
ATOM     21  O   UNL     1       2.950   1.675  17.865  0.00  0.00    +0.000 OA
ATOM     22  H   UNL     1       3.886   1.397  17.937  0.00  0.00    +0.000 HD
ENDBRANCH  18  21
ENDBRANCH  17  18
ENDBRANCH   1  17
TORSDOF 8
ENDMDL
MODEL 4
REMARK VINA RESULT:      -6.5      3.158      5.447
REMARK  Name = 
REMARK  11 active torsions:
REMARK  status: ('A' for Active; 'I' for Inactive)
REMARK    1  A    between atoms: C_1  and  C_2
REMARK    2  A    between atoms: C_2  and  C_3
REMARK    3  A    between atoms: C_2  and  C_4
REMARK    4  A    between atoms: C_4  and  C_5
REMARK    5  A    between atoms: C_5  and  C_6
REMARK    6  A    between atoms: C_5  and  C_11
REMARK    7  A    between atoms: C_6  and  N_7
REMARK    8  A    between atoms: N_7  and  O_8
REMARK    9  A    between atoms: C_14  and  C_16
REMARK   10  A    between atoms: C_16  and  C_17
REMARK   11  A    between atoms: C_16  and  N_18
REMARK                            x       y       z     vdW  Elec       q    Type
REMARK                         _______ _______ _______ _____ _____    ______ ____
ROOT
ATOM      1  C   UNL     1       5.927   4.678  17.559  0.00  0.00    +0.000 C 
ENDROOT
BRANCH   1   2
ATOM      2  C   UNL     1       5.063   4.073  18.669  0.00  0.00    +0.000 C 
ATOM      3  O   UNL     1       5.562   3.668  19.714  0.00  0.00    +0.000 OA
ATOM      4  N   UNL     1       3.700   4.028  18.391  0.00  0.00    +0.000 N 
ATOM      5  C   UNL     1       2.736   3.661  19.317  0.00  0.00    +0.000 C 
ATOM      6  O   UNL     1       2.956   3.327  20.482  0.00  0.00    +0.000 OA
ATOM      7  H   UNL     1       3.381   4.388  17.507  0.00  0.00    +0.000 HD
BRANCH   5   8
ATOM      8  C   UNL     1       1.289   3.713  18.778  0.00  0.00    +0.000 C 
ATOM      9  C   UNL     1       0.648   2.333  18.849  0.00  0.00    +0.000 C 
BRANCH   8  10
ATOM     10  N   UNL     1       1.299   4.171  17.375  0.00  0.00    +0.000 NA
ATOM     11  H   UNL     1       1.329   5.197  17.387  0.00  0.00    +0.000 HD
ATOM     12  H   UNL     1       0.385   3.975  16.958  0.00  0.00    +0.000 HD
ENDBRANCH   8  10
ENDBRANCH   5   8
ENDBRANCH   1   2
BRANCH   1  13
ATOM     13  C   UNL     1       5.704   4.000  16.178  0.00  0.00    +0.000 C 
BRANCH  13  15
ATOM     14  C   UNL     1       5.175   6.350  15.241  0.00  0.00    +0.000 C 
ATOM     15  C   UNL     1       5.595   4.913  14.931  0.00  0.00    +0.000 C 
ATOM     16  C   UNL     1       6.948   4.942  14.205  0.00  0.00    +0.000 C 
ENDBRANCH  13  15
ENDBRANCH   1  13
BRANCH   1  17
ATOM     17  C   UNL     1       7.420   4.590  17.939  0.00  0.00    +0.000 C 
BRANCH  17  18
ATOM     18  N   UNL     1       7.912   5.738  18.708  0.00  0.00    +0.000 N 
ATOM     19  C   UNL     1       7.821   7.029  18.224  0.00  0.00    +0.000 C 
ATOM     20  O   UNL     1       7.669   7.346  17.051  0.00  0.00    +0.000 OA
BRANCH  18  21
ATOM     21  O   UNL     1       7.600   5.644  20.087  0.00  0.00    +0.000 OA
ATOM     22  H   UNL     1       7.447   6.581  20.324  0.00  0.00    +0.000 HD
ENDBRANCH  18  21
ENDBRANCH  17  18
ENDBRANCH   1  17
TORSDOF 8
ENDMDL
MODEL 5
REMARK VINA RESULT:      -6.5      3.109      5.891
REMARK  Name = 
REMARK  11 active torsions:
REMARK  status: ('A' for Active; 'I' for Inactive)
REMARK    1  A    between atoms: C_1  and  C_2
REMARK    2  A    between atoms: C_2  and  C_3
REMARK    3  A    between atoms: C_2  and  C_4
REMARK    4  A    between atoms: C_4  and  C_5
REMARK    5  A    between atoms: C_5  and  C_6
REMARK    6  A    between atoms: C_5  and  C_11
REMARK    7  A    between atoms: C_6  and  N_7
REMARK    8  A    between atoms: N_7  and  O_8
REMARK    9  A    between atoms: C_14  and  C_16
REMARK   10  A    between atoms: C_16  and  C_17
REMARK   11  A    between atoms: C_16  and  N_18
REMARK                            x       y       z     vdW  Elec       q    Type
REMARK                         _______ _______ _______ _____ _____    ______ ____
ROOT
ATOM      1  C   UNL     1       5.378   5.691  17.303  0.00  0.00    +0.000 C 
ENDROOT
BRANCH   1   2
ATOM      2  C   UNL     1       4.120   5.523  18.159  0.00  0.00    +0.000 C 
ATOM      3  O   UNL     1       3.531   6.495  18.622  0.00  0.00    +0.000 OA
ATOM      4  N   UNL     1       3.719   4.205  18.357  0.00  0.00    +0.000 N 
ATOM      5  C   UNL     1       2.528   3.846  18.969  0.00  0.00    +0.000 C 
ATOM      6  O   UNL     1       1.690   4.630  19.416  0.00  0.00    +0.000 OA
ATOM      7  H   UNL     1       4.263   3.471  17.934  0.00  0.00    +0.000 HD
BRANCH   5   8
ATOM      8  C   UNL     1       2.293   2.321  19.049  0.00  0.00    +0.000 C 
ATOM      9  C   UNL     1       3.444   1.573  18.388  0.00  0.00    +0.000 C 
BRANCH   8  10
ATOM     10  N   UNL     1       1.034   1.977  18.359  0.00  0.00    +0.000 NA
ATOM     11  H   UNL     1       1.136   1.024  17.992  0.00  0.00    +0.000 HD
ATOM     12  H   UNL     1       0.959   2.541  17.509  0.00  0.00    +0.000 HD
ENDBRANCH   8  10
ENDBRANCH   5   8
ENDBRANCH   1   2
BRANCH   1  13
ATOM     13  C   UNL     1       5.983   7.121  17.388  0.00  0.00    +0.000 C 
BRANCH  13  15
ATOM     14  C   UNL     1       7.999   8.681  17.814  0.00  0.00    +0.000 C 
ATOM     15  C   UNL     1       7.515   7.250  17.583  0.00  0.00    +0.000 C 
ATOM     16  C   UNL     1       7.948   6.385  18.776  0.00  0.00    +0.000 C 
ENDBRANCH  13  15
ENDBRANCH   1  13
BRANCH   1  17
ATOM     17  C   UNL     1       5.068   5.351  15.830  0.00  0.00    +0.000 C 
BRANCH  17  18
ATOM     18  N   UNL     1       5.862   4.242  15.291  0.00  0.00    +0.000 N 
ATOM     19  C   UNL     1       7.125   4.438  14.770  0.00  0.00    +0.000 C 
ATOM     20  O   UNL     1       7.583   5.505  14.381  0.00  0.00    +0.000 OA
BRANCH  18  21
ATOM     21  O   UNL     1       5.769   3.072  16.085  0.00  0.00    +0.000 OA
ATOM     22  H   UNL     1       6.138   3.377  16.939  0.00  0.00    +0.000 HD
ENDBRANCH  18  21
ENDBRANCH  17  18
ENDBRANCH   1  17
TORSDOF 8
ENDMDL
MODEL 6
REMARK VINA RESULT:      -6.4      3.109      4.564
REMARK  Name = 
REMARK  11 active torsions:
REMARK  status: ('A' for Active; 'I' for Inactive)
REMARK    1  A    between atoms: C_1  and  C_2
REMARK    2  A    between atoms: C_2  and  C_3
REMARK    3  A    between atoms: C_2  and  C_4
REMARK    4  A    between atoms: C_4  and  C_5
REMARK    5  A    between atoms: C_5  and  C_6
REMARK    6  A    between atoms: C_5  and  C_11
REMARK    7  A    between atoms: C_6  and  N_7
REMARK    8  A    between atoms: N_7  and  O_8
REMARK    9  A    between atoms: C_14  and  C_16
REMARK   10  A    between atoms: C_16  and  C_17
REMARK   11  A    between atoms: C_16  and  N_18
REMARK                            x       y       z     vdW  Elec       q    Type
REMARK                         _______ _______ _______ _____ _____    ______ ____
ROOT
ATOM      1  C   UNL     1       3.796   4.451  18.336  0.00  0.00    +0.000 C 
ENDROOT
BRANCH   1   2
ATOM      2  C   UNL     1       5.265   4.478  17.906  0.00  0.00    +0.000 C 
ATOM      3  O   UNL     1       6.166   4.247  18.705  0.00  0.00    +0.000 OA
ATOM      4  N   UNL     1       5.476   4.777  16.563  0.00  0.00    +0.000 N 
ATOM      5  C   UNL     1       6.713   4.702  15.942  0.00  0.00    +0.000 C 
ATOM      6  O   UNL     1       7.768   4.374  16.487  0.00  0.00    +0.000 OA
ATOM      7  H   UNL     1       4.674   4.948  15.980  0.00  0.00    +0.000 HD
BRANCH   5   8
ATOM      8  C   UNL     1       6.689   5.057  14.438  0.00  0.00    +0.000 C 
ATOM      9  C   UNL     1       6.269   3.846  13.615  0.00  0.00    +0.000 C 
BRANCH   8  10
ATOM     10  N   UNL     1       8.033   5.492  14.010  0.00  0.00    +0.000 NA
ATOM     11  H   UNL     1       8.453   6.006  14.793  0.00  0.00    +0.000 HD
ATOM     12  H   UNL     1       7.932   6.214  13.292  0.00  0.00    +0.000 HD
ENDBRANCH   8  10
ENDBRANCH   5   8
ENDBRANCH   1   2
BRANCH   1  13
ATOM     13  C   UNL     1       3.468   5.497  19.439  0.00  0.00    +0.000 C 
BRANCH  13  15
ATOM     14  C   UNL     1       1.982   7.415  20.329  0.00  0.00    +0.000 C 
ATOM     15  C   UNL     1       2.396   6.570  19.125  0.00  0.00    +0.000 C 
ATOM     16  C   UNL     1       2.924   7.506  18.026  0.00  0.00    +0.000 C 
ENDBRANCH  13  15
ENDBRANCH   1  13
BRANCH   1  17
ATOM     17  C   UNL     1       3.413   3.041  18.834  0.00  0.00    +0.000 C 
BRANCH  17  18
ATOM     18  N   UNL     1       3.847   2.752  20.204  0.00  0.00    +0.000 N 
ATOM     19  C   UNL     1       2.943   2.476  21.211  0.00  0.00    +0.000 C 
ATOM     20  O   UNL     1       1.752   2.761  21.202  0.00  0.00    +0.000 OA
BRANCH  18  21
ATOM     21  O   UNL     1       4.991   1.916  20.247  0.00  0.00    +0.000 OA
ATOM     22  H   UNL     1       5.145   1.737  19.297  0.00  0.00    +0.000 HD
ENDBRANCH  18  21
ENDBRANCH  17  18
ENDBRANCH   1  17
TORSDOF 8
ENDMDL
MODEL 7
REMARK VINA RESULT:      -6.4      0.929      1.386
REMARK  Name = 
REMARK  11 active torsions:
REMARK  status: ('A' for Active; 'I' for Inactive)
REMARK    1  A    between atoms: C_1  and  C_2
REMARK    2  A    between atoms: C_2  and  C_3
REMARK    3  A    between atoms: C_2  and  C_4
REMARK    4  A    between atoms: C_4  and  C_5
REMARK    5  A    between atoms: C_5  and  C_6
REMARK    6  A    between atoms: C_5  and  C_11
REMARK    7  A    between atoms: C_6  and  N_7
REMARK    8  A    between atoms: N_7  and  O_8
REMARK    9  A    between atoms: C_14  and  C_16
REMARK   10  A    between atoms: C_16  and  C_17
REMARK   11  A    between atoms: C_16  and  N_18
REMARK                            x       y       z     vdW  Elec       q    Type
REMARK                         _______ _______ _______ _____ _____    ______ ____
ROOT
ATOM      1  C   UNL     1       6.228   4.588  16.322  0.00  0.00    +0.000 C 
ENDROOT
BRANCH   1   2
ATOM      2  C   UNL     1       6.639   4.653  14.848  0.00  0.00    +0.000 C 
ATOM      3  O   UNL     1       7.484   5.452  14.459  0.00  0.00    +0.000 OA
ATOM      4  N   UNL     1       5.986   3.747  14.018  0.00  0.00    +0.000 N 
ATOM      5  C   UNL     1       6.320   3.539  12.689  0.00  0.00    +0.000 C 
ATOM      6  O   UNL     1       7.217   4.123  12.079  0.00  0.00    +0.000 OA
ATOM      7  H   UNL     1       5.309   3.125  14.429  0.00  0.00    +0.000 HD
BRANCH   5   8
ATOM      8  C   UNL     1       5.467   2.462  11.983  0.00  0.00    +0.000 C 
ATOM      9  C   UNL     1       6.333   1.631  11.046  0.00  0.00    +0.000 C 
BRANCH   8  10
ATOM     10  N   UNL     1       4.396   3.113  11.202  0.00  0.00    +0.000 NA
ATOM     11  H   UNL     1       4.499   2.807  10.227  0.00  0.00    +0.000 HD
ATOM     12  H   UNL     1       4.590   4.116  11.148  0.00  0.00    +0.000 HD
ENDBRANCH   8  10
ENDBRANCH   5   8
ENDBRANCH   1   2
BRANCH   1  13
ATOM     13  C   UNL     1       5.024   3.637  16.575  0.00  0.00    +0.000 C 
BRANCH  13  15
ATOM     14  C   UNL     1       2.564   3.781  17.353  0.00  0.00    +0.000 C 
ATOM     15  C   UNL     1       4.034   4.007  17.707  0.00  0.00    +0.000 C 
ATOM     16  C   UNL     1       4.369   3.187  18.962  0.00  0.00    +0.000 C 
ENDBRANCH  13  15
ENDBRANCH   1  13
BRANCH   1  17
ATOM     17  C   UNL     1       5.884   6.001  16.841  0.00  0.00    +0.000 C 
BRANCH  17  18
ATOM     18  N   UNL     1       6.986   6.665  17.543  0.00  0.00    +0.000 N 
ATOM     19  C   UNL     1       7.590   6.099  18.649  0.00  0.00    +0.000 C 
ATOM     20  O   UNL     1       7.111   5.225  19.359  0.00  0.00    +0.000 OA
BRANCH  18  21
ATOM     21  O   UNL     1       7.914   7.265  16.656  0.00  0.00    +0.000 OA
ATOM     22  H   UNL     1       7.361   7.942  16.213  0.00  0.00    +0.000 HD
ENDBRANCH  18  21
ENDBRANCH  17  18
ENDBRANCH   1  17
TORSDOF 8
ENDMDL
MODEL 8
REMARK VINA RESULT:      -6.4      2.782      5.267
REMARK  Name = 
REMARK  11 active torsions:
REMARK  status: ('A' for Active; 'I' for Inactive)
REMARK    1  A    between atoms: C_1  and  C_2
REMARK    2  A    between atoms: C_2  and  C_3
REMARK    3  A    between atoms: C_2  and  C_4
REMARK    4  A    between atoms: C_4  and  C_5
REMARK    5  A    between atoms: C_5  and  C_6
REMARK    6  A    between atoms: C_5  and  C_11
REMARK    7  A    between atoms: C_6  and  N_7
REMARK    8  A    between atoms: N_7  and  O_8
REMARK    9  A    between atoms: C_14  and  C_16
REMARK   10  A    between atoms: C_16  and  C_17
REMARK   11  A    between atoms: C_16  and  N_18
REMARK                            x       y       z     vdW  Elec       q    Type
REMARK                         _______ _______ _______ _____ _____    ______ ____
ROOT
ATOM      1  C   UNL     1       5.782   6.291  18.050  0.00  0.00    +0.000 C 
ENDROOT
BRANCH   1   2
ATOM      2  C   UNL     1       5.725   5.015  18.894  0.00  0.00    +0.000 C 
ATOM      3  O   UNL     1       6.437   4.874  19.882  0.00  0.00    +0.000 OA
ATOM      4  N   UNL     1       4.816   4.060  18.449  0.00  0.00    +0.000 N 
ATOM      5  C   UNL     1       4.502   2.908  19.153  0.00  0.00    +0.000 C 
ATOM      6  O   UNL     1       4.982   2.581  20.239  0.00  0.00    +0.000 OA
ATOM      7  H   UNL     1       4.269   4.265  17.629  0.00  0.00    +0.000 HD
BRANCH   5   8
ATOM      8  C   UNL     1       3.445   2.015  18.466  0.00  0.00    +0.000 C 
ATOM      9  C   UNL     1       2.127   2.074  19.227  0.00  0.00    +0.000 C 
BRANCH   8  10
ATOM     10  N   UNL     1       3.922   0.618  18.432  0.00  0.00    +0.000 NA
ATOM     11  H   UNL     1       4.902   0.622  18.738  0.00  0.00    +0.000 HD
ATOM     12  H   UNL     1       3.990   0.317  17.456  0.00  0.00    +0.000 HD
ENDBRANCH   8  10
ENDBRANCH   5   8
ENDBRANCH   1   2
BRANCH   1  13
ATOM     13  C   UNL     1       4.451   6.584  17.301  0.00  0.00    +0.000 C 
BRANCH  13  15
ATOM     14  C   UNL     1       2.595   8.333  17.717  0.00  0.00    +0.000 C 
ATOM     15  C   UNL     1       3.222   7.007  18.145  0.00  0.00    +0.000 C 
ATOM     16  C   UNL     1       2.152   5.908  18.066  0.00  0.00    +0.000 C 
ENDBRANCH  13  15
ENDBRANCH   1  13
BRANCH   1  17
ATOM     17  C   UNL     1       6.937   6.204  17.030  0.00  0.00    +0.000 C 
BRANCH  17  18
ATOM     18  N   UNL     1       7.125   4.870  16.451  0.00  0.00    +0.000 N 
ATOM     19  C   UNL     1       7.089   4.658  15.087  0.00  0.00    +0.000 C 
ATOM     20  O   UNL     1       6.585   5.404  14.258  0.00  0.00    +0.000 OA
BRANCH  18  21
ATOM     21  O   UNL     1       8.152   4.136  17.096  0.00  0.00    +0.000 OA
ATOM     22  H   UNL     1       8.940   4.394  16.576  0.00  0.00    +0.000 HD
ENDBRANCH  18  21
ENDBRANCH  17  18
ENDBRANCH   1  17
TORSDOF 8
ENDMDL
MODEL 9
REMARK VINA RESULT:      -6.4      0.834      1.537
REMARK  Name = 
REMARK  11 active torsions:
REMARK  status: ('A' for Active; 'I' for Inactive)
REMARK    1  A    between atoms: C_1  and  C_2
REMARK    2  A    between atoms: C_2  and  C_3
REMARK    3  A    between atoms: C_2  and  C_4
REMARK    4  A    between atoms: C_4  and  C_5
REMARK    5  A    between atoms: C_5  and  C_6
REMARK    6  A    between atoms: C_5  and  C_11
REMARK    7  A    between atoms: C_6  and  N_7
REMARK    8  A    between atoms: N_7  and  O_8
REMARK    9  A    between atoms: C_14  and  C_16
REMARK   10  A    between atoms: C_16  and  C_17
REMARK   11  A    between atoms: C_16  and  N_18
REMARK                            x       y       z     vdW  Elec       q    Type
REMARK                         _______ _______ _______ _____ _____    ______ ____
ROOT
ATOM      1  C   UNL     1       5.997   4.334  16.357  0.00  0.00    +0.000 C 
ENDROOT
BRANCH   1   2
ATOM      2  C   UNL     1       6.613   4.630  14.988  0.00  0.00    +0.000 C 
ATOM      3  O   UNL     1       7.557   5.404  14.869  0.00  0.00    +0.000 OA
ATOM      4  N   UNL     1       6.021   3.959  13.922  0.00  0.00    +0.000 N 
ATOM      5  C   UNL     1       6.522   3.970  12.630  0.00  0.00    +0.000 C 
ATOM      6  O   UNL     1       7.533   4.569  12.261  0.00  0.00    +0.000 OA
ATOM      7  H   UNL     1       5.252   3.338  14.116  0.00  0.00    +0.000 HD
BRANCH   5   8
ATOM      8  C   UNL     1       5.703   3.127  11.626  0.00  0.00    +0.000 C 
ATOM      9  C   UNL     1       4.211   3.332  11.857  0.00  0.00    +0.000 C 
BRANCH   8  10
ATOM     10  N   UNL     1       6.027   1.698  11.799  0.00  0.00    +0.000 NA
ATOM     11  H   UNL     1       6.513   1.389  10.948  0.00  0.00    +0.000 HD
ATOM     12  H   UNL     1       5.159   1.158  11.773  0.00  0.00    +0.000 HD
ENDBRANCH   8  10
ENDBRANCH   5   8
ENDBRANCH   1   2
BRANCH   1  13
ATOM     13  C   UNL     1       4.577   3.708  16.262  0.00  0.00    +0.000 C 
BRANCH  13  15
ATOM     14  C   UNL     1       2.441   4.280  17.600  0.00  0.00    +0.000 C 
ATOM     15  C   UNL     1       3.773   3.531  17.574  0.00  0.00    +0.000 C 
ATOM     16  C   UNL     1       3.500   2.036  17.804  0.00  0.00    +0.000 C 
ENDBRANCH  13  15
ENDBRANCH   1  13
BRANCH   1  17
ATOM     17  C   UNL     1       5.934   5.623  17.203  0.00  0.00    +0.000 C 
BRANCH  17  18
ATOM     18  N   UNL     1       7.104   5.835  18.061  0.00  0.00    +0.000 N 
ATOM     19  C   UNL     1       7.790   7.033  18.072  0.00  0.00    +0.000 C 
ATOM     20  O   UNL     1       7.757   7.887  17.195  0.00  0.00    +0.000 OA
BRANCH  18  21
ATOM     21  O   UNL     1       6.935   5.284  19.356  0.00  0.00    +0.000 OA
ATOM     22  H   UNL     1       7.015   6.078  19.924  0.00  0.00    +0.000 HD
ENDBRANCH  18  21
ENDBRANCH  17  18
ENDBRANCH   1  17
TORSDOF 8
ENDMDL
