MODEL 1
REMARK VINA RESULT:      -8.4      0.000      0.000
REMARK  Name = 
REMARK  3 active torsions:
REMARK  status: ('A' for Active; 'I' for Inactive)
REMARK    1  A    between atoms: C_1  and  C_2
REMARK    2  A    between atoms: C_6  and  N_7
REMARK    3  A    between atoms: C_8  and  C_10
REMARK                            x       y       z     vdW  Elec       q    Type
REMARK                         _______ _______ _______ _____ _____    ______ ____
ROOT
ATOM      1  N   UNL     1       5.409   4.554  15.630  0.00  0.00    +0.000 N 
ATOM      2  C   UNL     1       4.958   5.742  16.171  0.00  0.00    +0.000 C 
ATOM      3  O   UNL     1       5.104   6.871  15.714  0.00  0.00    +0.000 OA
ATOM      4  H   UNL     1       5.246   3.705  16.149  0.00  0.00    +0.000 HD
ENDROOT
BRANCH   2   5
ATOM      5  C   UNL     1       4.213   5.551  17.463  0.00  0.00    +0.000 A 
ATOM      6  C   UNL     1       3.553   6.614  17.948  0.00  0.00    +0.000 A 
ATOM      7  C   UNL     1       2.785   6.479  19.192  0.00  0.00    +0.000 A 
ATOM      8  O   UNL     1       2.171   7.425  19.666  0.00  0.00    +0.000 OA
ATOM      9  C   UNL     1       2.789   5.151  19.820  0.00  0.00    +0.000 A 
ATOM     10  C   UNL     1       2.072   4.917  20.997  0.00  0.00    +0.000 A 
ATOM     11  C   UNL     1       2.089   3.646  21.571  0.00  0.00    +0.000 A 
ATOM     12  C   UNL     1       2.819   2.618  20.970  0.00  0.00    +0.000 A 
ATOM     13  C   UNL     1       3.534   2.857  19.794  0.00  0.00    +0.000 A 
ATOM     14  C   UNL     1       3.518   4.127  19.218  0.00  0.00    +0.000 A 
ATOM     15  O   UNL     1       4.237   4.299  18.060  0.00  0.00    +0.000 OA
ENDBRANCH   2   5
BRANCH   1  21
ATOM     16  C   UNL     1       8.929   6.007  12.726  0.00  0.00    +0.000 C 
ATOM     17  C   UNL     1       7.742   5.117  12.931  0.00  0.00    +0.000 A 
ATOM     18  C   UNL     1       7.296   4.255  11.940  0.00  0.00    +0.000 A 
ATOM     19  C   UNL     1       6.183   3.465  12.206  0.00  0.00    +0.000 A 
ATOM     20  C   UNL     1       5.552   3.561  13.447  0.00  0.00    +0.000 A 
ATOM     21  C   UNL     1       6.059   4.446  14.391  0.00  0.00    +0.000 A 
ATOM     22  N   UNL     1       7.134   5.208  14.134  0.00  0.00    +0.000 NA
ENDBRANCH   1  21
TORSDOF 2
ENDMDL
MODEL 2
REMARK VINA RESULT:      -8.3      0.700      1.536
REMARK  Name = 
REMARK  3 active torsions:
REMARK  status: ('A' for Active; 'I' for Inactive)
REMARK    1  A    between atoms: C_1  and  C_2
REMARK    2  A    between atoms: C_6  and  N_7
REMARK    3  A    between atoms: C_8  and  C_10
REMARK                            x       y       z     vdW  Elec       q    Type
REMARK                         _______ _______ _______ _____ _____    ______ ____
ROOT
ATOM      1  N   UNL     1       5.346   4.470  15.638  0.00  0.00    +0.000 N 
ATOM      2  C   UNL     1       4.968   5.671  16.205  0.00  0.00    +0.000 C 
ATOM      3  O   UNL     1       5.176   6.799  15.769  0.00  0.00    +0.000 OA
ATOM      4  H   UNL     1       5.138   3.621  16.142  0.00  0.00    +0.000 HD
ENDROOT
BRANCH   2   5
ATOM      5  C   UNL     1       4.222   5.498  17.499  0.00  0.00    +0.000 A 
ATOM      6  C   UNL     1       3.562   6.568  17.969  0.00  0.00    +0.000 A 
ATOM      7  C   UNL     1       2.792   6.450  19.214  0.00  0.00    +0.000 A 
ATOM      8  O   UNL     1       2.178   7.402  19.675  0.00  0.00    +0.000 OA
ATOM      9  C   UNL     1       2.796   5.131  19.861  0.00  0.00    +0.000 A 
ATOM     10  C   UNL     1       2.079   4.913  21.040  0.00  0.00    +0.000 A 
ATOM     11  C   UNL     1       2.095   3.650  21.632  0.00  0.00    +0.000 A 
ATOM     12  C   UNL     1       2.827   2.614  21.045  0.00  0.00    +0.000 A 
ATOM     13  C   UNL     1       3.542   2.837  19.867  0.00  0.00    +0.000 A 
ATOM     14  C   UNL     1       3.527   4.099  19.273  0.00  0.00    +0.000 A 
ATOM     15  O   UNL     1       4.246   4.255  18.113  0.00  0.00    +0.000 OA
ENDBRANCH   2   5
BRANCH   1  21
ATOM     16  C   UNL     1       5.534   2.374  11.336  0.00  0.00    +0.000 C 
ATOM     17  C   UNL     1       6.131   3.361  12.291  0.00  0.00    +0.000 A 
ATOM     18  C   UNL     1       7.264   4.094  11.970  0.00  0.00    +0.000 A 
ATOM     19  C   UNL     1       7.760   4.986  12.915  0.00  0.00    +0.000 A 
ATOM     20  C   UNL     1       7.113   5.117  14.145  0.00  0.00    +0.000 A 
ATOM     21  C   UNL     1       5.980   4.350  14.392  0.00  0.00    +0.000 A 
ATOM     22  N   UNL     1       5.502   3.489  13.480  0.00  0.00    +0.000 NA
ENDBRANCH   1  21
TORSDOF 2
ENDMDL
MODEL 3
REMARK VINA RESULT:      -8.1      0.996      1.028
REMARK  Name = 
REMARK  3 active torsions:
REMARK  status: ('A' for Active; 'I' for Inactive)
REMARK    1  A    between atoms: C_1  and  C_2
REMARK    2  A    between atoms: C_6  and  N_7
REMARK    3  A    between atoms: C_8  and  C_10
REMARK                            x       y       z     vdW  Elec       q    Type
REMARK                         _______ _______ _______ _____ _____    ______ ____
ROOT
ATOM      1  N   UNL     1       5.326   4.382  15.432  0.00  0.00    +0.000 N 
ATOM      2  C   UNL     1       5.924   4.426  16.676  0.00  0.00    +0.000 C 
ATOM      3  O   UNL     1       7.122   4.365  16.929  0.00  0.00    +0.000 OA
ATOM      4  H   UNL     1       4.319   4.400  15.389  0.00  0.00    +0.000 HD
ENDROOT
BRANCH   2   5
ATOM      5  C   UNL     1       4.931   4.565  17.797  0.00  0.00    +0.000 A 
ATOM      6  C   UNL     1       4.312   5.750  17.918  0.00  0.00    +0.000 A 
ATOM      7  C   UNL     1       3.312   5.935  18.977  0.00  0.00    +0.000 A 
ATOM      8  O   UNL     1       2.727   7.000  19.121  0.00  0.00    +0.000 OA
ATOM      9  C   UNL     1       3.052   4.774  19.839  0.00  0.00    +0.000 A 
ATOM     10  C   UNL     1       2.104   4.845  20.864  0.00  0.00    +0.000 A 
ATOM     11  C   UNL     1       1.873   3.728  21.665  0.00  0.00    +0.000 A 
ATOM     12  C   UNL     1       2.587   2.548  21.440  0.00  0.00    +0.000 A 
ATOM     13  C   UNL     1       3.533   2.482  20.415  0.00  0.00    +0.000 A 
ATOM     14  C   UNL     1       3.766   3.598  19.612  0.00  0.00    +0.000 A 
ATOM     15  O   UNL     1       4.705   3.470  18.618  0.00  0.00    +0.000 OA
ENDBRANCH   2   5
BRANCH   1  21
ATOM     16  C   UNL     1       8.872   6.089  12.703  0.00  0.00    +0.000 C 
ATOM     17  C   UNL     1       7.730   5.131  12.841  0.00  0.00    +0.000 A 
ATOM     18  C   UNL     1       7.372   4.269  11.816  0.00  0.00    +0.000 A 
ATOM     19  C   UNL     1       6.294   3.414  12.021  0.00  0.00    +0.000 A 
ATOM     20  C   UNL     1       5.610   3.448  13.237  0.00  0.00    +0.000 A 
ATOM     21  C   UNL     1       6.030   4.338  14.219  0.00  0.00    +0.000 A 
ATOM     22  N   UNL     1       7.071   5.162  14.021  0.00  0.00    +0.000 NA
ENDBRANCH   1  21
TORSDOF 2
ENDMDL
MODEL 4
REMARK VINA RESULT:      -7.9      1.202      1.843
REMARK  Name = 
REMARK  3 active torsions:
REMARK  status: ('A' for Active; 'I' for Inactive)
REMARK    1  A    between atoms: C_1  and  C_2
REMARK    2  A    between atoms: C_6  and  N_7
REMARK    3  A    between atoms: C_8  and  C_10
REMARK                            x       y       z     vdW  Elec       q    Type
REMARK                         _______ _______ _______ _____ _____    ______ ____
ROOT
ATOM      1  N   UNL     1       5.314   4.303  15.410  0.00  0.00    +0.000 N 
ATOM      2  C   UNL     1       5.924   4.394  16.645  0.00  0.00    +0.000 C 
ATOM      3  O   UNL     1       7.127   4.364  16.886  0.00  0.00    +0.000 OA
ATOM      4  H   UNL     1       4.306   4.300  15.378  0.00  0.00    +0.000 HD
ENDROOT
BRANCH   2   5
ATOM      5  C   UNL     1       4.942   4.547  17.773  0.00  0.00    +0.000 A 
ATOM      6  C   UNL     1       4.338   5.739  17.897  0.00  0.00    +0.000 A 
ATOM      7  C   UNL     1       3.348   5.938  18.963  0.00  0.00    +0.000 A 
ATOM      8  O   UNL     1       2.777   7.010  19.109  0.00  0.00    +0.000 OA
ATOM      9  C   UNL     1       3.080   4.781  19.828  0.00  0.00    +0.000 A 
ATOM     10  C   UNL     1       2.141   4.865  20.859  0.00  0.00    +0.000 A 
ATOM     11  C   UNL     1       1.901   3.752  21.664  0.00  0.00    +0.000 A 
ATOM     12  C   UNL     1       2.600   2.563  21.436  0.00  0.00    +0.000 A 
ATOM     13  C   UNL     1       3.537   2.485  20.404  0.00  0.00    +0.000 A 
ATOM     14  C   UNL     1       3.778   3.597  19.598  0.00  0.00    +0.000 A 
ATOM     15  O   UNL     1       4.708   3.456  18.597  0.00  0.00    +0.000 OA
ENDBRANCH   2   5
BRANCH   1  21
ATOM     16  C   UNL     1       5.990   2.097  11.213  0.00  0.00    +0.000 C 
ATOM     17  C   UNL     1       6.388   3.203  12.141  0.00  0.00    +0.000 A 
ATOM     18  C   UNL     1       7.401   4.094  11.822  0.00  0.00    +0.000 A 
ATOM     19  C   UNL     1       7.715   5.090  12.741  0.00  0.00    +0.000 A 
ATOM     20  C   UNL     1       7.011   5.164  13.943  0.00  0.00    +0.000 A 
ATOM     21  C   UNL     1       6.006   4.236  14.190  0.00  0.00    +0.000 A 
ATOM     22  N   UNL     1       5.703   3.276  13.303  0.00  0.00    +0.000 NA
ENDBRANCH   1  21
TORSDOF 2
ENDMDL
MODEL 5
REMARK VINA RESULT:      -7.7      4.172      5.991
REMARK  Name = 
REMARK  3 active torsions:
REMARK  status: ('A' for Active; 'I' for Inactive)
REMARK    1  A    between atoms: C_1  and  C_2
REMARK    2  A    between atoms: C_6  and  N_7
REMARK    3  A    between atoms: C_8  and  C_10
REMARK                            x       y       z     vdW  Elec       q    Type
REMARK                         _______ _______ _______ _____ _____    ______ ____
ROOT
ATOM      1  N   UNL     1       2.491   6.941  18.951  0.00  0.00    +0.000 N 
ATOM      2  C   UNL     1       2.252   8.131  18.293  0.00  0.00    +0.000 C 
ATOM      3  O   UNL     1       2.579   8.429  17.149  0.00  0.00    +0.000 OA
ATOM      4  H   UNL     1       2.195   6.863  19.912  0.00  0.00    +0.000 HD
ENDROOT
BRANCH   2   5
ATOM      5  C   UNL     1       1.501   9.125  19.135  0.00  0.00    +0.000 A 
ATOM      6  C   UNL     1       1.238  10.318  18.580  0.00  0.00    +0.000 A 
ATOM      7  C   UNL     1       0.483  11.318  19.346  0.00  0.00    +0.000 A 
ATOM      8  O   UNL     1       0.223  12.417  18.875  0.00  0.00    +0.000 OA
ATOM      9  C   UNL     1       0.054  10.920  20.693  0.00  0.00    +0.000 A 
ATOM     10  C   UNL     1      -0.686  11.796  21.493  0.00  0.00    +0.000 A 
ATOM     11  C   UNL     1      -1.085  11.392  22.767  0.00  0.00    +0.000 A 
ATOM     12  C   UNL     1      -0.743  10.121  23.236  0.00  0.00    +0.000 A 
ATOM     13  C   UNL     1      -0.004   9.250  22.432  0.00  0.00    +0.000 A 
ATOM     14  C   UNL     1       0.395   9.651  21.158  0.00  0.00    +0.000 A 
ATOM     15  O   UNL     1       1.116   8.749  20.414  0.00  0.00    +0.000 OA
ENDBRANCH   2   5
BRANCH   1  21
ATOM     16  C   UNL     1       6.512   4.700  17.631  0.00  0.00    +0.000 C 
ATOM     17  C   UNL     1       5.016   4.687  17.689  0.00  0.00    +0.000 A 
ATOM     18  C   UNL     1       4.274   3.639  17.166  0.00  0.00    +0.000 A 
ATOM     19  C   UNL     1       2.887   3.705  17.254  0.00  0.00    +0.000 A 
ATOM     20  C   UNL     1       2.288   4.811  17.858  0.00  0.00    +0.000 A 
ATOM     21  C   UNL     1       3.099   5.822  18.363  0.00  0.00    +0.000 A 
ATOM     22  N   UNL     1       4.437   5.757  18.278  0.00  0.00    +0.000 NA
ENDBRANCH   1  21
TORSDOF 2
ENDMDL
MODEL 6
REMARK VINA RESULT:      -7.7      6.094      7.691
REMARK  Name = 
REMARK  3 active torsions:
REMARK  status: ('A' for Active; 'I' for Inactive)
REMARK    1  A    between atoms: C_1  and  C_2
REMARK    2  A    between atoms: C_6  and  N_7
REMARK    3  A    between atoms: C_8  and  C_10
REMARK                            x       y       z     vdW  Elec       q    Type
REMARK                         _______ _______ _______ _____ _____    ______ ____
ROOT
ATOM      1  N   UNL     1       9.259   9.708  19.152  0.00  0.00    +0.000 N 
ATOM      2  C   UNL     1       8.340   9.566  18.132  0.00  0.00    +0.000 C 
ATOM      3  O   UNL     1       7.916  10.441  17.384  0.00  0.00    +0.000 OA
ATOM      4  H   UNL     1       9.477   8.897  19.711  0.00  0.00    +0.000 HD
ENDROOT
BRANCH   2   5
ATOM      5  C   UNL     1       7.850   8.153  17.978  0.00  0.00    +0.000 A 
ATOM      6  C   UNL     1       8.301   7.252  18.865  0.00  0.00    +0.000 A 
ATOM      7  C   UNL     1       7.835   5.863  18.782  0.00  0.00    +0.000 A 
ATOM      8  O   UNL     1       8.223   5.013  19.571  0.00  0.00    +0.000 OA
ATOM      9  C   UNL     1       6.876   5.560  17.710  0.00  0.00    +0.000 A 
ATOM     10  C   UNL     1       6.360   4.270  17.560  0.00  0.00    +0.000 A 
ATOM     11  C   UNL     1       5.448   4.009  16.537  0.00  0.00    +0.000 A 
ATOM     12  C   UNL     1       5.058   5.035  15.672  0.00  0.00    +0.000 A 
ATOM     13  C   UNL     1       5.577   6.322  15.827  0.00  0.00    +0.000 A 
ATOM     14  C   UNL     1       6.489   6.585  16.849  0.00  0.00    +0.000 A 
ATOM     15  O   UNL     1       6.961   7.871  16.952  0.00  0.00    +0.000 OA
ENDBRANCH   2   5
BRANCH   1  21
ATOM     16  C   UNL     1      12.274  13.157  17.756  0.00  0.00    +0.000 C 
ATOM     17  C   UNL     1      11.395  12.604  18.835  0.00  0.00    +0.000 A 
ATOM     18  C   UNL     1      11.273  13.226  20.068  0.00  0.00    +0.000 A 
ATOM     19  C   UNL     1      10.440  12.645  21.019  0.00  0.00    +0.000 A 
ATOM     20  C   UNL     1       9.760  11.467  20.710  0.00  0.00    +0.000 A 
ATOM     21  C   UNL     1       9.930  10.904  19.451  0.00  0.00    +0.000 A 
ATOM     22  N   UNL     1      10.734  11.465  18.533  0.00  0.00    +0.000 NA
ENDBRANCH   1  21
TORSDOF 2
ENDMDL
MODEL 7
REMARK VINA RESULT:      -7.6      4.732      6.959
REMARK  Name = 
REMARK  3 active torsions:
REMARK  status: ('A' for Active; 'I' for Inactive)
REMARK    1  A    between atoms: C_1  and  C_2
REMARK    2  A    between atoms: C_6  and  N_7
REMARK    3  A    between atoms: C_8  and  C_10
REMARK                            x       y       z     vdW  Elec       q    Type
REMARK                         _______ _______ _______ _____ _____    ______ ____
ROOT
ATOM      1  N   UNL     1       2.197   6.992  20.004  0.00  0.00    +0.000 N 
ATOM      2  C   UNL     1       1.852   8.220  19.476  0.00  0.00    +0.000 C 
ATOM      3  O   UNL     1       2.152   8.668  18.374  0.00  0.00    +0.000 OA
ATOM      4  H   UNL     1       1.908   6.783  20.948  0.00  0.00    +0.000 HD
ENDROOT
BRANCH   2   5
ATOM      5  C   UNL     1       1.015   9.046  20.413  0.00  0.00    +0.000 A 
ATOM      6  C   UNL     1       1.187   8.837  21.728  0.00  0.00    +0.000 A 
ATOM      7  C   UNL     1       0.417   9.634  22.691  0.00  0.00    +0.000 A 
ATOM      8  O   UNL     1       0.546   9.474  23.896  0.00  0.00    +0.000 OA
ATOM      9  C   UNL     1      -0.499  10.634  22.125  0.00  0.00    +0.000 A 
ATOM     10  C   UNL     1      -1.262  11.454  22.960  0.00  0.00    +0.000 A 
ATOM     11  C   UNL     1      -2.122  12.397  22.398  0.00  0.00    +0.000 A 
ATOM     12  C   UNL     1      -2.216  12.516  21.009  0.00  0.00    +0.000 A 
ATOM     13  C   UNL     1      -1.451  11.694  20.180  0.00  0.00    +0.000 A 
ATOM     14  C   UNL     1      -0.591  10.750  20.739  0.00  0.00    +0.000 A 
ATOM     15  O   UNL     1       0.138   9.973  19.871  0.00  0.00    +0.000 OA
ENDBRANCH   2   5
BRANCH   1  21
ATOM     16  C   UNL     1       6.400   4.975  18.912  0.00  0.00    +0.000 C 
ATOM     17  C   UNL     1       4.915   4.984  18.728  0.00  0.00    +0.000 A 
ATOM     18  C   UNL     1       4.277   4.080  17.891  0.00  0.00    +0.000 A 
ATOM     19  C   UNL     1       2.894   4.159  17.769  0.00  0.00    +0.000 A 
ATOM     20  C   UNL     1       2.194   5.132  18.483  0.00  0.00    +0.000 A 
ATOM     21  C   UNL     1       2.903   6.001  19.304  0.00  0.00    +0.000 A 
ATOM     22  N   UNL     1       4.238   5.925  19.422  0.00  0.00    +0.000 NA
ENDBRANCH   1  21
TORSDOF 2
ENDMDL
MODEL 8
REMARK VINA RESULT:      -7.6      4.613      7.241
REMARK  Name = 
REMARK  3 active torsions:
REMARK  status: ('A' for Active; 'I' for Inactive)
REMARK    1  A    between atoms: C_1  and  C_2
REMARK    2  A    between atoms: C_6  and  N_7
REMARK    3  A    between atoms: C_8  and  C_10
REMARK                            x       y       z     vdW  Elec       q    Type
REMARK                         _______ _______ _______ _____ _____    ______ ____
ROOT
ATOM      1  N   UNL     1       2.176   6.609  20.322  0.00  0.00    +0.000 N 
ATOM      2  C   UNL     1       1.907   7.799  19.676  0.00  0.00    +0.000 C 
ATOM      3  O   UNL     1       2.255   8.129  18.546  0.00  0.00    +0.000 OA
ATOM      4  H   UNL     1       1.856   6.503  21.273  0.00  0.00    +0.000 HD
ENDROOT
BRANCH   2   5
ATOM      5  C   UNL     1       1.092   8.748  20.511  0.00  0.00    +0.000 A 
ATOM      6  C   UNL     1       1.226   8.655  21.843  0.00  0.00    +0.000 A 
ATOM      7  C   UNL     1       0.477   9.574  22.708  0.00  0.00    +0.000 A 
ATOM      8  O   UNL     1       0.571   9.521  23.927  0.00  0.00    +0.000 OA
ATOM      9  C   UNL     1      -0.377  10.559  22.030  0.00  0.00    +0.000 A 
ATOM     10  C   UNL     1      -1.116  11.489  22.766  0.00  0.00    +0.000 A 
ATOM     11  C   UNL     1      -1.916  12.415  22.097  0.00  0.00    +0.000 A 
ATOM     12  C   UNL     1      -1.975  12.408  20.701  0.00  0.00    +0.000 A 
ATOM     13  C   UNL     1      -1.234  11.476  19.971  0.00  0.00    +0.000 A 
ATOM     14  C   UNL     1      -0.433  10.549  20.637  0.00  0.00    +0.000 A 
ATOM     15  O   UNL     1       0.274   9.661  19.863  0.00  0.00    +0.000 OA
ENDBRANCH   2   5
BRANCH   1  21
ATOM     16  C   UNL     1       1.963   2.213  18.436  0.00  0.00    +0.000 C 
ATOM     17  C   UNL     1       2.809   3.387  18.818  0.00  0.00    +0.000 A 
ATOM     18  C   UNL     1       4.183   3.390  18.626  0.00  0.00    +0.000 A 
ATOM     19  C   UNL     1       4.899   4.518  19.013  0.00  0.00    +0.000 A 
ATOM     20  C   UNL     1       4.225   5.601  19.577  0.00  0.00    +0.000 A 
ATOM     21  C   UNL     1       2.846   5.525  19.735  0.00  0.00    +0.000 A 
ATOM     22  N   UNL     1       2.155   4.437  19.361  0.00  0.00    +0.000 NA
ENDBRANCH   1  21
TORSDOF 2
ENDMDL
MODEL 9
REMARK VINA RESULT:      -7.5      4.407      6.352
REMARK  Name = 
REMARK  3 active torsions:
REMARK  status: ('A' for Active; 'I' for Inactive)
REMARK    1  A    between atoms: C_1  and  C_2
REMARK    2  A    between atoms: C_6  and  N_7
REMARK    3  A    between atoms: C_8  and  C_10
REMARK                            x       y       z     vdW  Elec       q    Type
REMARK                         _______ _______ _______ _____ _____    ______ ____
ROOT
ATOM      1  N   UNL     1       2.027   5.805  19.505  0.00  0.00    +0.000 N 
ATOM      2  C   UNL     1       2.474   7.000  18.976  0.00  0.00    +0.000 C 
ATOM      3  O   UNL     1       3.350   7.160  18.133  0.00  0.00    +0.000 OA
ATOM      4  H   UNL     1       1.324   5.840  20.227  0.00  0.00    +0.000 HD
ENDROOT
BRANCH   2   5
ATOM      5  C   UNL     1       1.759   8.195  19.544  0.00  0.00    +0.000 A 
ATOM      6  C   UNL     1       1.635   9.266  18.746  0.00  0.00    +0.000 A 
ATOM      7  C   UNL     1       0.922  10.452  19.237  0.00  0.00    +0.000 A 
ATOM      8  O   UNL     1       0.788  11.448  18.540  0.00  0.00    +0.000 OA
ATOM      9  C   UNL     1       0.376  10.368  20.598  0.00  0.00    +0.000 A 
ATOM     10  C   UNL     1      -0.335  11.438  21.149  0.00  0.00    +0.000 A 
ATOM     11  C   UNL     1      -0.847  11.330  22.442  0.00  0.00    +0.000 A 
ATOM     12  C   UNL     1      -0.647  10.159  23.177  0.00  0.00    +0.000 A 
ATOM     13  C   UNL     1       0.064   9.093  22.622  0.00  0.00    +0.000 A 
ATOM     14  C   UNL     1       0.577   9.198  21.329  0.00  0.00    +0.000 A 
ATOM     15  O   UNL     1       1.263   8.114  20.837  0.00  0.00    +0.000 OA
ENDBRANCH   2   5
BRANCH   1  21
ATOM     16  C   UNL     1       4.709   1.931  20.354  0.00  0.00    +0.000 C 
ATOM     17  C   UNL     1       3.760   2.637  19.437  0.00  0.00    +0.000 A 
ATOM     18  C   UNL     1       3.363   2.083  18.230  0.00  0.00    +0.000 A 
ATOM     19  C   UNL     1       2.482   2.806  17.432  0.00  0.00    +0.000 A 
ATOM     20  C   UNL     1       2.029   4.053  17.862  0.00  0.00    +0.000 A 
ATOM     21  C   UNL     1       2.469   4.541  19.087  0.00  0.00    +0.000 A 
ATOM     22  N   UNL     1       3.319   3.843  19.857  0.00  0.00    +0.000 NA
ENDBRANCH   1  21
TORSDOF 2
ENDMDL
