MODEL 1
REMARK VINA RESULT:      -7.3      0.000      0.000
REMARK  Name = 
REMARK  4 active torsions:
REMARK  status: ('A' for Active; 'I' for Inactive)
REMARK    1  A    between atoms: C_1  and  C_2
REMARK    2  A    between atoms: C_2  and  O_3
REMARK    3  A    between atoms: O_3  and  C_4
REMARK    4  A    between atoms: N_11  and  C_12
REMARK                            x       y       z     vdW  Elec       q    Type
REMARK                         _______ _______ _______ _____ _____    ______ ____
ROOT
ATOM      1  C   UNL     1       6.824   4.291  17.447  0.00  0.00    +0.000 C 
ATOM      2  C   UNL     1       7.294   4.750  16.035  0.00  0.00    +0.000 C 
ATOM      3  C   UNL     1       6.156   4.972  15.027  0.00  0.00    +0.000 C 
ATOM      4  C   UNL     1       5.185   6.047  15.532  0.00  0.00    +0.000 C 
ATOM      5  C   UNL     1       4.778   5.740  16.928  0.00  0.00    +0.000 A 
ATOM      6  N   UNL     1       3.641   6.294  17.466  0.00  0.00    +0.000 NA
ATOM      7  C   UNL     1       3.459   5.845  18.690  0.00  0.00    +0.000 A 
ATOM      8  N   UNL     1       2.521   6.296  19.555  0.00  0.00    +0.000 N 
ATOM      9  S   UNL     1       4.521   4.561  19.132  0.00  0.00    +0.000 S 
ATOM     10  C   UNL     1       5.498   4.917  17.770  0.00  0.00    +0.000 A 
ATOM     11  H   UNL     1       2.400   5.802  20.433  0.00  0.00    +0.000 HD
ENDROOT
BRANCH   8  12
ATOM     12  C   UNL     1       2.033   7.618  19.569  0.00  0.00    +0.000 A 
ATOM     13  C   UNL     1       1.500   8.126  20.756  0.00  0.00    +0.000 A 
ATOM     14  C   UNL     1       0.909   9.396  20.787  0.00  0.00    +0.000 A 
ATOM     15  C   UNL     1       0.860  10.170  19.628  0.00  0.00    +0.000 A 
ATOM     16 CL   UNL     1       0.105  11.715  19.658  0.00  0.00    +0.000 Cl
ATOM     17  C   UNL     1       1.406   9.692  18.444  0.00  0.00    +0.000 A 
ATOM     18  C   UNL     1       1.984   8.424  18.415  0.00  0.00    +0.000 A 
ENDBRANCH   8  12
BRANCH   1  19
ATOM     19  O   UNL     1       7.845   4.767  18.345  0.00  0.00    +0.000 OA
BRANCH  19  21
ATOM     20  C   UNL     1       8.136   7.142  18.492  0.00  0.00    +0.000 C 
ATOM     21  C   UNL     1       7.510   5.912  19.119  0.00  0.00    +0.000 C 
ENDBRANCH  19  21
ENDBRANCH   1  19
TORSDOF 3
ENDMDL
MODEL 2
REMARK VINA RESULT:      -7.2      2.255      3.590
REMARK  Name = 
REMARK  4 active torsions:
REMARK  status: ('A' for Active; 'I' for Inactive)
REMARK    1  A    between atoms: C_1  and  C_2
REMARK    2  A    between atoms: C_2  and  O_3
REMARK    3  A    between atoms: O_3  and  C_4
REMARK    4  A    between atoms: N_11  and  C_12
REMARK                            x       y       z     vdW  Elec       q    Type
REMARK                         _______ _______ _______ _____ _____    ______ ____
ROOT
ATOM      1  C   UNL     1       3.751   3.104  17.940  0.00  0.00    +0.000 C 
ATOM      2  C   UNL     1       2.640   2.040  17.699  0.00  0.00    +0.000 C 
ATOM      3  C   UNL     1       1.632   1.901  18.850  0.00  0.00    +0.000 C 
ATOM      4  C   UNL     1       0.912   3.232  19.105  0.00  0.00    +0.000 C 
ATOM      5  C   UNL     1       1.909   4.326  19.230  0.00  0.00    +0.000 A 
ATOM      6  N   UNL     1       1.577   5.512  19.841  0.00  0.00    +0.000 NA
ATOM      7  C   UNL     1       2.625   6.307  19.877  0.00  0.00    +0.000 A 
ATOM      8  N   UNL     1       2.610   7.600  20.276  0.00  0.00    +0.000 N 
ATOM      9  S   UNL     1       4.096   5.552  19.390  0.00  0.00    +0.000 S 
ATOM     10  C   UNL     1       3.197   4.246  18.740  0.00  0.00    +0.000 A 
ATOM     11  H   UNL     1       3.496   8.085  20.366  0.00  0.00    +0.000 HD
ENDROOT
BRANCH   8  12
ATOM     12  C   UNL     1       1.499   8.456  20.132  0.00  0.00    +0.000 A 
ATOM     13  C   UNL     1       1.309   9.110  18.912  0.00  0.00    +0.000 A 
ATOM     14  C   UNL     1       0.279  10.049  18.759  0.00  0.00    +0.000 A 
ATOM     15  C   UNL     1      -0.571  10.329  19.827  0.00  0.00    +0.000 A 
ATOM     16 CL   UNL     1      -1.813  11.506  19.651  0.00  0.00    +0.000 Cl
ATOM     17  C   UNL     1      -0.412   9.672  21.041  0.00  0.00    +0.000 A 
ATOM     18  C   UNL     1       0.619   8.746  21.191  0.00  0.00    +0.000 A 
ENDBRANCH   8  12
BRANCH   1  19
ATOM     19  O   UNL     1       4.131   3.541  16.622  0.00  0.00    +0.000 OA
BRANCH  19  21
ATOM     20  C   UNL     1       5.657   4.683  15.167  0.00  0.00    +0.000 C 
ATOM     21  C   UNL     1       5.499   3.890  16.449  0.00  0.00    +0.000 C 
ENDBRANCH  19  21
ENDBRANCH   1  19
TORSDOF 3
ENDMDL
MODEL 3
REMARK VINA RESULT:      -7.1      3.779      6.988
REMARK  Name = 
REMARK  4 active torsions:
REMARK  status: ('A' for Active; 'I' for Inactive)
REMARK    1  A    between atoms: C_1  and  C_2
REMARK    2  A    between atoms: C_2  and  O_3
REMARK    3  A    between atoms: O_3  and  C_4
REMARK    4  A    between atoms: N_11  and  C_12
REMARK                            x       y       z     vdW  Elec       q    Type
REMARK                         _______ _______ _______ _____ _____    ______ ____
ROOT
ATOM      1  C   UNL     1       2.306   4.562  20.812  0.00  0.00    +0.000 C 
ATOM      2  C   UNL     1       1.287   5.724  20.621  0.00  0.00    +0.000 C 
ATOM      3  C   UNL     1       1.921   7.070  20.239  0.00  0.00    +0.000 C 
ATOM      4  C   UNL     1       2.696   6.951  18.920  0.00  0.00    +0.000 C 
ATOM      5  C   UNL     1       3.613   5.783  18.981  0.00  0.00    +0.000 A 
ATOM      6  N   UNL     1       4.682   5.685  18.123  0.00  0.00    +0.000 NA
ATOM      7  C   UNL     1       5.374   4.598  18.391  0.00  0.00    +0.000 A 
ATOM      8  N   UNL     1       6.400   4.123  17.647  0.00  0.00    +0.000 N 
ATOM      9  S   UNL     1       4.891   3.797  19.839  0.00  0.00    +0.000 S 
ATOM     10  C   UNL     1       3.455   4.733  19.862  0.00  0.00    +0.000 A 
ATOM     11  H   UNL     1       6.932   3.338  18.008  0.00  0.00    +0.000 HD
ENDROOT
BRANCH   8  12
ATOM     12  C   UNL     1       6.508   4.296  16.253  0.00  0.00    +0.000 A 
ATOM     13  C   UNL     1       5.713   3.511  15.414  0.00  0.00    +0.000 A 
ATOM     14  C   UNL     1       5.863   3.576  14.022  0.00  0.00    +0.000 A 
ATOM     15  C   UNL     1       6.805   4.438  13.463  0.00  0.00    +0.000 A 
ATOM     16 CL   UNL     1       7.013   4.493  11.757  0.00  0.00    +0.000 Cl
ATOM     17  C   UNL     1       7.588   5.244  14.279  0.00  0.00    +0.000 A 
ATOM     18  C   UNL     1       7.442   5.169  15.664  0.00  0.00    +0.000 A 
ENDBRANCH   8  12
BRANCH   1  19
ATOM     19  O   UNL     1       1.561   3.369  20.504  0.00  0.00    +0.000 OA
BRANCH  19  21
ATOM     20  C   UNL     1       1.355   2.167  18.439  0.00  0.00    +0.000 C 
ATOM     21  C   UNL     1       0.889   3.360  19.250  0.00  0.00    +0.000 C 
ENDBRANCH  19  21
ENDBRANCH   1  19
TORSDOF 3
ENDMDL
MODEL 4
REMARK VINA RESULT:      -7.1      0.303      1.115
REMARK  Name = 
REMARK  4 active torsions:
REMARK  status: ('A' for Active; 'I' for Inactive)
REMARK    1  A    between atoms: C_1  and  C_2
REMARK    2  A    between atoms: C_2  and  O_3
REMARK    3  A    between atoms: O_3  and  C_4
REMARK    4  A    between atoms: N_11  and  C_12
REMARK                            x       y       z     vdW  Elec       q    Type
REMARK                         _______ _______ _______ _____ _____    ______ ____
ROOT
ATOM      1  C   UNL     1       6.958   4.299  17.519  0.00  0.00    +0.000 C 
ATOM      2  C   UNL     1       7.390   4.657  16.066  0.00  0.00    +0.000 C 
ATOM      3  C   UNL     1       6.232   4.734  15.059  0.00  0.00    +0.000 C 
ATOM      4  C   UNL     1       5.213   5.799  15.485  0.00  0.00    +0.000 C 
ATOM      5  C   UNL     1       4.837   5.594  16.908  0.00  0.00    +0.000 A 
ATOM      6  N   UNL     1       3.680   6.137  17.413  0.00  0.00    +0.000 NA
ATOM      7  C   UNL     1       3.534   5.787  18.673  0.00  0.00    +0.000 A 
ATOM      8  N   UNL     1       2.583   6.264  19.510  0.00  0.00    +0.000 N 
ATOM      9  S   UNL     1       4.663   4.600  19.208  0.00  0.00    +0.000 S 
ATOM     10  C   UNL     1       5.606   4.884  17.807  0.00  0.00    +0.000 A 
ATOM     11  H   UNL     1       2.496   5.843  20.429  0.00  0.00    +0.000 HD
ENDROOT
BRANCH   8  12
ATOM     12  C   UNL     1       2.029   7.557  19.418  0.00  0.00    +0.000 A 
ATOM     13  C   UNL     1       2.120   8.242  18.204  0.00  0.00    +0.000 A 
ATOM     14  C   UNL     1       1.677   9.568  18.098  0.00  0.00    +0.000 A 
ATOM     15  C   UNL     1       1.131  10.210  19.208  0.00  0.00    +0.000 A 
ATOM     16 CL   UNL     1       0.619  11.848  19.087  0.00  0.00    +0.000 Cl
ATOM     17  C   UNL     1       1.011   9.538  20.417  0.00  0.00    +0.000 A 
ATOM     18  C   UNL     1       1.462   8.222  20.521  0.00  0.00    +0.000 A 
ENDBRANCH   8  12
BRANCH   1  19
ATOM     19  O   UNL     1       7.964   4.900  18.357  0.00  0.00    +0.000 OA
BRANCH  19  21
ATOM     20  C   UNL     1       8.082   7.295  18.311  0.00  0.00    +0.000 C 
ATOM     21  C   UNL     1       7.572   6.076  19.055  0.00  0.00    +0.000 C 
ENDBRANCH  19  21
ENDBRANCH   1  19
TORSDOF 3
ENDMDL
MODEL 5
REMARK VINA RESULT:      -6.9      2.210      3.330
REMARK  Name = 
REMARK  4 active torsions:
REMARK  status: ('A' for Active; 'I' for Inactive)
REMARK    1  A    between atoms: C_1  and  C_2
REMARK    2  A    between atoms: C_2  and  O_3
REMARK    3  A    between atoms: O_3  and  C_4
REMARK    4  A    between atoms: N_11  and  C_12
REMARK                            x       y       z     vdW  Elec       q    Type
REMARK                         _______ _______ _______ _____ _____    ______ ____
ROOT
ATOM      1  C   UNL     1       3.867   3.122  17.858  0.00  0.00    +0.000 C 
ATOM      2  C   UNL     1       2.743   2.093  17.539  0.00  0.00    +0.000 C 
ATOM      3  C   UNL     1       1.638   2.008  18.603  0.00  0.00    +0.000 C 
ATOM      4  C   UNL     1       0.947   3.366  18.779  0.00  0.00    +0.000 C 
ATOM      5  C   UNL     1       1.969   4.428  18.972  0.00  0.00    +0.000 A 
ATOM      6  N   UNL     1       1.629   5.634  19.538  0.00  0.00    +0.000 NA
ATOM      7  C   UNL     1       2.698   6.393  19.650  0.00  0.00    +0.000 A 
ATOM      8  N   UNL     1       2.696   7.692  20.030  0.00  0.00    +0.000 N 
ATOM      9  S   UNL     1       4.177   5.580  19.298  0.00  0.00    +0.000 S 
ATOM     10  C   UNL     1       3.289   4.296  18.593  0.00  0.00    +0.000 A 
ATOM     11  H   UNL     1       3.589   8.148  20.187  0.00  0.00    +0.000 HD
ENDROOT
BRANCH   8  12
ATOM     12  C   UNL     1       1.633   8.583  19.781  0.00  0.00    +0.000 A 
ATOM     13  C   UNL     1       0.764   8.902  20.828  0.00  0.00    +0.000 A 
ATOM     14  C   UNL     1      -0.366   9.699  20.600  0.00  0.00    +0.000 A 
ATOM     15  C   UNL     1      -0.624  10.191  19.321  0.00  0.00    +0.000 A 
ATOM     16 CL   UNL     1      -2.028  11.142  19.033  0.00  0.00    +0.000 Cl
ATOM     17  C   UNL     1       0.241   9.905  18.273  0.00  0.00    +0.000 A 
ATOM     18  C   UNL     1       1.358   9.103  18.502  0.00  0.00    +0.000 A 
ENDBRANCH   8  12
BRANCH   1  19
ATOM     19  O   UNL     1       4.370   3.524  16.570  0.00  0.00    +0.000 OA
BRANCH  19  21
ATOM     20  C   UNL     1       6.200   3.961  15.084  0.00  0.00    +0.000 C 
ATOM     21  C   UNL     1       5.739   3.909  16.527  0.00  0.00    +0.000 C 
ENDBRANCH  19  21
ENDBRANCH   1  19
TORSDOF 3
ENDMDL
MODEL 6
REMARK VINA RESULT:      -6.9      5.872      9.247
REMARK  Name = 
REMARK  4 active torsions:
REMARK  status: ('A' for Active; 'I' for Inactive)
REMARK    1  A    between atoms: C_1  and  C_2
REMARK    2  A    between atoms: C_2  and  O_3
REMARK    3  A    between atoms: O_3  and  C_4
REMARK    4  A    between atoms: N_11  and  C_12
REMARK                            x       y       z     vdW  Elec       q    Type
REMARK                         _______ _______ _______ _____ _____    ______ ____
ROOT
ATOM      1  C   UNL     1      -4.115  11.907  18.108  0.00  0.00    +0.000 C 
ATOM      2  C   UNL     1      -4.863  11.247  16.912  0.00  0.00    +0.000 C 
ATOM      3  C   UNL     1      -3.975  10.941  15.697  0.00  0.00    +0.000 C 
ATOM      4  C   UNL     1      -2.840   9.983  16.081  0.00  0.00    +0.000 C 
ATOM      5  C   UNL     1      -2.146  10.488  17.294  0.00  0.00    +0.000 A 
ATOM      6  N   UNL     1      -0.880  10.056  17.609  0.00  0.00    +0.000 NA
ATOM      7  C   UNL     1      -0.453  10.670  18.692  0.00  0.00    +0.000 A 
ATOM      8  N   UNL     1       0.688  10.376  19.357  0.00  0.00    +0.000 N 
ATOM      9  S   UNL     1      -1.473  11.956  19.218  0.00  0.00    +0.000 S 
ATOM     10  C   UNL     1      -2.709  11.384  18.179  0.00  0.00    +0.000 A 
ATOM     11  H   UNL     1       0.973  10.986  20.116  0.00  0.00    +0.000 HD
ENDROOT
BRANCH   8  12
ATOM     12  C   UNL     1       1.259   9.088  19.411  0.00  0.00    +0.000 A 
ATOM     13  C   UNL     1       1.134   8.346  20.589  0.00  0.00    +0.000 A 
ATOM     14  C   UNL     1       1.774   7.107  20.723  0.00  0.00    +0.000 A 
ATOM     15  C   UNL     1       2.535   6.600  19.671  0.00  0.00    +0.000 A 
ATOM     16 CL   UNL     1       3.349   5.095  19.847  0.00  0.00    +0.000 Cl
ATOM     17  C   UNL     1       2.652   7.311  18.484  0.00  0.00    +0.000 A 
ATOM     18  C   UNL     1       2.021   8.548  18.359  0.00  0.00    +0.000 A 
ENDBRANCH   8  12
BRANCH   1  19
ATOM     19  O   UNL     1      -4.865  11.512  19.272  0.00  0.00    +0.000 OA
BRANCH  19  21
ATOM     20  C   UNL     1      -6.999  11.228  20.330  0.00  0.00    +0.000 C 
ATOM     21  C   UNL     1      -6.210  11.110  19.040  0.00  0.00    +0.000 C 
ENDBRANCH  19  21
ENDBRANCH   1  19
TORSDOF 3
ENDMDL
MODEL 7
REMARK VINA RESULT:      -6.8      4.746      7.521
REMARK  Name = 
REMARK  4 active torsions:
REMARK  status: ('A' for Active; 'I' for Inactive)
REMARK    1  A    between atoms: C_1  and  C_2
REMARK    2  A    between atoms: C_2  and  O_3
REMARK    3  A    between atoms: O_3  and  C_4
REMARK    4  A    between atoms: N_11  and  C_12
REMARK                            x       y       z     vdW  Elec       q    Type
REMARK                         _______ _______ _______ _____ _____    ______ ____
ROOT
ATOM      1  C   UNL     1      -0.408  10.959  19.678  0.00  0.00    +0.000 C 
ATOM      2  C   UNL     1       0.126  11.679  18.404  0.00  0.00    +0.000 C 
ATOM      3  C   UNL     1       1.648  11.590  18.214  0.00  0.00    +0.000 C 
ATOM      4  C   UNL     1       2.096  10.127  18.106  0.00  0.00    +0.000 C 
ATOM      5  C   UNL     1       1.526   9.343  19.231  0.00  0.00    +0.000 A 
ATOM      6  N   UNL     1       2.075   8.136  19.596  0.00  0.00    +0.000 NA
ATOM      7  C   UNL     1       1.437   7.651  20.639  0.00  0.00    +0.000 A 
ATOM      8  N   UNL     1       1.624   6.416  21.162  0.00  0.00    +0.000 N 
ATOM      9  S   UNL     1       0.317   8.749  21.352  0.00  0.00    +0.000 S 
ATOM     10  C   UNL     1       0.424   9.743  19.960  0.00  0.00    +0.000 A 
ATOM     11  H   UNL     1       1.157   6.188  22.033  0.00  0.00    +0.000 HD
ENDROOT
BRANCH   8  12
ATOM     12  C   UNL     1       2.012   5.291  20.408  0.00  0.00    +0.000 A 
ATOM     13  C   UNL     1       1.102   4.243  20.247  0.00  0.00    +0.000 A 
ATOM     14  C   UNL     1       1.482   3.062  19.594  0.00  0.00    +0.000 A 
ATOM     15  C   UNL     1       2.775   2.931  19.089  0.00  0.00    +0.000 A 
ATOM     16 CL   UNL     1       3.251   1.470  18.318  0.00  0.00    +0.000 Cl
ATOM     17  C   UNL     1       3.686   3.971  19.218  0.00  0.00    +0.000 A 
ATOM     18  C   UNL     1       3.307   5.140  19.877  0.00  0.00    +0.000 A 
ENDBRANCH   8  12
BRANCH   1  19
ATOM     19  O   UNL     1      -1.760  10.587  19.347  0.00  0.00    +0.000 OA
BRANCH  19  21
ATOM     20  C   UNL     1      -3.453  10.180  17.699  0.00  0.00    +0.000 C 
ATOM     21  C   UNL     1      -1.972  10.123  18.020  0.00  0.00    +0.000 C 
ENDBRANCH  19  21
ENDBRANCH   1  19
TORSDOF 3
ENDMDL
MODEL 8
REMARK VINA RESULT:      -6.8      5.831      9.295
REMARK  Name = 
REMARK  4 active torsions:
REMARK  status: ('A' for Active; 'I' for Inactive)
REMARK    1  A    between atoms: C_1  and  C_2
REMARK    2  A    between atoms: C_2  and  O_3
REMARK    3  A    between atoms: O_3  and  C_4
REMARK    4  A    between atoms: N_11  and  C_12
REMARK                            x       y       z     vdW  Elec       q    Type
REMARK                         _______ _______ _______ _____ _____    ______ ____
ROOT
ATOM      1  C   UNL     1      -4.026  11.925  18.170  0.00  0.00    +0.000 C 
ATOM      2  C   UNL     1      -4.804  11.193  17.037  0.00  0.00    +0.000 C 
ATOM      3  C   UNL     1      -3.945  10.811  15.821  0.00  0.00    +0.000 C 
ATOM      4  C   UNL     1      -2.801   9.878  16.235  0.00  0.00    +0.000 C 
ATOM      5  C   UNL     1      -2.078  10.456  17.397  0.00  0.00    +0.000 A 
ATOM      6  N   UNL     1      -0.804  10.043  17.707  0.00  0.00    +0.000 NA
ATOM      7  C   UNL     1      -0.351  10.722  18.740  0.00  0.00    +0.000 A 
ATOM      8  N   UNL     1       0.806  10.468  19.394  0.00  0.00    +0.000 N 
ATOM      9  S   UNL     1      -1.358  12.039  19.210  0.00  0.00    +0.000 S 
ATOM     10  C   UNL     1      -2.619  11.406  18.239  0.00  0.00    +0.000 A 
ATOM     11  H   UNL     1       1.109  11.123  20.107  0.00  0.00    +0.000 HD
ENDROOT
BRANCH   8  12
ATOM     12  C   UNL     1       1.378   9.185  19.513  0.00  0.00    +0.000 A 
ATOM     13  C   UNL     1       2.062   8.648  18.419  0.00  0.00    +0.000 A 
ATOM     14  C   UNL     1       2.554   7.337  18.459  0.00  0.00    +0.000 A 
ATOM     15  C   UNL     1       2.372   6.559  19.602  0.00  0.00    +0.000 A 
ATOM     16 CL   UNL     1       2.947   4.939  19.639  0.00  0.00    +0.000 Cl
ATOM     17  C   UNL     1       1.716   7.083  20.708  0.00  0.00    +0.000 A 
ATOM     18  C   UNL     1       1.219   8.385  20.661  0.00  0.00    +0.000 A 
ENDBRANCH   8  12
BRANCH   1  19
ATOM     19  O   UNL     1      -4.748  11.603  19.374  0.00  0.00    +0.000 OA
BRANCH  19  21
ATOM     20  C   UNL     1      -7.012  11.203  20.056  0.00  0.00    +0.000 C 
ATOM     21  C   UNL     1      -6.022  12.219  19.521  0.00  0.00    +0.000 C 
ENDBRANCH  19  21
ENDBRANCH   1  19
TORSDOF 3
ENDMDL
MODEL 9
REMARK VINA RESULT:      -6.8      3.801      7.010
REMARK  Name = 
REMARK  4 active torsions:
REMARK  status: ('A' for Active; 'I' for Inactive)
REMARK    1  A    between atoms: C_1  and  C_2
REMARK    2  A    between atoms: C_2  and  O_3
REMARK    3  A    between atoms: O_3  and  C_4
REMARK    4  A    between atoms: N_11  and  C_12
REMARK                            x       y       z     vdW  Elec       q    Type
REMARK                         _______ _______ _______ _____ _____    ______ ____
ROOT
ATOM      1  C   UNL     1       2.381   5.007  20.180  0.00  0.00    +0.000 C 
ATOM      2  C   UNL     1       1.473   6.243  19.913  0.00  0.00    +0.000 C 
ATOM      3  C   UNL     1       2.233   7.515  19.506  0.00  0.00    +0.000 C 
ATOM      4  C   UNL     1       3.035   7.279  18.219  0.00  0.00    +0.000 C 
ATOM      5  C   UNL     1       3.845   6.040  18.353  0.00  0.00    +0.000 A 
ATOM      6  N   UNL     1       4.928   5.818  17.536  0.00  0.00    +0.000 NA
ATOM      7  C   UNL     1       5.515   4.687  17.867  0.00  0.00    +0.000 A 
ATOM      8  N   UNL     1       6.518   4.098  17.175  0.00  0.00    +0.000 N 
ATOM      9  S   UNL     1       4.918   3.986  19.324  0.00  0.00    +0.000 S 
ATOM     10  C   UNL     1       3.570   5.042  19.265  0.00  0.00    +0.000 A 
ATOM     11  H   UNL     1       6.968   3.285  17.582  0.00  0.00    +0.000 HD
ENDROOT
BRANCH   8  12
ATOM     12  C   UNL     1       6.684   4.208  15.780  0.00  0.00    +0.000 A 
ATOM     13  C   UNL     1       7.652   5.085  15.285  0.00  0.00    +0.000 A 
ATOM     14  C   UNL     1       7.779   5.303  13.906  0.00  0.00    +0.000 A 
ATOM     15  C   UNL     1       6.941   4.634  13.015  0.00  0.00    +0.000 A 
ATOM     16 CL   UNL     1       7.073   4.927  11.326  0.00  0.00    +0.000 Cl
ATOM     17  C   UNL     1       5.988   3.741  13.487  0.00  0.00    +0.000 A 
ATOM     18  C   UNL     1       5.859   3.534  14.860  0.00  0.00    +0.000 A 
ENDBRANCH   8  12
BRANCH   1  19
ATOM     19  O   UNL     1       1.545   3.871  19.888  0.00  0.00    +0.000 OA
BRANCH  19  21
ATOM     20  C   UNL     1       2.296   2.650  21.811  0.00  0.00    +0.000 C 
ATOM     21  C   UNL     1       1.097   3.121  21.011  0.00  0.00    +0.000 C 
ENDBRANCH  19  21
ENDBRANCH   1  19
TORSDOF 3
ENDMDL
