MODEL 1
REMARK VINA RESULT:      -8.5      0.000      0.000
REMARK  Name = 
REMARK  8 active torsions:
REMARK  status: ('A' for Active; 'I' for Inactive)
REMARK    1  A    between atoms: C_2  and  C_3
REMARK    2  A    between atoms: C_3  and  C_4
REMARK    3  A    between atoms: C_4  and  C_5
REMARK    4  A    between atoms: C_5  and  C_6
REMARK    5  A    between atoms: C_6  and  C_7
REMARK    6  A    between atoms: N_10  and  C_11
REMARK    7  A    between atoms: C_11  and  C_12
REMARK    8  A    between atoms: N_23  and  O_24
REMARK                            x       y       z     vdW  Elec       q    Type
REMARK                         _______ _______ _______ _____ _____    ______ ____
ROOT
ATOM      1  C   UNL     1       7.843   8.313  17.816  0.00  0.00    +0.000 A 
ATOM      2  C   UNL     1       8.216   7.207  18.615  0.00  0.00    +0.000 A 
ATOM      3  C   UNL     1       7.477   6.153  18.135  0.00  0.00    +0.000 A 
ATOM      4  N   UNL     1       6.725   6.655  17.110  0.00  0.00    +0.000 N 
ATOM      5  N   UNL     1       6.912   7.977  16.915  0.00  0.00    +0.000 NA
ENDROOT
BRANCH   1   6
ATOM      6  C   UNL     1       8.400   9.701  17.847  0.00  0.00    +0.000 C 
BRANCH   6   7
ATOM      7  C   UNL     1       9.523   9.869  18.881  0.00  0.00    +0.000 C 
BRANCH   7   8
ATOM      8  C   UNL     1       9.572  11.291  19.455  0.00  0.00    +0.000 C 
BRANCH   8   9
ATOM      9  C   UNL     1      10.979  11.880  19.431  0.00  0.00    +0.000 C 
BRANCH   9  11
ATOM     10  O   UNL     1      10.649  13.822  18.031  0.00  0.00    +0.000 OA
ATOM     11  C   UNL     1      11.207  12.738  18.205  0.00  0.00    +0.000 C 
ATOM     12  N   UNL     1      12.117  12.234  17.310  0.00  0.00    +0.000 N 
ATOM     13  H   UNL     1      12.499  11.295  17.339  0.00  0.00    +0.000 HD
BRANCH  12  14
ATOM     14  O   UNL     1      12.333  12.972  16.127  0.00  0.00    +0.000 OA
ATOM     15  H   UNL     1      11.419  13.146  15.814  0.00  0.00    +0.000 HD
ENDBRANCH  12  14
ENDBRANCH   9  11
ENDBRANCH   8   9
ENDBRANCH   7   8
ENDBRANCH   6   7
ENDBRANCH   1   6
BRANCH   4  16
ATOM     16  C   UNL     1       5.765   5.917  16.299  0.00  0.00    +0.000 C 
BRANCH  16  17
ATOM     17  C   UNL     1       4.582   5.435  17.107  0.00  0.00    +0.000 A 
ATOM     18  C   UNL     1       3.764   6.353  17.776  0.00  0.00    +0.000 A 
ATOM     19  C   UNL     1       2.655   5.918  18.504  0.00  0.00    +0.000 A 
ATOM     20  C   UNL     1       2.328   4.557  18.570  0.00  0.00    +0.000 A 
ATOM     21  C   UNL     1       1.205   4.111  19.287  0.00  0.00    +0.000 A 
ATOM     22  C   UNL     1       0.884   2.754  19.338  0.00  0.00    +0.000 A 
ATOM     23  C   UNL     1       1.685   1.826  18.680  0.00  0.00    +0.000 A 
ATOM     24  C   UNL     1       2.806   2.253  17.966  0.00  0.00    +0.000 A 
ATOM     25  C   UNL     1       3.140   3.617  17.898  0.00  0.00    +0.000 A 
ATOM     26  C   UNL     1       4.259   4.068  17.175  0.00  0.00    +0.000 A 
ENDBRANCH  16  17
ENDBRANCH   4  16
TORSDOF 8
ENDMDL
MODEL 2
REMARK VINA RESULT:      -7.9      1.777      1.915
REMARK  Name = 
REMARK  8 active torsions:
REMARK  status: ('A' for Active; 'I' for Inactive)
REMARK    1  A    between atoms: C_2  and  C_3
REMARK    2  A    between atoms: C_3  and  C_4
REMARK    3  A    between atoms: C_4  and  C_5
REMARK    4  A    between atoms: C_5  and  C_6
REMARK    5  A    between atoms: C_6  and  C_7
REMARK    6  A    between atoms: N_10  and  C_11
REMARK    7  A    between atoms: C_11  and  C_12
REMARK    8  A    between atoms: N_23  and  O_24
REMARK                            x       y       z     vdW  Elec       q    Type
REMARK                         _______ _______ _______ _____ _____    ______ ____
ROOT
ATOM      1  C   UNL     1       7.694   7.773  17.881  0.00  0.00    +0.000 A 
ATOM      2  C   UNL     1       8.281   6.936  18.858  0.00  0.00    +0.000 A 
ATOM      3  C   UNL     1       7.707   5.703  18.665  0.00  0.00    +0.000 A 
ATOM      4  N   UNL     1       6.836   5.850  17.622  0.00  0.00    +0.000 N 
ATOM      5  N   UNL     1       6.792   7.112  17.145  0.00  0.00    +0.000 NA
ENDROOT
BRANCH   1   6
ATOM      6  C   UNL     1       8.013   9.203  17.583  0.00  0.00    +0.000 C 
BRANCH   6   7
ATOM      7  C   UNL     1       8.848   9.871  18.685  0.00  0.00    +0.000 C 
BRANCH   7   8
ATOM      8  C   UNL     1       9.975  10.738  18.112  0.00  0.00    +0.000 C 
BRANCH   8   9
ATOM      9  C   UNL     1      10.173  12.030  18.898  0.00  0.00    +0.000 C 
BRANCH   9  11
ATOM     10  O   UNL     1       8.408  13.506  19.641  0.00  0.00    +0.000 OA
ATOM     11  C   UNL     1       9.017  12.987  18.704  0.00  0.00    +0.000 C 
ATOM     12  N   UNL     1       8.715  13.267  17.395  0.00  0.00    +0.000 N 
ATOM     13  H   UNL     1       9.089  12.769  16.594  0.00  0.00    +0.000 HD
BRANCH  12  14
ATOM     14  O   UNL     1       7.615  14.118  17.155  0.00  0.00    +0.000 OA
ATOM     15  H   UNL     1       7.303  14.324  18.063  0.00  0.00    +0.000 HD
ENDBRANCH  12  14
ENDBRANCH   9  11
ENDBRANCH   8   9
ENDBRANCH   7   8
ENDBRANCH   6   7
ENDBRANCH   1   6
BRANCH   4  16
ATOM     16  C   UNL     1       5.977   4.817  17.059  0.00  0.00    +0.000 C 
BRANCH  16  17
ATOM     17  C   UNL     1       4.701   4.639  17.849  0.00  0.00    +0.000 A 
ATOM     18  C   UNL     1       3.553   5.365  17.508  0.00  0.00    +0.000 A 
ATOM     19  C   UNL     1       2.363   5.188  18.217  0.00  0.00    +0.000 A 
ATOM     20  C   UNL     1       2.287   4.271  19.275  0.00  0.00    +0.000 A 
ATOM     21  C   UNL     1       1.091   4.074  19.983  0.00  0.00    +0.000 A 
ATOM     22  C   UNL     1       1.024   3.152  21.028  0.00  0.00    +0.000 A 
ATOM     23  C   UNL     1       2.154   2.421  21.382  0.00  0.00    +0.000 A 
ATOM     24  C   UNL     1       3.351   2.608  20.690  0.00  0.00    +0.000 A 
ATOM     25  C   UNL     1       3.434   3.527  19.630  0.00  0.00    +0.000 A 
ATOM     26  C   UNL     1       4.628   3.722  18.912  0.00  0.00    +0.000 A 
ENDBRANCH  16  17
ENDBRANCH   4  16
TORSDOF 8
ENDMDL
MODEL 3
REMARK VINA RESULT:      -7.9      1.841      2.610
REMARK  Name = 
REMARK  8 active torsions:
REMARK  status: ('A' for Active; 'I' for Inactive)
REMARK    1  A    between atoms: C_2  and  C_3
REMARK    2  A    between atoms: C_3  and  C_4
REMARK    3  A    between atoms: C_4  and  C_5
REMARK    4  A    between atoms: C_5  and  C_6
REMARK    5  A    between atoms: C_6  and  C_7
REMARK    6  A    between atoms: N_10  and  C_11
REMARK    7  A    between atoms: C_11  and  C_12
REMARK    8  A    between atoms: N_23  and  O_24
REMARK                            x       y       z     vdW  Elec       q    Type
REMARK                         _______ _______ _______ _____ _____    ______ ____
ROOT
ATOM      1  C   UNL     1       7.977   7.692  18.292  0.00  0.00    +0.000 A 
ATOM      2  C   UNL     1       8.121   6.390  18.827  0.00  0.00    +0.000 A 
ATOM      3  C   UNL     1       7.197   5.624  18.157  0.00  0.00    +0.000 A 
ATOM      4  N   UNL     1       6.566   6.468  17.286  0.00  0.00    +0.000 N 
ATOM      5  N   UNL     1       7.007   7.741  17.371  0.00  0.00    +0.000 NA
ENDROOT
BRANCH   1   6
ATOM      6  C   UNL     1       8.791   8.908  18.601  0.00  0.00    +0.000 C 
BRANCH   6   7
ATOM      7  C   UNL     1       8.358  10.137  17.788  0.00  0.00    +0.000 C 
BRANCH   7   8
ATOM      8  C   UNL     1       9.194  11.377  18.126  0.00  0.00    +0.000 C 
BRANCH   8   9
ATOM      9  C   UNL     1      10.153  11.135  19.287  0.00  0.00    +0.000 C 
BRANCH   9  11
ATOM     10  O   UNL     1       9.618  13.073  20.629  0.00  0.00    +0.000 OA
ATOM     11  C   UNL     1       9.702  11.846  20.545  0.00  0.00    +0.000 C 
ATOM     12  N   UNL     1       9.357  11.018  21.583  0.00  0.00    +0.000 N 
ATOM     13  H   UNL     1       9.535  10.021  21.612  0.00  0.00    +0.000 HD
BRANCH  12  14
ATOM     14  O   UNL     1       8.974  11.631  22.795  0.00  0.00    +0.000 OA
ATOM     15  H   UNL     1       9.688  12.291  22.935  0.00  0.00    +0.000 HD
ENDBRANCH  12  14
ENDBRANCH   9  11
ENDBRANCH   8   9
ENDBRANCH   7   8
ENDBRANCH   6   7
ENDBRANCH   1   6
BRANCH   4  16
ATOM     16  C   UNL     1       5.490   6.119  16.368  0.00  0.00    +0.000 C 
BRANCH  16  17
ATOM     17  C   UNL     1       4.441   5.248  17.019  0.00  0.00    +0.000 A 
ATOM     18  C   UNL     1       4.210   3.950  16.549  0.00  0.00    +0.000 A 
ATOM     19  C   UNL     1       3.260   3.130  17.161  0.00  0.00    +0.000 A 
ATOM     20  C   UNL     1       2.527   3.582  18.267  0.00  0.00    +0.000 A 
ATOM     21  C   UNL     1       1.581   2.759  18.900  0.00  0.00    +0.000 A 
ATOM     22  C   UNL     1       0.863   3.217  20.006  0.00  0.00    +0.000 A 
ATOM     23  C   UNL     1       1.078   4.504  20.488  0.00  0.00    +0.000 A 
ATOM     24  C   UNL     1       2.013   5.335  19.868  0.00  0.00    +0.000 A 
ATOM     25  C   UNL     1       2.750   4.888  18.758  0.00  0.00    +0.000 A 
ATOM     26  C   UNL     1       3.704   5.705  18.127  0.00  0.00    +0.000 A 
ENDBRANCH  16  17
ENDBRANCH   4  16
TORSDOF 8
ENDMDL
MODEL 4
REMARK VINA RESULT:      -7.7      4.129      6.858
REMARK  Name = 
REMARK  8 active torsions:
REMARK  status: ('A' for Active; 'I' for Inactive)
REMARK    1  A    between atoms: C_2  and  C_3
REMARK    2  A    between atoms: C_3  and  C_4
REMARK    3  A    between atoms: C_4  and  C_5
REMARK    4  A    between atoms: C_5  and  C_6
REMARK    5  A    between atoms: C_6  and  C_7
REMARK    6  A    between atoms: N_10  and  C_11
REMARK    7  A    between atoms: C_11  and  C_12
REMARK    8  A    between atoms: N_23  and  O_24
REMARK                            x       y       z     vdW  Elec       q    Type
REMARK                         _______ _______ _______ _____ _____    ______ ____
ROOT
ATOM      1  C   UNL     1       3.647   4.045  17.480  0.00  0.00    +0.000 A 
ATOM      2  C   UNL     1       2.271   3.717  17.491  0.00  0.00    +0.000 A 
ATOM      3  C   UNL     1       1.736   4.456  18.518  0.00  0.00    +0.000 A 
ATOM      4  N   UNL     1       2.774   5.165  19.055  0.00  0.00    +0.000 N 
ATOM      5  N   UNL     1       3.955   4.909  18.454  0.00  0.00    +0.000 NA
ENDROOT
BRANCH   1   6
ATOM      6  C   UNL     1       4.693   3.591  16.511  0.00  0.00    +0.000 C 
BRANCH   6   7
ATOM      7  C   UNL     1       5.467   4.757  15.880  0.00  0.00    +0.000 C 
BRANCH   7   8
ATOM      8  C   UNL     1       6.892   4.873  16.435  0.00  0.00    +0.000 C 
BRANCH   8   9
ATOM      9  C   UNL     1       7.254   6.305  16.815  0.00  0.00    +0.000 C 
BRANCH   9  11
ATOM     10  O   UNL     1       8.305   7.382  18.706  0.00  0.00    +0.000 OA
ATOM     11  C   UNL     1       7.700   6.407  18.257  0.00  0.00    +0.000 C 
ATOM     12  N   UNL     1       7.348   5.340  19.046  0.00  0.00    +0.000 N 
ATOM     13  H   UNL     1       6.975   4.463  18.701  0.00  0.00    +0.000 HD
BRANCH  12  14
ATOM     14  O   UNL     1       7.780   5.362  20.389  0.00  0.00    +0.000 OA
ATOM     15  H   UNL     1       7.983   6.313  20.532  0.00  0.00    +0.000 HD
ENDBRANCH  12  14
ENDBRANCH   9  11
ENDBRANCH   8   9
ENDBRANCH   7   8
ENDBRANCH   6   7
ENDBRANCH   1   6
BRANCH   4  16
ATOM     16  C   UNL     1       2.704   6.082  20.185  0.00  0.00    +0.000 C 
BRANCH  16  17
ATOM     17  C   UNL     1       2.088   7.410  19.810  0.00  0.00    +0.000 A 
ATOM     18  C   UNL     1       2.341   7.974  18.554  0.00  0.00    +0.000 A 
ATOM     19  C   UNL     1       1.756   9.189  18.190  0.00  0.00    +0.000 A 
ATOM     20  C   UNL     1       0.893   9.862  19.066  0.00  0.00    +0.000 A 
ATOM     21  C   UNL     1       0.287  11.076  18.702  0.00  0.00    +0.000 A 
ATOM     22  C   UNL     1      -0.577  11.732  19.579  0.00  0.00    +0.000 A 
ATOM     23  C   UNL     1      -0.841  11.187  20.831  0.00  0.00    +0.000 A 
ATOM     24  C   UNL     1      -0.244   9.983  21.208  0.00  0.00    +0.000 A 
ATOM     25  C   UNL     1       0.623   9.305  20.335  0.00  0.00    +0.000 A 
ATOM     26  C   UNL     1       1.226   8.085  20.692  0.00  0.00    +0.000 A 
ENDBRANCH  16  17
ENDBRANCH   4  16
TORSDOF 8
ENDMDL
MODEL 5
REMARK VINA RESULT:      -7.7      0.992      1.769
REMARK  Name = 
REMARK  8 active torsions:
REMARK  status: ('A' for Active; 'I' for Inactive)
REMARK    1  A    between atoms: C_2  and  C_3
REMARK    2  A    between atoms: C_3  and  C_4
REMARK    3  A    between atoms: C_4  and  C_5
REMARK    4  A    between atoms: C_5  and  C_6
REMARK    5  A    between atoms: C_6  and  C_7
REMARK    6  A    between atoms: N_10  and  C_11
REMARK    7  A    between atoms: C_11  and  C_12
REMARK    8  A    between atoms: N_23  and  O_24
REMARK                            x       y       z     vdW  Elec       q    Type
REMARK                         _______ _______ _______ _____ _____    ______ ____
ROOT
ATOM      1  C   UNL     1       7.732   7.970  17.817  0.00  0.00    +0.000 A 
ATOM      2  C   UNL     1       8.154   6.857  18.581  0.00  0.00    +0.000 A 
ATOM      3  C   UNL     1       7.473   5.785  18.058  0.00  0.00    +0.000 A 
ATOM      4  N   UNL     1       6.703   6.284  17.044  0.00  0.00    +0.000 N 
ATOM      5  N   UNL     1       6.824   7.620  16.898  0.00  0.00    +0.000 NA
ENDROOT
BRANCH   1   6
ATOM      6  C   UNL     1       8.217   9.382  17.902  0.00  0.00    +0.000 C 
BRANCH   6   7
ATOM      7  C   UNL     1       9.244   9.593  19.025  0.00  0.00    +0.000 C 
BRANCH   7   8
ATOM      8  C   UNL     1       9.195  11.017  19.592  0.00  0.00    +0.000 C 
BRANCH   8   9
ATOM      9  C   UNL     1      10.581  11.552  19.941  0.00  0.00    +0.000 C 
BRANCH   9  11
ATOM     10  O   UNL     1       9.969  13.829  19.409  0.00  0.00    +0.000 OA
ATOM     11  C   UNL     1      10.811  12.932  19.363  0.00  0.00    +0.000 C 
ATOM     12  N   UNL     1      12.052  13.124  18.810  0.00  0.00    +0.000 N 
ATOM     13  H   UNL     1      12.725  12.388  18.626  0.00  0.00    +0.000 HD
BRANCH  12  14
ATOM     14  O   UNL     1      12.304  14.378  18.215  0.00  0.00    +0.000 OA
ATOM     15  H   UNL     1      12.676  14.898  18.961  0.00  0.00    +0.000 HD
ENDBRANCH  12  14
ENDBRANCH   9  11
ENDBRANCH   8   9
ENDBRANCH   7   8
ENDBRANCH   6   7
ENDBRANCH   1   6
BRANCH   4  16
ATOM     16  C   UNL     1       5.787   5.528  16.200  0.00  0.00    +0.000 C 
BRANCH  16  17
ATOM     17  C   UNL     1       4.626   4.957  16.981  0.00  0.00    +0.000 A 
ATOM     18  C   UNL     1       4.094   3.707  16.641  0.00  0.00    +0.000 A 
ATOM     19  C   UNL     1       3.039   3.161  17.374  0.00  0.00    +0.000 A 
ATOM     20  C   UNL     1       2.498   3.844  18.473  0.00  0.00    +0.000 A 
ATOM     21  C   UNL     1       1.446   3.295  19.225  0.00  0.00    +0.000 A 
ATOM     22  C   UNL     1       0.921   3.980  20.322  0.00  0.00    +0.000 A 
ATOM     23  C   UNL     1       1.436   5.223  20.675  0.00  0.00    +0.000 A 
ATOM     24  C   UNL     1       2.479   5.782  19.935  0.00  0.00    +0.000 A 
ATOM     25  C   UNL     1       3.024   5.104  18.832  0.00  0.00    +0.000 A 
ATOM     26  C   UNL     1       4.082   5.646  18.080  0.00  0.00    +0.000 A 
ENDBRANCH  16  17
ENDBRANCH   4  16
TORSDOF 8
ENDMDL
MODEL 6
REMARK VINA RESULT:      -7.7      1.228      1.523
REMARK  Name = 
REMARK  8 active torsions:
REMARK  status: ('A' for Active; 'I' for Inactive)
REMARK    1  A    between atoms: C_2  and  C_3
REMARK    2  A    between atoms: C_3  and  C_4
REMARK    3  A    between atoms: C_4  and  C_5
REMARK    4  A    between atoms: C_5  and  C_6
REMARK    5  A    between atoms: C_6  and  C_7
REMARK    6  A    between atoms: N_10  and  C_11
REMARK    7  A    between atoms: C_11  and  C_12
REMARK    8  A    between atoms: N_23  and  O_24
REMARK                            x       y       z     vdW  Elec       q    Type
REMARK                         _______ _______ _______ _____ _____    ______ ____
ROOT
ATOM      1  C   UNL     1       7.906   8.290  17.839  0.00  0.00    +0.000 A 
ATOM      2  C   UNL     1       8.253   7.139  18.584  0.00  0.00    +0.000 A 
ATOM      3  C   UNL     1       7.474   6.132  18.069  0.00  0.00    +0.000 A 
ATOM      4  N   UNL     1       6.725   6.701  17.078  0.00  0.00    +0.000 N 
ATOM      5  N   UNL     1       6.952   8.025  16.938  0.00  0.00    +0.000 NA
ENDROOT
BRANCH   1   6
ATOM      6  C   UNL     1       8.509   9.657  17.924  0.00  0.00    +0.000 C 
BRANCH   6   7
ATOM      7  C   UNL     1       9.160   9.939  19.285  0.00  0.00    +0.000 C 
BRANCH   7   8
ATOM      8  C   UNL     1      10.220  11.044  19.202  0.00  0.00    +0.000 C 
BRANCH   8   9
ATOM      9  C   UNL     1       9.858  12.262  20.046  0.00  0.00    +0.000 C 
BRANCH   9  11
ATOM     10  O   UNL     1      10.549  13.846  18.357  0.00  0.00    +0.000 OA
ATOM     11  C   UNL     1       9.718  13.509  19.201  0.00  0.00    +0.000 C 
ATOM     12  N   UNL     1       8.568  14.226  19.419  0.00  0.00    +0.000 N 
ATOM     13  H   UNL     1       7.925  14.070  20.187  0.00  0.00    +0.000 HD
BRANCH  12  14
ATOM     14  O   UNL     1       8.408  15.424  18.691  0.00  0.00    +0.000 OA
ATOM     15  H   UNL     1       8.001  15.112  17.853  0.00  0.00    +0.000 HD
ENDBRANCH  12  14
ENDBRANCH   9  11
ENDBRANCH   8   9
ENDBRANCH   7   8
ENDBRANCH   6   7
ENDBRANCH   1   6
BRANCH   4  16
ATOM     16  C   UNL     1       5.731   6.032  16.250  0.00  0.00    +0.000 C 
BRANCH  16  17
ATOM     17  C   UNL     1       4.559   5.524  17.058  0.00  0.00    +0.000 A 
ATOM     18  C   UNL     1       3.743   6.421  17.757  0.00  0.00    +0.000 A 
ATOM     19  C   UNL     1       2.644   5.962  18.485  0.00  0.00    +0.000 A 
ATOM     20  C   UNL     1       2.324   4.598  18.521  0.00  0.00    +0.000 A 
ATOM     21  C   UNL     1       1.211   4.129  19.238  0.00  0.00    +0.000 A 
ATOM     22  C   UNL     1       0.898   2.769  19.259  0.00  0.00    +0.000 A 
ATOM     23  C   UNL     1       1.697   1.862  18.571  0.00  0.00    +0.000 A 
ATOM     24  C   UNL     1       2.808   2.312  17.857  0.00  0.00    +0.000 A 
ATOM     25  C   UNL     1       3.135   3.679  17.818  0.00  0.00    +0.000 A 
ATOM     26  C   UNL     1       4.243   4.154  17.095  0.00  0.00    +0.000 A 
ENDBRANCH  16  17
ENDBRANCH   4  16
TORSDOF 8
ENDMDL
MODEL 7
REMARK VINA RESULT:      -7.6      1.057      1.120
REMARK  Name = 
REMARK  8 active torsions:
REMARK  status: ('A' for Active; 'I' for Inactive)
REMARK    1  A    between atoms: C_2  and  C_3
REMARK    2  A    between atoms: C_3  and  C_4
REMARK    3  A    between atoms: C_4  and  C_5
REMARK    4  A    between atoms: C_5  and  C_6
REMARK    5  A    between atoms: C_6  and  C_7
REMARK    6  A    between atoms: N_10  and  C_11
REMARK    7  A    between atoms: C_11  and  C_12
REMARK    8  A    between atoms: N_23  and  O_24
REMARK                            x       y       z     vdW  Elec       q    Type
REMARK                         _______ _______ _______ _____ _____    ______ ____
ROOT
ATOM      1  C   UNL     1       7.941   8.020  17.853  0.00  0.00    +0.000 A 
ATOM      2  C   UNL     1       8.022   6.806  18.573  0.00  0.00    +0.000 A 
ATOM      3  C   UNL     1       6.929   6.077  18.170  0.00  0.00    +0.000 A 
ATOM      4  N   UNL     1       6.268   6.857  17.262  0.00  0.00    +0.000 N 
ATOM      5  N   UNL     1       6.853   8.059  17.073  0.00  0.00    +0.000 NA
ENDROOT
BRANCH   1   6
ATOM      6  C   UNL     1       8.920   9.150  17.842  0.00  0.00    +0.000 C 
BRANCH   6   7
ATOM      7  C   UNL     1       8.424  10.378  18.619  0.00  0.00    +0.000 C 
BRANCH   7   8
ATOM      8  C   UNL     1       8.855  11.693  17.961  0.00  0.00    +0.000 C 
BRANCH   8   9
ATOM      9  C   UNL     1      10.117  12.273  18.590  0.00  0.00    +0.000 C 
BRANCH   9  11
ATOM     10  O   UNL     1      12.110  12.712  17.293  0.00  0.00    +0.000 OA
ATOM     11  C   UNL     1      10.953  13.028  17.579  0.00  0.00    +0.000 C 
ATOM     12  N   UNL     1      10.312  14.077  16.971  0.00  0.00    +0.000 N 
ATOM     13  H   UNL     1       9.420  14.459  17.263  0.00  0.00    +0.000 HD
BRANCH  12  14
ATOM     14  O   UNL     1      11.061  14.844  16.053  0.00  0.00    +0.000 OA
ATOM     15  H   UNL     1      11.206  14.212  15.315  0.00  0.00    +0.000 HD
ENDBRANCH  12  14
ENDBRANCH   9  11
ENDBRANCH   8   9
ENDBRANCH   7   8
ENDBRANCH   6   7
ENDBRANCH   1   6
BRANCH   4  16
ATOM     16  C   UNL     1       5.033   6.519  16.567  0.00  0.00    +0.000 C 
BRANCH  16  17
ATOM     17  C   UNL     1       4.010   5.893  17.486  0.00  0.00    +0.000 A 
ATOM     18  C   UNL     1       3.396   6.660  18.483  0.00  0.00    +0.000 A 
ATOM     19  C   UNL     1       2.431   6.095  19.320  0.00  0.00    +0.000 A 
ATOM     20  C   UNL     1       2.047   4.755  19.173  0.00  0.00    +0.000 A 
ATOM     21  C   UNL     1       1.066   4.183  20.000  0.00  0.00    +0.000 A 
ATOM     22  C   UNL     1       0.685   2.851  19.838  0.00  0.00    +0.000 A 
ATOM     23  C   UNL     1       1.285   2.073  18.852  0.00  0.00    +0.000 A 
ATOM     24  C   UNL     1       2.263   2.626  18.025  0.00  0.00    +0.000 A 
ATOM     25  C   UNL     1       2.654   3.968  18.169  0.00  0.00    +0.000 A 
ATOM     26  C   UNL     1       3.629   4.547  17.339  0.00  0.00    +0.000 A 
ENDBRANCH  16  17
ENDBRANCH   4  16
TORSDOF 8
ENDMDL
MODEL 8
REMARK VINA RESULT:      -7.5      5.896      7.913
REMARK  Name = 
REMARK  8 active torsions:
REMARK  status: ('A' for Active; 'I' for Inactive)
REMARK    1  A    between atoms: C_2  and  C_3
REMARK    2  A    between atoms: C_3  and  C_4
REMARK    3  A    between atoms: C_4  and  C_5
REMARK    4  A    between atoms: C_5  and  C_6
REMARK    5  A    between atoms: C_6  and  C_7
REMARK    6  A    between atoms: N_10  and  C_11
REMARK    7  A    between atoms: C_11  and  C_12
REMARK    8  A    between atoms: N_23  and  O_24
REMARK                            x       y       z     vdW  Elec       q    Type
REMARK                         _______ _______ _______ _____ _____    ______ ____
ROOT
ATOM      1  C   UNL     1       6.038   5.186  17.171  0.00  0.00    +0.000 A 
ATOM      2  C   UNL     1       6.556   5.247  18.486  0.00  0.00    +0.000 A 
ATOM      3  C   UNL     1       5.454   5.262  19.305  0.00  0.00    +0.000 A 
ATOM      4  N   UNL     1       4.367   5.211  18.478  0.00  0.00    +0.000 N 
ATOM      5  N   UNL     1       4.699   5.192  17.170  0.00  0.00    +0.000 NA
ENDROOT
BRANCH   1   6
ATOM      6  C   UNL     1       6.796   5.065  15.888  0.00  0.00    +0.000 C 
BRANCH   6   7
ATOM      7  C   UNL     1       6.443   3.792  15.105  0.00  0.00    +0.000 C 
BRANCH   7   8
ATOM      8  C   UNL     1       5.660   4.100  13.823  0.00  0.00    +0.000 C 
BRANCH   8   9
ATOM      9  C   UNL     1       6.473   3.823  12.563  0.00  0.00    +0.000 C 
BRANCH   9  11
ATOM     10  O   UNL     1       4.759   2.540  11.442  0.00  0.00    +0.000 OA
ATOM     11  C   UNL     1       5.935   2.633  11.798  0.00  0.00    +0.000 C 
ATOM     12  N   UNL     1       6.867   1.673  11.495  0.00  0.00    +0.000 N 
ATOM     13  H   UNL     1       7.806   1.636  11.877  0.00  0.00    +0.000 HD
BRANCH  12  14
ATOM     14  O   UNL     1       6.409   0.520  10.823  0.00  0.00    +0.000 OA
ATOM     15  H   UNL     1       7.193   0.256  10.294  0.00  0.00    +0.000 HD
ENDBRANCH  12  14
ENDBRANCH   9  11
ENDBRANCH   8   9
ENDBRANCH   7   8
ENDBRANCH   6   7
ENDBRANCH   1   6
BRANCH   4  16
ATOM     16  C   UNL     1       2.967   5.222  18.885  0.00  0.00    +0.000 C 
BRANCH  16  17
ATOM     17  C   UNL     1       2.441   6.624  19.088  0.00  0.00    +0.000 A 
ATOM     18  C   UNL     1       2.415   7.529  18.020  0.00  0.00    +0.000 A 
ATOM     19  C   UNL     1       1.906   8.818  18.193  0.00  0.00    +0.000 A 
ATOM     20  C   UNL     1       1.398   9.230  19.432  0.00  0.00    +0.000 A 
ATOM     21  C   UNL     1       0.870  10.519  19.612  0.00  0.00    +0.000 A 
ATOM     22  C   UNL     1       0.359  10.915  20.848  0.00  0.00    +0.000 A 
ATOM     23  C   UNL     1       0.376  10.029  21.922  0.00  0.00    +0.000 A 
ATOM     24  C   UNL     1       0.900   8.746  21.760  0.00  0.00    +0.000 A 
ATOM     25  C   UNL     1       1.413   8.328  20.520  0.00  0.00    +0.000 A 
ATOM     26  C   UNL     1       1.935   7.036  20.334  0.00  0.00    +0.000 A 
ENDBRANCH  16  17
ENDBRANCH   4  16
TORSDOF 8
ENDMDL
MODEL 9
REMARK VINA RESULT:      -7.5      5.743      8.670
REMARK  Name = 
REMARK  8 active torsions:
REMARK  status: ('A' for Active; 'I' for Inactive)
REMARK    1  A    between atoms: C_2  and  C_3
REMARK    2  A    between atoms: C_3  and  C_4
REMARK    3  A    between atoms: C_4  and  C_5
REMARK    4  A    between atoms: C_5  and  C_6
REMARK    5  A    between atoms: C_6  and  C_7
REMARK    6  A    between atoms: N_10  and  C_11
REMARK    7  A    between atoms: C_11  and  C_12
REMARK    8  A    between atoms: N_23  and  O_24
REMARK                            x       y       z     vdW  Elec       q    Type
REMARK                         _______ _______ _______ _____ _____    ______ ____
ROOT
ATOM      1  C   UNL     1       2.812   5.955  19.615  0.00  0.00    +0.000 A 
ATOM      2  C   UNL     1       2.618   6.838  18.528  0.00  0.00    +0.000 A 
ATOM      3  C   UNL     1       3.788   6.786  17.810  0.00  0.00    +0.000 A 
ATOM      4  N   UNL     1       4.600   5.908  18.474  0.00  0.00    +0.000 N 
ATOM      5  N   UNL     1       4.035   5.409  19.594  0.00  0.00    +0.000 NA
ENDROOT
BRANCH   1   6
ATOM      6  C   UNL     1       1.827   5.563  20.670  0.00  0.00    +0.000 C 
BRANCH   6   7
ATOM      7  C   UNL     1       2.139   4.199  21.301  0.00  0.00    +0.000 C 
BRANCH   7   8
ATOM      8  C   UNL     1       1.098   3.136  20.926  0.00  0.00    +0.000 C 
BRANCH   8   9
ATOM      9  C   UNL     1       1.722   1.928  20.237  0.00  0.00    +0.000 C 
BRANCH   9  11
ATOM     10  O   UNL     1       3.359   1.877  18.459  0.00  0.00    +0.000 OA
ATOM     11  C   UNL     1       2.270   2.281  18.871  0.00  0.00    +0.000 C 
ATOM     12  N   UNL     1       1.444   3.063  18.104  0.00  0.00    +0.000 N 
ATOM     13  H   UNL     1       0.609   3.529  18.442  0.00  0.00    +0.000 HD
BRANCH  12  14
ATOM     14  O   UNL     1       1.927   3.461  16.839  0.00  0.00    +0.000 OA
ATOM     15  H   UNL     1       2.149   4.407  16.983  0.00  0.00    +0.000 HD
ENDBRANCH  12  14
ENDBRANCH   9  11
ENDBRANCH   8   9
ENDBRANCH   7   8
ENDBRANCH   6   7
ENDBRANCH   1   6
BRANCH   4  16
ATOM     16  C   UNL     1       5.959   5.535  18.104  0.00  0.00    +0.000 C 
BRANCH  16  17
ATOM     17  C   UNL     1       6.035   4.955  16.710  0.00  0.00    +0.000 A 
ATOM     18  C   UNL     1       5.218   3.876  16.350  0.00  0.00    +0.000 A 
ATOM     19  C   UNL     1       5.264   3.351  15.057  0.00  0.00    +0.000 A 
ATOM     20  C   UNL     1       6.117   3.898  14.089  0.00  0.00    +0.000 A 
ATOM     21  C   UNL     1       6.159   3.387  12.781  0.00  0.00    +0.000 A 
ATOM     22  C   UNL     1       7.006   3.946  11.823  0.00  0.00    +0.000 A 
ATOM     23  C   UNL     1       7.825   5.018  12.163  0.00  0.00    +0.000 A 
ATOM     24  C   UNL     1       7.797   5.535  13.458  0.00  0.00    +0.000 A 
ATOM     25  C   UNL     1       6.946   4.989  14.434  0.00  0.00    +0.000 A 
ATOM     26  C   UNL     1       6.895   5.504  15.742  0.00  0.00    +0.000 A 
ENDBRANCH  16  17
ENDBRANCH   4  16
TORSDOF 8
ENDMDL
