MODEL 1
REMARK VINA RESULT:      -7.0      0.000      0.000
REMARK  Name = 
REMARK  7 active torsions:
REMARK  status: ('A' for Active; 'I' for Inactive)
REMARK    1  A    between atoms: C_1  and  C_2
REMARK    2  A    between atoms: C_2  and  N_3
REMARK    3  A    between atoms: C_4  and  S_5
REMARK    4  A    between atoms: S_5  and  C_6
REMARK    5  A    between atoms: C_6  and  C_7
REMARK    6  A    between atoms: C_7  and  C_9
REMARK    7  A    between atoms: C_21  and  C_22
REMARK                            x       y       z     vdW  Elec       q    Type
REMARK                         _______ _______ _______ _____ _____    ______ ____
ROOT
ATOM      1  N   UNL     1       4.345   5.784  18.299  0.00  0.00    +0.000 N 
ATOM      2  C   UNL     1       5.294   4.874  18.772  0.00  0.00    +0.000 A 
ATOM      3  N   UNL     1       5.004   3.751  19.361  0.00  0.00    +0.000 NA
ATOM      4  C   UNL     1       3.674   3.441  19.452  0.00  0.00    +0.000 A 
ATOM      5  C   UNL     1       2.676   4.211  19.025  0.00  0.00    +0.000 A 
ATOM      6  C   UNL     1       2.982   5.529  18.457  0.00  0.00    +0.000 A 
ATOM      7  O   UNL     1       2.091   6.330  18.180  0.00  0.00    +0.000 OA
ATOM      8  S   UNL     1       1.094   3.573  19.208  0.00  0.00    +0.000 S 
ATOM      9  C   UNL     1       1.705   2.275  20.350  0.00  0.00    +0.000 C 
ATOM     10  C   UNL     1       1.423   2.733  21.779  0.00  0.00    +0.000 C 
ATOM     11  C   UNL     1       3.214   2.139  20.047  0.00  0.00    +0.000 C 
ENDROOT
BRANCH   1  13
ATOM     12  C   UNL     1       4.550   7.031  16.152  0.00  0.00    +0.000 C 
ATOM     13  C   UNL     1       4.657   7.076  17.673  0.00  0.00    +0.000 C 
ENDBRANCH   1  13
BRANCH   2  14
ATOM     14  S   UNL     1       6.986   5.322  18.621  0.00  0.00    +0.000 S 
BRANCH  14  15
ATOM     15  C   UNL     1       7.499   4.473  17.102  0.00  0.00    +0.000 C 
BRANCH  15  16
ATOM     16  C   UNL     1       7.519   5.365  15.871  0.00  0.00    +0.000 C 
ATOM     17  O   UNL     1       7.871   6.544  15.882  0.00  0.00    +0.000 OA
BRANCH  16  18
ATOM     18  C   UNL     1       7.043   4.777  14.577  0.00  0.00    +0.000 A 
ATOM     19  C   UNL     1       7.748   5.090  13.405  0.00  0.00    +0.000 A 
ATOM     20  C   UNL     1       7.347   4.566  12.173  0.00  0.00    +0.000 A 
ATOM     21  C   UNL     1       6.246   3.714  12.100  0.00  0.00    +0.000 A 
ATOM     22  C   UNL     1       5.546   3.386  13.261  0.00  0.00    +0.000 A 
ATOM     23  C   UNL     1       5.940   3.916  14.496  0.00  0.00    +0.000 A 
ENDBRANCH  16  18
ENDBRANCH  15  16
ENDBRANCH  14  15
ENDBRANCH   2  14
TORSDOF 5
ENDMDL
MODEL 2
REMARK VINA RESULT:      -7.0      0.044      1.007
REMARK  Name = 
REMARK  7 active torsions:
REMARK  status: ('A' for Active; 'I' for Inactive)
REMARK    1  A    between atoms: C_1  and  C_2
REMARK    2  A    between atoms: C_2  and  N_3
REMARK    3  A    between atoms: C_4  and  S_5
REMARK    4  A    between atoms: S_5  and  C_6
REMARK    5  A    between atoms: C_6  and  C_7
REMARK    6  A    between atoms: C_7  and  C_9
REMARK    7  A    between atoms: C_21  and  C_22
REMARK                            x       y       z     vdW  Elec       q    Type
REMARK                         _______ _______ _______ _____ _____    ______ ____
ROOT
ATOM      1  N   UNL     1       4.345   5.782  18.302  0.00  0.00    +0.000 N 
ATOM      2  C   UNL     1       5.282   4.857  18.771  0.00  0.00    +0.000 A 
ATOM      3  N   UNL     1       4.979   3.739  19.361  0.00  0.00    +0.000 NA
ATOM      4  C   UNL     1       3.645   3.449  19.458  0.00  0.00    +0.000 A 
ATOM      5  C   UNL     1       2.657   4.233  19.037  0.00  0.00    +0.000 A 
ATOM      6  C   UNL     1       2.979   5.546  18.467  0.00  0.00    +0.000 A 
ATOM      7  O   UNL     1       2.099   6.360  18.195  0.00  0.00    +0.000 OA
ATOM      8  S   UNL     1       1.066   3.619  19.228  0.00  0.00    +0.000 S 
ATOM      9  C   UNL     1       1.664   2.311  20.367  0.00  0.00    +0.000 C 
ATOM     10  C   UNL     1       1.396   2.774  21.797  0.00  0.00    +0.000 C 
ATOM     11  C   UNL     1       3.169   2.153  20.056  0.00  0.00    +0.000 C 
ENDROOT
BRANCH   1  13
ATOM     12  C   UNL     1       4.564   7.023  16.154  0.00  0.00    +0.000 C 
ATOM     13  C   UNL     1       4.673   7.068  17.675  0.00  0.00    +0.000 C 
ENDBRANCH   1  13
BRANCH   2  14
ATOM     14  S   UNL     1       6.980   5.280  18.611  0.00  0.00    +0.000 S 
BRANCH  14  15
ATOM     15  C   UNL     1       7.468   4.443  17.078  0.00  0.00    +0.000 C 
BRANCH  15  16
ATOM     16  C   UNL     1       7.524   5.357  15.864  0.00  0.00    +0.000 C 
ATOM     17  O   UNL     1       7.864   6.539  15.909  0.00  0.00    +0.000 OA
BRANCH  16  18
ATOM     18  C   UNL     1       7.102   4.788  14.543  0.00  0.00    +0.000 A 
ATOM     19  C   UNL     1       5.968   3.961  14.507  0.00  0.00    +0.000 A 
ATOM     20  C   UNL     1       5.531   3.407  13.301  0.00  0.00    +0.000 A 
ATOM     21  C   UNL     1       6.212   3.684  12.116  0.00  0.00    +0.000 A 
ATOM     22  C   UNL     1       7.332   4.514  12.139  0.00  0.00    +0.000 A 
ATOM     23  C   UNL     1       7.779   5.064  13.348  0.00  0.00    +0.000 A 
ENDBRANCH  16  18
ENDBRANCH  15  16
ENDBRANCH  14  15
ENDBRANCH   2  14
TORSDOF 5
ENDMDL
MODEL 3
REMARK VINA RESULT:      -7.0      2.571      3.997
REMARK  Name = 
REMARK  7 active torsions:
REMARK  status: ('A' for Active; 'I' for Inactive)
REMARK    1  A    between atoms: C_1  and  C_2
REMARK    2  A    between atoms: C_2  and  N_3
REMARK    3  A    between atoms: C_4  and  S_5
REMARK    4  A    between atoms: S_5  and  C_6
REMARK    5  A    between atoms: C_6  and  C_7
REMARK    6  A    between atoms: C_7  and  C_9
REMARK    7  A    between atoms: C_21  and  C_22
REMARK                            x       y       z     vdW  Elec       q    Type
REMARK                         _______ _______ _______ _____ _____    ______ ____
ROOT
ATOM      1  N   UNL     1       2.866   5.568  19.308  0.00  0.00    +0.000 N 
ATOM      2  C   UNL     1       3.394   5.997  18.087  0.00  0.00    +0.000 A 
ATOM      3  N   UNL     1       3.194   7.176  17.575  0.00  0.00    +0.000 NA
ATOM      4  C   UNL     1       2.467   8.051  18.335  0.00  0.00    +0.000 A 
ATOM      5  C   UNL     1       1.927   7.773  19.519  0.00  0.00    +0.000 A 
ATOM      6  C   UNL     1       2.051   6.415  20.060  0.00  0.00    +0.000 A 
ATOM      7  O   UNL     1       1.452   6.074  21.079  0.00  0.00    +0.000 OA
ATOM      8  S   UNL     1       1.102   9.060  20.298  0.00  0.00    +0.000 S 
ATOM      9  C   UNL     1       1.082  10.040  18.747  0.00  0.00    +0.000 C 
ATOM     10  C   UNL     1      -0.292   9.873  18.102  0.00  0.00    +0.000 C 
ATOM     11  C   UNL     1       2.227   9.466  17.884  0.00  0.00    +0.000 C 
ENDROOT
BRANCH   1  13
ATOM     12  C   UNL     1       2.018   3.227  19.357  0.00  0.00    +0.000 C 
ATOM     13  C   UNL     1       3.046   4.227  19.877  0.00  0.00    +0.000 C 
ENDBRANCH   1  13
BRANCH   2  14
ATOM     14  S   UNL     1       4.327   4.833  17.159  0.00  0.00    +0.000 S 
BRANCH  14  15
ATOM     15  C   UNL     1       5.781   5.789  16.649  0.00  0.00    +0.000 C 
BRANCH  15  16
ATOM     16  C   UNL     1       6.905   4.944  16.068  0.00  0.00    +0.000 C 
ATOM     17  O   UNL     1       7.851   4.514  16.727  0.00  0.00    +0.000 OA
BRANCH  16  18
ATOM     18  C   UNL     1       6.871   4.656  14.598  0.00  0.00    +0.000 A 
ATOM     19  C   UNL     1       7.769   5.341  13.765  0.00  0.00    +0.000 A 
ATOM     20  C   UNL     1       7.781   5.108  12.387  0.00  0.00    +0.000 A 
ATOM     21  C   UNL     1       6.906   4.177  11.828  0.00  0.00    +0.000 A 
ATOM     22  C   UNL     1       6.019   3.481  12.648  0.00  0.00    +0.000 A 
ATOM     23  C   UNL     1       5.999   3.719  14.029  0.00  0.00    +0.000 A 
ENDBRANCH  16  18
ENDBRANCH  15  16
ENDBRANCH  14  15
ENDBRANCH   2  14
TORSDOF 5
ENDMDL
MODEL 4
REMARK VINA RESULT:      -6.9      2.079      2.774
REMARK  Name = 
REMARK  7 active torsions:
REMARK  status: ('A' for Active; 'I' for Inactive)
REMARK    1  A    between atoms: C_1  and  C_2
REMARK    2  A    between atoms: C_2  and  N_3
REMARK    3  A    between atoms: C_4  and  S_5
REMARK    4  A    between atoms: S_5  and  C_6
REMARK    5  A    between atoms: C_6  and  C_7
REMARK    6  A    between atoms: C_7  and  C_9
REMARK    7  A    between atoms: C_21  and  C_22
REMARK                            x       y       z     vdW  Elec       q    Type
REMARK                         _______ _______ _______ _____ _____    ______ ____
ROOT
ATOM      1  N   UNL     1       5.883   4.714  17.826  0.00  0.00    +0.000 N 
ATOM      2  C   UNL     1       5.240   4.079  16.761  0.00  0.00    +0.000 A 
ATOM      3  N   UNL     1       3.971   3.798  16.731  0.00  0.00    +0.000 NA
ATOM      4  C   UNL     1       3.232   4.221  17.802  0.00  0.00    +0.000 A 
ATOM      5  C   UNL     1       3.718   4.852  18.868  0.00  0.00    +0.000 A 
ATOM      6  C   UNL     1       5.165   5.079  18.966  0.00  0.00    +0.000 A 
ATOM      7  O   UNL     1       5.675   5.529  19.991  0.00  0.00    +0.000 OA
ATOM      8  S   UNL     1       2.576   5.325  20.056  0.00  0.00    +0.000 S 
ATOM      9  C   UNL     1       1.294   4.244  19.314  0.00  0.00    +0.000 C 
ATOM     10  C   UNL     1       1.239   2.951  20.126  0.00  0.00    +0.000 C 
ATOM     11  C   UNL     1       1.743   4.020  17.853  0.00  0.00    +0.000 C 
ENDROOT
BRANCH   1  13
ATOM     12  C   UNL     1       7.639   6.475  17.686  0.00  0.00    +0.000 C 
ATOM     13  C   UNL     1       7.322   4.998  17.893  0.00  0.00    +0.000 C 
ENDBRANCH   1  13
BRANCH   2  14
ATOM     14  S   UNL     1       6.239   3.565  15.409  0.00  0.00    +0.000 S 
BRANCH  14  15
ATOM     15  C   UNL     1       6.467   5.096  14.464  0.00  0.00    +0.000 C 
BRANCH  15  16
ATOM     16  C   UNL     1       7.064   4.888  13.081  0.00  0.00    +0.000 C 
ATOM     17  O   UNL     1       7.877   5.652  12.562  0.00  0.00    +0.000 OA
BRANCH  16  18
ATOM     18  C   UNL     1       6.600   3.699  12.294  0.00  0.00    +0.000 A 
ATOM     19  C   UNL     1       7.567   2.808  11.803  0.00  0.00    +0.000 A 
ATOM     20  C   UNL     1       7.188   1.684  11.065  0.00  0.00    +0.000 A 
ATOM     21  C   UNL     1       5.839   1.429  10.822  0.00  0.00    +0.000 A 
ATOM     22  C   UNL     1       4.870   2.301  11.316  0.00  0.00    +0.000 A 
ATOM     23  C   UNL     1       5.247   3.434  12.049  0.00  0.00    +0.000 A 
ENDBRANCH  16  18
ENDBRANCH  15  16
ENDBRANCH  14  15
ENDBRANCH   2  14
TORSDOF 5
ENDMDL
MODEL 5
REMARK VINA RESULT:      -6.9      2.614      4.189
REMARK  Name = 
REMARK  7 active torsions:
REMARK  status: ('A' for Active; 'I' for Inactive)
REMARK    1  A    between atoms: C_1  and  C_2
REMARK    2  A    between atoms: C_2  and  N_3
REMARK    3  A    between atoms: C_4  and  S_5
REMARK    4  A    between atoms: S_5  and  C_6
REMARK    5  A    between atoms: C_6  and  C_7
REMARK    6  A    between atoms: C_7  and  C_9
REMARK    7  A    between atoms: C_21  and  C_22
REMARK                            x       y       z     vdW  Elec       q    Type
REMARK                         _______ _______ _______ _____ _____    ______ ____
ROOT
ATOM      1  N   UNL     1       2.851   5.760  19.350  0.00  0.00    +0.000 N 
ATOM      2  C   UNL     1       3.356   6.145  18.106  0.00  0.00    +0.000 A 
ATOM      3  N   UNL     1       3.130   7.298  17.547  0.00  0.00    +0.000 NA
ATOM      4  C   UNL     1       2.398   8.192  18.278  0.00  0.00    +0.000 A 
ATOM      5  C   UNL     1       1.877   7.956  19.480  0.00  0.00    +0.000 A 
ATOM      6  C   UNL     1       2.031   6.624  20.077  0.00  0.00    +0.000 A 
ATOM      7  O   UNL     1       1.450   6.317  21.116  0.00  0.00    +0.000 OA
ATOM      8  S   UNL     1       1.040   9.261  20.214  0.00  0.00    +0.000 S 
ATOM      9  C   UNL     1       0.984  10.174  18.624  0.00  0.00    +0.000 C 
ATOM     10  C   UNL     1      -0.394   9.957  18.004  0.00  0.00    +0.000 C 
ATOM     11  C   UNL     1       2.129   9.582  17.772  0.00  0.00    +0.000 C 
ENDROOT
BRANCH   1  13
ATOM     12  C   UNL     1       1.962   3.449  19.620  0.00  0.00    +0.000 C 
ATOM     13  C   UNL     1       3.060   4.447  19.973  0.00  0.00    +0.000 C 
ENDBRANCH   1  13
BRANCH   2  14
ATOM     14  S   UNL     1       4.298   4.958  17.216  0.00  0.00    +0.000 S 
BRANCH  14  15
ATOM     15  C   UNL     1       5.473   5.981  16.288  0.00  0.00    +0.000 C 
BRANCH  15  16
ATOM     16  C   UNL     1       6.719   5.236  15.834  0.00  0.00    +0.000 C 
ATOM     17  O   UNL     1       7.688   5.013  16.559  0.00  0.00    +0.000 OA
BRANCH  16  18
ATOM     18  C   UNL     1       6.778   4.784  14.406  0.00  0.00    +0.000 A 
ATOM     19  C   UNL     1       5.856   3.818  13.975  0.00  0.00    +0.000 A 
ATOM     20  C   UNL     1       5.867   3.364  12.653  0.00  0.00    +0.000 A 
ATOM     21  C   UNL     1       6.790   3.879  11.745  0.00  0.00    +0.000 A 
ATOM     22  C   UNL     1       7.703   4.848  12.159  0.00  0.00    +0.000 A 
ATOM     23  C   UNL     1       7.701   5.299  13.486  0.00  0.00    +0.000 A 
ENDBRANCH  16  18
ENDBRANCH  15  16
ENDBRANCH  14  15
ENDBRANCH   2  14
TORSDOF 5
ENDMDL
MODEL 6
REMARK VINA RESULT:      -6.9      1.586      1.749
REMARK  Name = 
REMARK  7 active torsions:
REMARK  status: ('A' for Active; 'I' for Inactive)
REMARK    1  A    between atoms: C_1  and  C_2
REMARK    2  A    between atoms: C_2  and  N_3
REMARK    3  A    between atoms: C_4  and  S_5
REMARK    4  A    between atoms: S_5  and  C_6
REMARK    5  A    between atoms: C_6  and  C_7
REMARK    6  A    between atoms: C_7  and  C_9
REMARK    7  A    between atoms: C_21  and  C_22
REMARK                            x       y       z     vdW  Elec       q    Type
REMARK                         _______ _______ _______ _____ _____    ______ ____
ROOT
ATOM      1  N   UNL     1       3.143   6.822  18.297  0.00  0.00    +0.000 N 
ATOM      2  C   UNL     1       3.827   5.909  17.489  0.00  0.00    +0.000 A 
ATOM      3  N   UNL     1       3.787   4.618  17.644  0.00  0.00    +0.000 NA
ATOM      4  C   UNL     1       2.963   4.152  18.632  0.00  0.00    +0.000 A 
ATOM      5  C   UNL     1       2.246   4.913  19.455  0.00  0.00    +0.000 A 
ATOM      6  C   UNL     1       2.364   6.373  19.365  0.00  0.00    +0.000 A 
ATOM      7  O   UNL     1       1.833   7.111  20.192  0.00  0.00    +0.000 OA
ATOM      8  S   UNL     1       1.250   4.085  20.580  0.00  0.00    +0.000 S 
ATOM      9  C   UNL     1       2.123   2.505  20.253  0.00  0.00    +0.000 C 
ATOM     10  C   UNL     1       3.143   2.291  21.369  0.00  0.00    +0.000 C 
ATOM     11  C   UNL     1       2.776   2.678  18.863  0.00  0.00    +0.000 C 
ENDROOT
BRANCH   1  13
ATOM     12  C   UNL     1       1.934   8.881  17.591  0.00  0.00    +0.000 C 
ATOM     13  C   UNL     1       3.214   8.282  18.163  0.00  0.00    +0.000 C 
ENDBRANCH   1  13
BRANCH   2  14
ATOM     14  S   UNL     1       4.862   6.565  16.231  0.00  0.00    +0.000 S 
BRANCH  14  15
ATOM     15  C   UNL     1       6.530   6.289  16.888  0.00  0.00    +0.000 C 
BRANCH  15  16
ATOM     16  C   UNL     1       7.210   5.042  16.346  0.00  0.00    +0.000 C 
ATOM     17  O   UNL     1       7.922   4.299  17.022  0.00  0.00    +0.000 OA
BRANCH  16  18
ATOM     18  C   UNL     1       7.031   4.726  14.891  0.00  0.00    +0.000 A 
ATOM     19  C   UNL     1       7.828   5.410  13.960  0.00  0.00    +0.000 A 
ATOM     20  C   UNL     1       7.702   5.152  12.592  0.00  0.00    +0.000 A 
ATOM     21  C   UNL     1       6.791   4.199  12.142  0.00  0.00    +0.000 A 
ATOM     22  C   UNL     1       6.004   3.504  13.059  0.00  0.00    +0.000 A 
ATOM     23  C   UNL     1       6.121   3.767  14.431  0.00  0.00    +0.000 A 
ENDBRANCH  16  18
ENDBRANCH  15  16
ENDBRANCH  14  15
ENDBRANCH   2  14
TORSDOF 5
ENDMDL
MODEL 7
REMARK VINA RESULT:      -6.9      4.436      7.875
REMARK  Name = 
REMARK  7 active torsions:
REMARK  status: ('A' for Active; 'I' for Inactive)
REMARK    1  A    between atoms: C_1  and  C_2
REMARK    2  A    between atoms: C_2  and  N_3
REMARK    3  A    between atoms: C_4  and  S_5
REMARK    4  A    between atoms: S_5  and  C_6
REMARK    5  A    between atoms: C_6  and  C_7
REMARK    6  A    between atoms: C_7  and  C_9
REMARK    7  A    between atoms: C_21  and  C_22
REMARK                            x       y       z     vdW  Elec       q    Type
REMARK                         _______ _______ _______ _____ _____    ______ ____
ROOT
ATOM      1  N   UNL     1       2.837   5.211  19.680  0.00  0.00    +0.000 N 
ATOM      2  C   UNL     1       2.729   6.543  19.274  0.00  0.00    +0.000 A 
ATOM      3  N   UNL     1       3.353   7.053  18.253  0.00  0.00    +0.000 NA
ATOM      4  C   UNL     1       4.107   6.186  17.511  0.00  0.00    +0.000 A 
ATOM      5  C   UNL     1       4.276   4.893  17.778  0.00  0.00    +0.000 A 
ATOM      6  C   UNL     1       3.667   4.328  18.988  0.00  0.00    +0.000 A 
ATOM      7  O   UNL     1       3.910   3.178  19.350  0.00  0.00    +0.000 OA
ATOM      8  S   UNL     1       5.231   4.006  16.663  0.00  0.00    +0.000 S 
ATOM      9  C   UNL     1       5.860   5.554  15.907  0.00  0.00    +0.000 C 
ATOM     10  C   UNL     1       7.242   5.837  16.492  0.00  0.00    +0.000 C 
ATOM     11  C   UNL     1       4.820   6.638  16.266  0.00  0.00    +0.000 C 
ENDROOT
BRANCH   1  13
ATOM     12  C   UNL     1       0.895   3.882  20.498  0.00  0.00    +0.000 C 
ATOM     13  C   UNL     1       2.174   4.633  20.856  0.00  0.00    +0.000 C 
ENDBRANCH   1  13
BRANCH   2  14
ATOM     14  S   UNL     1       1.739   7.608  20.261  0.00  0.00    +0.000 S 
BRANCH  14  15
ATOM     15  C   UNL     1       1.461   9.033  19.174  0.00  0.00    +0.000 C 
BRANCH  15  16
ATOM     16  C   UNL     1       0.555  10.098  19.769  0.00  0.00    +0.000 C 
ATOM     17  O   UNL     1       0.748  10.633  20.861  0.00  0.00    +0.000 OA
BRANCH  16  18
ATOM     18  C   UNL     1      -0.667  10.487  18.992  0.00  0.00    +0.000 A 
ATOM     19  C   UNL     1      -0.920   9.830  17.778  0.00  0.00    +0.000 A 
ATOM     20  C   UNL     1      -2.046  10.153  17.016  0.00  0.00    +0.000 A 
ATOM     21  C   UNL     1      -2.939  11.124  17.466  0.00  0.00    +0.000 A 
ATOM     22  C   UNL     1      -2.705  11.774  18.677  0.00  0.00    +0.000 A 
ATOM     23  C   UNL     1      -1.572  11.459  19.439  0.00  0.00    +0.000 A 
ENDBRANCH  16  18
ENDBRANCH  15  16
ENDBRANCH  14  15
ENDBRANCH   2  14
TORSDOF 5
ENDMDL
MODEL 8
REMARK VINA RESULT:      -6.9      4.498      7.915
REMARK  Name = 
REMARK  7 active torsions:
REMARK  status: ('A' for Active; 'I' for Inactive)
REMARK    1  A    between atoms: C_1  and  C_2
REMARK    2  A    between atoms: C_2  and  N_3
REMARK    3  A    between atoms: C_4  and  S_5
REMARK    4  A    between atoms: S_5  and  C_6
REMARK    5  A    between atoms: C_6  and  C_7
REMARK    6  A    between atoms: C_7  and  C_9
REMARK    7  A    between atoms: C_21  and  C_22
REMARK                            x       y       z     vdW  Elec       q    Type
REMARK                         _______ _______ _______ _____ _____    ______ ____
ROOT
ATOM      1  N   UNL     1       2.807   5.372  19.596  0.00  0.00    +0.000 N 
ATOM      2  C   UNL     1       2.731   6.693  19.148  0.00  0.00    +0.000 A 
ATOM      3  N   UNL     1       3.377   7.158  18.120  0.00  0.00    +0.000 NA
ATOM      4  C   UNL     1       4.123   6.254  17.415  0.00  0.00    +0.000 A 
ATOM      5  C   UNL     1       4.264   4.967  17.725  0.00  0.00    +0.000 A 
ATOM      6  C   UNL     1       3.629   4.452  18.943  0.00  0.00    +0.000 A 
ATOM      7  O   UNL     1       3.845   3.310  19.345  0.00  0.00    +0.000 OA
ATOM      8  S   UNL     1       5.215   4.027  16.651  0.00  0.00    +0.000 S 
ATOM      9  C   UNL     1       5.884   5.538  15.855  0.00  0.00    +0.000 C 
ATOM     10  C   UNL     1       7.264   5.812  16.449  0.00  0.00    +0.000 C 
ATOM     11  C   UNL     1       4.860   6.652  16.166  0.00  0.00    +0.000 C 
ENDROOT
BRANCH   1  13
ATOM     12  C   UNL     1       0.867   4.048  20.425  0.00  0.00    +0.000 C 
ATOM     13  C   UNL     1       2.118   4.844  20.781  0.00  0.00    +0.000 C 
ENDBRANCH   1  13
BRANCH   2  14
ATOM     14  S   UNL     1       1.749   7.807  20.087  0.00  0.00    +0.000 S 
BRANCH  14  15
ATOM     15  C   UNL     1       1.445   9.165  18.925  0.00  0.00    +0.000 C 
BRANCH  15  16
ATOM     16  C   UNL     1       0.539  10.257  19.471  0.00  0.00    +0.000 C 
ATOM     17  O   UNL     1       0.793  10.922  20.475  0.00  0.00    +0.000 OA
BRANCH  16  18
ATOM     18  C   UNL     1      -0.759  10.505  18.762  0.00  0.00    +0.000 A 
ATOM     19  C   UNL     1      -1.642  11.451  19.304  0.00  0.00    +0.000 A 
ATOM     20  C   UNL     1      -2.864  11.722  18.682  0.00  0.00    +0.000 A 
ATOM     21  C   UNL     1      -3.210  11.061  17.504  0.00  0.00    +0.000 A 
ATOM     22  C   UNL     1      -2.334  10.129  16.950  0.00  0.00    +0.000 A 
ATOM     23  C   UNL     1      -1.112   9.848  17.576  0.00  0.00    +0.000 A 
ENDBRANCH  16  18
ENDBRANCH  15  16
ENDBRANCH  14  15
ENDBRANCH   2  14
TORSDOF 5
ENDMDL
MODEL 9
REMARK VINA RESULT:      -6.8      1.577      2.002
REMARK  Name = 
REMARK  7 active torsions:
REMARK  status: ('A' for Active; 'I' for Inactive)
REMARK    1  A    between atoms: C_1  and  C_2
REMARK    2  A    between atoms: C_2  and  N_3
REMARK    3  A    between atoms: C_4  and  S_5
REMARK    4  A    between atoms: S_5  and  C_6
REMARK    5  A    between atoms: C_6  and  C_7
REMARK    6  A    between atoms: C_7  and  C_9
REMARK    7  A    between atoms: C_21  and  C_22
REMARK                            x       y       z     vdW  Elec       q    Type
REMARK                         _______ _______ _______ _____ _____    ______ ____
ROOT
ATOM      1  N   UNL     1       3.137   6.816  18.256  0.00  0.00    +0.000 N 
ATOM      2  C   UNL     1       3.819   5.898  17.454  0.00  0.00    +0.000 A 
ATOM      3  N   UNL     1       3.774   4.608  17.613  0.00  0.00    +0.000 NA
ATOM      4  C   UNL     1       2.946   4.149  18.601  0.00  0.00    +0.000 A 
ATOM      5  C   UNL     1       2.230   4.915  19.420  0.00  0.00    +0.000 A 
ATOM      6  C   UNL     1       2.354   6.374  19.324  0.00  0.00    +0.000 A 
ATOM      7  O   UNL     1       1.823   7.118  20.147  0.00  0.00    +0.000 OA
ATOM      8  S   UNL     1       1.228   4.095  20.544  0.00  0.00    +0.000 S 
ATOM      9  C   UNL     1       2.096   2.511  20.226  0.00  0.00    +0.000 C 
ATOM     10  C   UNL     1       3.113   2.298  21.345  0.00  0.00    +0.000 C 
ATOM     11  C   UNL     1       2.753   2.676  18.837  0.00  0.00    +0.000 C 
ENDROOT
BRANCH   1  13
ATOM     12  C   UNL     1       1.916   8.884  17.594  0.00  0.00    +0.000 C 
ATOM     13  C   UNL     1       3.214   8.276  18.117  0.00  0.00    +0.000 C 
ENDBRANCH   1  13
BRANCH   2  14
ATOM     14  S   UNL     1       4.860   6.546  16.195  0.00  0.00    +0.000 S 
BRANCH  14  15
ATOM     15  C   UNL     1       6.525   6.280  16.864  0.00  0.00    +0.000 C 
BRANCH  15  16
ATOM     16  C   UNL     1       7.222   5.045  16.316  0.00  0.00    +0.000 C 
ATOM     17  O   UNL     1       7.930   4.299  16.992  0.00  0.00    +0.000 OA
BRANCH  16  18
ATOM     18  C   UNL     1       7.067   4.748  14.854  0.00  0.00    +0.000 A 
ATOM     19  C   UNL     1       6.105   3.802  14.467  0.00  0.00    +0.000 A 
ATOM     20  C   UNL     1       5.918   3.490  13.118  0.00  0.00    +0.000 A 
ATOM     21  C   UNL     1       6.679   4.128  12.141  0.00  0.00    +0.000 A 
ATOM     22  C   UNL     1       7.629   5.079  12.513  0.00  0.00    +0.000 A 
ATOM     23  C   UNL     1       7.825   5.388  13.866  0.00  0.00    +0.000 A 
ENDBRANCH  16  18
ENDBRANCH  15  16
ENDBRANCH  14  15
ENDBRANCH   2  14
TORSDOF 5
ENDMDL
