MODEL 1
REMARK VINA RESULT:      -8.1      0.000      0.000
REMARK  Name = 
REMARK  10 active torsions:
REMARK  status: ('A' for Active; 'I' for Inactive)
REMARK    1  A    between atoms: C_1  and  C_2
REMARK    2  A    between atoms: C_2  and  O_3
REMARK    3  A    between atoms: O_3  and  C_4
REMARK    4  A    between atoms: C_4  and  C_6
REMARK    5  A    between atoms: C_6  and  S_7
REMARK    6  A    between atoms: S_7  and  C_8
REMARK    7  A    between atoms: N_21  and  C_22
REMARK    8  A    between atoms: C_22  and  C_23
REMARK    9  A    between atoms: C_23  and  C_24
REMARK   10  A    between atoms: C_24  and  N_25
REMARK                            x       y       z     vdW  Elec       q    Type
REMARK                         _______ _______ _______ _____ _____    ______ ____
ROOT
ATOM      1  C   UNL     1       1.845   7.028  20.173  0.00  0.00    +0.000 A 
ATOM      2  N   UNL     1       1.148   7.705  21.031  0.00  0.00    +0.000 NA
ATOM      3  C   UNL     1       0.727   8.963  20.616  0.00  0.00    +0.000 A 
ATOM      4  C   UNL     1       1.009   9.446  19.382  0.00  0.00    +0.000 A 
ATOM      5  S   UNL     1       0.401  11.006  19.155  0.00  0.00    +0.000 S 
ATOM      6  C   UNL     1      -0.251  11.048  20.759  0.00  0.00    +0.000 A 
ATOM      7  C   UNL     1      -0.945  12.109  21.366  0.00  0.00    +0.000 A 
ATOM      8  C   UNL     1      -1.402  11.948  22.678  0.00  0.00    +0.000 A 
ATOM      9  C   UNL     1      -1.176  10.769  23.372  0.00  0.00    +0.000 A 
ATOM     10  C   UNL     1      -0.482   9.718  22.770  0.00  0.00    +0.000 A 
ATOM     11  C   UNL     1      -0.007   9.850  21.443  0.00  0.00    +0.000 A 
ATOM     12  C   UNL     1       1.752   8.708  18.410  0.00  0.00    +0.000 A 
ATOM     13  O   UNL     1       2.001   9.128  17.282  0.00  0.00    +0.000 OA
ATOM     14  N   UNL     1       2.186   7.438  18.867  0.00  0.00    +0.000 N 
ENDROOT
BRANCH   1  15
ATOM     15  S   UNL     1       2.359   5.470  20.787  0.00  0.00    +0.000 S 
BRANCH  15  16
ATOM     16  C   UNL     1       0.994   4.357  20.356  0.00  0.00    +0.000 C 
BRANCH  16  17
ATOM     17  C   UNL     1       1.343   2.981  20.875  0.00  0.00    +0.000 C 
ATOM     18  O   UNL     1       1.382   2.682  22.064  0.00  0.00    +0.000 OA
BRANCH  17  19
ATOM     19  O   UNL     1       1.732   2.173  19.848  0.00  0.00    +0.000 OA
BRANCH  19  21
ATOM     20  C   UNL     1       2.549   2.451  17.616  0.00  0.00    +0.000 C 
ATOM     21  C   UNL     1       1.352   2.613  18.538  0.00  0.00    +0.000 C 
ENDBRANCH  19  21
ENDBRANCH  17  19
ENDBRANCH  16  17
ENDBRANCH  15  16
ENDBRANCH   1  15
BRANCH  14  22
ATOM     22  C   UNL     1       2.974   6.744  17.813  0.00  0.00    +0.000 C 
BRANCH  22  23
ATOM     23  C   UNL     1       4.395   7.175  17.533  0.00  0.00    +0.000 C 
BRANCH  23  24
ATOM     24  C   UNL     1       5.104   6.449  16.396  0.00  0.00    +0.000 C 
BRANCH  24  25
ATOM     25  N   UNL     1       5.170   5.007  16.714  0.00  0.00    +0.000 NA
ATOM     26  C   UNL     1       5.987   4.685  17.911  0.00  0.00    +0.000 C 
ATOM     27  C   UNL     1       7.487   4.920  17.694  0.00  0.00    +0.000 C 
ATOM     28  O   UNL     1       7.968   4.124  16.603  0.00  0.00    +0.000 OA
ATOM     29  C   UNL     1       7.237   4.395  15.399  0.00  0.00    +0.000 C 
ATOM     30  C   UNL     1       5.718   4.222  15.589  0.00  0.00    +0.000 C 
ENDBRANCH  24  25
ENDBRANCH  23  24
ENDBRANCH  22  23
ENDBRANCH  14  22
TORSDOF 9
ENDMDL
MODEL 2
REMARK VINA RESULT:      -7.8      0.720      1.184
REMARK  Name = 
REMARK  10 active torsions:
REMARK  status: ('A' for Active; 'I' for Inactive)
REMARK    1  A    between atoms: C_1  and  C_2
REMARK    2  A    between atoms: C_2  and  O_3
REMARK    3  A    between atoms: O_3  and  C_4
REMARK    4  A    between atoms: C_4  and  C_6
REMARK    5  A    between atoms: C_6  and  S_7
REMARK    6  A    between atoms: S_7  and  C_8
REMARK    7  A    between atoms: N_21  and  C_22
REMARK    8  A    between atoms: C_22  and  C_23
REMARK    9  A    between atoms: C_23  and  C_24
REMARK   10  A    between atoms: C_24  and  N_25
REMARK                            x       y       z     vdW  Elec       q    Type
REMARK                         _______ _______ _______ _____ _____    ______ ____
ROOT
ATOM      1  C   UNL     1       1.932   7.283  20.155  0.00  0.00    +0.000 A 
ATOM      2  N   UNL     1       1.183   7.922  20.998  0.00  0.00    +0.000 NA
ATOM      3  C   UNL     1       0.714   9.161  20.577  0.00  0.00    +0.000 A 
ATOM      4  C   UNL     1       1.003   9.663  19.351  0.00  0.00    +0.000 A 
ATOM      5  S   UNL     1       0.328  11.194  19.115  0.00  0.00    +0.000 S 
ATOM      6  C   UNL     1      -0.365  11.197  20.702  0.00  0.00    +0.000 A 
ATOM      7  C   UNL     1      -1.122  12.222  21.295  0.00  0.00    +0.000 A 
ATOM      8  C   UNL     1      -1.603  12.034  22.595  0.00  0.00    +0.000 A 
ATOM      9  C   UNL     1      -1.339  10.864  23.290  0.00  0.00    +0.000 A 
ATOM     10  C   UNL     1      -0.582   9.849  22.703  0.00  0.00    +0.000 A 
ATOM     11  C   UNL     1      -0.081  10.010  21.388  0.00  0.00    +0.000 A 
ATOM     12  C   UNL     1       1.804   8.965  18.396  0.00  0.00    +0.000 A 
ATOM     13  O   UNL     1       2.060   9.401  17.276  0.00  0.00    +0.000 OA
ATOM     14  N   UNL     1       2.286   7.715  18.859  0.00  0.00    +0.000 N 
ENDROOT
BRANCH   1  15
ATOM     15  S   UNL     1       2.504   5.749  20.777  0.00  0.00    +0.000 S 
BRANCH  15  16
ATOM     16  C   UNL     1       1.094   4.631  20.549  0.00  0.00    +0.000 C 
BRANCH  16  17
ATOM     17  C   UNL     1       1.573   3.226  20.830  0.00  0.00    +0.000 C 
ATOM     18  O   UNL     1       1.174   2.534  21.762  0.00  0.00    +0.000 OA
BRANCH  17  19
ATOM     19  O   UNL     1       2.594   2.896  19.989  0.00  0.00    +0.000 OA
BRANCH  19  21
ATOM     20  C   UNL     1       3.538   1.459  18.324  0.00  0.00    +0.000 C 
ATOM     21  C   UNL     1       2.251   2.002  18.922  0.00  0.00    +0.000 C 
ENDBRANCH  19  21
ENDBRANCH  17  19
ENDBRANCH  16  17
ENDBRANCH  15  16
ENDBRANCH   1  15
BRANCH  14  22
ATOM     22  C   UNL     1       3.131   7.063  17.823  0.00  0.00    +0.000 C 
BRANCH  22  23
ATOM     23  C   UNL     1       3.070   5.565  17.639  0.00  0.00    +0.000 C 
BRANCH  23  24
ATOM     24  C   UNL     1       4.405   4.861  17.426  0.00  0.00    +0.000 C 
BRANCH  24  25
ATOM     25  N   UNL     1       5.411   5.857  17.004  0.00  0.00    +0.000 NA
ATOM     26  C   UNL     1       5.906   5.674  15.616  0.00  0.00    +0.000 C 
ATOM     27  C   UNL     1       6.772   4.419  15.449  0.00  0.00    +0.000 C 
ATOM     28  O   UNL     1       7.910   4.474  16.320  0.00  0.00    +0.000 OA
ATOM     29  C   UNL     1       7.510   4.631  17.688  0.00  0.00    +0.000 C 
ATOM     30  C   UNL     1       6.593   5.852  17.891  0.00  0.00    +0.000 C 
ENDBRANCH  24  25
ENDBRANCH  23  24
ENDBRANCH  22  23
ENDBRANCH  14  22
TORSDOF 9
ENDMDL
MODEL 3
REMARK VINA RESULT:      -7.6      0.796      1.222
REMARK  Name = 
REMARK  10 active torsions:
REMARK  status: ('A' for Active; 'I' for Inactive)
REMARK    1  A    between atoms: C_1  and  C_2
REMARK    2  A    between atoms: C_2  and  O_3
REMARK    3  A    between atoms: O_3  and  C_4
REMARK    4  A    between atoms: C_4  and  C_6
REMARK    5  A    between atoms: C_6  and  S_7
REMARK    6  A    between atoms: S_7  and  C_8
REMARK    7  A    between atoms: N_21  and  C_22
REMARK    8  A    between atoms: C_22  and  C_23
REMARK    9  A    between atoms: C_23  and  C_24
REMARK   10  A    between atoms: C_24  and  N_25
REMARK                            x       y       z     vdW  Elec       q    Type
REMARK                         _______ _______ _______ _____ _____    ______ ____
ROOT
ATOM      1  C   UNL     1       2.037   6.910  19.997  0.00  0.00    +0.000 A 
ATOM      2  N   UNL     1       1.327   7.552  20.871  0.00  0.00    +0.000 NA
ATOM      3  C   UNL     1       0.911   8.826  20.500  0.00  0.00    +0.000 A 
ATOM      4  C   UNL     1       1.210   9.358  19.290  0.00  0.00    +0.000 A 
ATOM      5  S   UNL     1       0.605  10.925  19.117  0.00  0.00    +0.000 S 
ATOM      6  C   UNL     1      -0.071  10.903  20.712  0.00  0.00    +0.000 A 
ATOM      7  C   UNL     1      -0.775  11.938  21.350  0.00  0.00    +0.000 A 
ATOM      8  C   UNL     1      -1.250  11.725  22.648  0.00  0.00    +0.000 A 
ATOM      9  C   UNL     1      -1.033  10.520  23.298  0.00  0.00    +0.000 A 
ATOM     10  C   UNL     1      -0.330   9.494  22.665  0.00  0.00    +0.000 A 
ATOM     11  C   UNL     1       0.165   9.679  21.351  0.00  0.00    +0.000 A 
ATOM     12  C   UNL     1       1.968   8.659  18.301  0.00  0.00    +0.000 A 
ATOM     13  O   UNL     1       2.233   9.124  17.194  0.00  0.00    +0.000 OA
ATOM     14  N   UNL     1       2.397   7.372  18.713  0.00  0.00    +0.000 N 
ENDROOT
BRANCH   1  15
ATOM     15  S   UNL     1       2.544   5.330  20.556  0.00  0.00    +0.000 S 
BRANCH  15  16
ATOM     16  C   UNL     1       1.050   4.313  20.410  0.00  0.00    +0.000 C 
BRANCH  16  17
ATOM     17  C   UNL     1       1.396   2.919  20.879  0.00  0.00    +0.000 C 
ATOM     18  O   UNL     1       1.914   2.664  21.961  0.00  0.00    +0.000 OA
BRANCH  17  19
ATOM     19  O   UNL     1       1.174   2.015  19.882  0.00  0.00    +0.000 OA
BRANCH  19  21
ATOM     20  C   UNL     1       3.224   1.714  18.684  0.00  0.00    +0.000 C 
ATOM     21  C   UNL     1       1.823   2.299  18.636  0.00  0.00    +0.000 C 
ENDBRANCH  19  21
ENDBRANCH  17  19
ENDBRANCH  16  17
ENDBRANCH  15  16
ENDBRANCH   1  15
BRANCH  14  22
ATOM     22  C   UNL     1       3.200   6.721  17.644  0.00  0.00    +0.000 C 
BRANCH  22  23
ATOM     23  C   UNL     1       4.709   6.725  17.732  0.00  0.00    +0.000 C 
BRANCH  23  24
ATOM     24  C   UNL     1       5.458   6.719  16.404  0.00  0.00    +0.000 C 
BRANCH  24  25
ATOM     25  N   UNL     1       6.602   5.789  16.503  0.00  0.00    +0.000 NA
ATOM     26  C   UNL     1       7.156   5.364  15.193  0.00  0.00    +0.000 C 
ATOM     27  C   UNL     1       6.208   4.446  14.410  0.00  0.00    +0.000 C 
ATOM     28  O   UNL     1       5.911   3.266  15.168  0.00  0.00    +0.000 OA
ATOM     29  C   UNL     1       5.350   3.597  16.446  0.00  0.00    +0.000 C 
ATOM     30  C   UNL     1       6.247   4.560  17.244  0.00  0.00    +0.000 C 
ENDBRANCH  24  25
ENDBRANCH  23  24
ENDBRANCH  22  23
ENDBRANCH  14  22
TORSDOF 9
ENDMDL
MODEL 4
REMARK VINA RESULT:      -7.6      1.290      1.631
REMARK  Name = 
REMARK  10 active torsions:
REMARK  status: ('A' for Active; 'I' for Inactive)
REMARK    1  A    between atoms: C_1  and  C_2
REMARK    2  A    between atoms: C_2  and  O_3
REMARK    3  A    between atoms: O_3  and  C_4
REMARK    4  A    between atoms: C_4  and  C_6
REMARK    5  A    between atoms: C_6  and  S_7
REMARK    6  A    between atoms: S_7  and  C_8
REMARK    7  A    between atoms: N_21  and  C_22
REMARK    8  A    between atoms: C_22  and  C_23
REMARK    9  A    between atoms: C_23  and  C_24
REMARK   10  A    between atoms: C_24  and  N_25
REMARK                            x       y       z     vdW  Elec       q    Type
REMARK                         _______ _______ _______ _____ _____    ______ ____
ROOT
ATOM      1  C   UNL     1       1.973   6.303  20.180  0.00  0.00    +0.000 A 
ATOM      2  N   UNL     1       1.286   7.050  20.987  0.00  0.00    +0.000 NA
ATOM      3  C   UNL     1       1.076   8.360  20.574  0.00  0.00    +0.000 A 
ATOM      4  C   UNL     1       1.542   8.826  19.390  0.00  0.00    +0.000 A 
ATOM      5  S   UNL     1       1.168  10.457  19.155  0.00  0.00    +0.000 S 
ATOM      6  C   UNL     1       0.367  10.553  20.688  0.00  0.00    +0.000 A 
ATOM      7  C   UNL     1      -0.241  11.685  21.258  0.00  0.00    +0.000 A 
ATOM      8  C   UNL     1      -0.846  11.560  22.514  0.00  0.00    +0.000 A 
ATOM      9  C   UNL     1      -0.846  10.349  23.187  0.00  0.00    +0.000 A 
ATOM     10  C   UNL     1      -0.238   9.227  22.623  0.00  0.00    +0.000 A 
ATOM     11  C   UNL     1       0.383   9.321  21.353  0.00  0.00    +0.000 A 
ATOM     12  C   UNL     1       2.278   8.015  18.472  0.00  0.00    +0.000 A 
ATOM     13  O   UNL     1       2.693   8.421  17.389  0.00  0.00    +0.000 OA
ATOM     14  N   UNL     1       2.496   6.690  18.928  0.00  0.00    +0.000 N 
ENDROOT
BRANCH   1  15
ATOM     15  S   UNL     1       2.216   4.680  20.791  0.00  0.00    +0.000 S 
BRANCH  15  16
ATOM     16  C   UNL     1       0.702   3.803  20.316  0.00  0.00    +0.000 C 
BRANCH  16  17
ATOM     17  C   UNL     1       1.090   2.707  19.350  0.00  0.00    +0.000 C 
ATOM     18  O   UNL     1       0.300   2.124  18.615  0.00  0.00    +0.000 OA
BRANCH  17  19
ATOM     19  O   UNL     1       2.403   2.378  19.511  0.00  0.00    +0.000 OA
BRANCH  19  21
ATOM     20  C   UNL     1       2.849   2.329  17.160  0.00  0.00    +0.000 C 
ATOM     21  C   UNL     1       2.969   1.570  18.471  0.00  0.00    +0.000 C 
ENDBRANCH  19  21
ENDBRANCH  17  19
ENDBRANCH  16  17
ENDBRANCH  15  16
ENDBRANCH   1  15
BRANCH  14  22
ATOM     22  C   UNL     1       3.289   5.919  17.934  0.00  0.00    +0.000 C 
BRANCH  22  23
ATOM     23  C   UNL     1       4.415   5.026  18.404  0.00  0.00    +0.000 C 
BRANCH  23  24
ATOM     24  C   UNL     1       5.493   5.696  19.248  0.00  0.00    +0.000 C 
BRANCH  24  25
ATOM     25  N   UNL     1       6.816   5.190  18.826  0.00  0.00    +0.000 NA
ATOM     26  C   UNL     1       7.906   6.195  18.904  0.00  0.00    +0.000 C 
ATOM     27  C   UNL     1       7.767   7.312  17.861  0.00  0.00    +0.000 C 
ATOM     28  O   UNL     1       7.764   6.765  16.536  0.00  0.00    +0.000 OA
ATOM     29  C   UNL     1       6.720   5.794  16.376  0.00  0.00    +0.000 C 
ATOM     30  C   UNL     1       6.791   4.682  17.439  0.00  0.00    +0.000 C 
ENDBRANCH  24  25
ENDBRANCH  23  24
ENDBRANCH  22  23
ENDBRANCH  14  22
TORSDOF 9
ENDMDL
MODEL 5
REMARK VINA RESULT:      -7.5      0.943      1.399
REMARK  Name = 
REMARK  10 active torsions:
REMARK  status: ('A' for Active; 'I' for Inactive)
REMARK    1  A    between atoms: C_1  and  C_2
REMARK    2  A    between atoms: C_2  and  O_3
REMARK    3  A    between atoms: O_3  and  C_4
REMARK    4  A    between atoms: C_4  and  C_6
REMARK    5  A    between atoms: C_6  and  S_7
REMARK    6  A    between atoms: S_7  and  C_8
REMARK    7  A    between atoms: N_21  and  C_22
REMARK    8  A    between atoms: C_22  and  C_23
REMARK    9  A    between atoms: C_23  and  C_24
REMARK   10  A    between atoms: C_24  and  N_25
REMARK                            x       y       z     vdW  Elec       q    Type
REMARK                         _______ _______ _______ _____ _____    ______ ____
ROOT
ATOM      1  C   UNL     1       2.032   6.753  20.043  0.00  0.00    +0.000 A 
ATOM      2  N   UNL     1       1.373   7.453  20.912  0.00  0.00    +0.000 NA
ATOM      3  C   UNL     1       0.988   8.725  20.503  0.00  0.00    +0.000 A 
ATOM      4  C   UNL     1       1.266   9.198  19.263  0.00  0.00    +0.000 A 
ATOM      5  S   UNL     1       0.709  10.778  19.045  0.00  0.00    +0.000 S 
ATOM      6  C   UNL     1       0.084  10.842  20.659  0.00  0.00    +0.000 A 
ATOM      7  C   UNL     1      -0.564  11.926  21.276  0.00  0.00    +0.000 A 
ATOM      8  C   UNL     1      -1.004  11.782  22.596  0.00  0.00    +0.000 A 
ATOM      9  C   UNL     1      -0.808  10.597  23.287  0.00  0.00    +0.000 A 
ATOM     10  C   UNL     1      -0.160   9.522  22.675  0.00  0.00    +0.000 A 
ATOM     11  C   UNL     1       0.298   9.637  21.340  0.00  0.00    +0.000 A 
ATOM     12  C   UNL     1       1.968   8.435  18.280  0.00  0.00    +0.000 A 
ATOM     13  O   UNL     1       2.213   8.845  17.149  0.00  0.00    +0.000 OA
ATOM     14  N   UNL     1       2.366   7.151  18.732  0.00  0.00    +0.000 N 
ENDROOT
BRANCH   1  15
ATOM     15  S   UNL     1       2.503   5.179  20.651  0.00  0.00    +0.000 S 
BRANCH  15  16
ATOM     16  C   UNL     1       1.142   4.091  20.151  0.00  0.00    +0.000 C 
BRANCH  16  17
ATOM     17  C   UNL     1       1.425   2.716  20.710  0.00  0.00    +0.000 C 
ATOM     18  O   UNL     1       1.642   2.485  21.895  0.00  0.00    +0.000 OA
BRANCH  17  19
ATOM     19  O   UNL     1       1.532   1.807  19.699  0.00  0.00    +0.000 OA
BRANCH  19  21
ATOM     20  C   UNL     1       3.325   1.836  18.115  0.00  0.00    +0.000 C 
ATOM     21  C   UNL     1       1.927   2.340  18.428  0.00  0.00    +0.000 C 
ENDBRANCH  19  21
ENDBRANCH  17  19
ENDBRANCH  16  17
ENDBRANCH  15  16
ENDBRANCH   1  15
BRANCH  14  22
ATOM     22  C   UNL     1       3.113   6.430  17.666  0.00  0.00    +0.000 C 
BRANCH  22  23
ATOM     23  C   UNL     1       4.412   6.999  17.145  0.00  0.00    +0.000 C 
BRANCH  23  24
ATOM     24  C   UNL     1       5.548   7.111  18.155  0.00  0.00    +0.000 C 
BRANCH  24  25
ATOM     25  N   UNL     1       6.836   6.968  17.446  0.00  0.00    +0.000 NA
ATOM     26  C   UNL     1       6.914   5.782  16.557  0.00  0.00    +0.000 C 
ATOM     27  C   UNL     1       6.952   4.456  17.329  0.00  0.00    +0.000 C 
ATOM     28  O   UNL     1       8.079   4.420  18.213  0.00  0.00    +0.000 OA
ATOM     29  C   UNL     1       8.064   5.531  19.120  0.00  0.00    +0.000 C 
ATOM     30  C   UNL     1       7.973   6.881  18.387  0.00  0.00    +0.000 C 
ENDBRANCH  24  25
ENDBRANCH  23  24
ENDBRANCH  22  23
ENDBRANCH  14  22
TORSDOF 9
ENDMDL
MODEL 6
REMARK VINA RESULT:      -7.3      1.135      1.303
REMARK  Name = 
REMARK  10 active torsions:
REMARK  status: ('A' for Active; 'I' for Inactive)
REMARK    1  A    between atoms: C_1  and  C_2
REMARK    2  A    between atoms: C_2  and  O_3
REMARK    3  A    between atoms: O_3  and  C_4
REMARK    4  A    between atoms: C_4  and  C_6
REMARK    5  A    between atoms: C_6  and  S_7
REMARK    6  A    between atoms: S_7  and  C_8
REMARK    7  A    between atoms: N_21  and  C_22
REMARK    8  A    between atoms: C_22  and  C_23
REMARK    9  A    between atoms: C_23  and  C_24
REMARK   10  A    between atoms: C_24  and  N_25
REMARK                            x       y       z     vdW  Elec       q    Type
REMARK                         _______ _______ _______ _____ _____    ______ ____
ROOT
ATOM      1  C   UNL     1       1.996   7.031  20.028  0.00  0.00    +0.000 A 
ATOM      2  N   UNL     1       1.305   7.678  20.914  0.00  0.00    +0.000 NA
ATOM      3  C   UNL     1       0.858   8.939  20.534  0.00  0.00    +0.000 A 
ATOM      4  C   UNL     1       1.110   9.453  19.306  0.00  0.00    +0.000 A 
ATOM      5  S   UNL     1       0.475  11.008  19.124  0.00  0.00    +0.000 S 
ATOM      6  C   UNL     1      -0.147  11.005  20.741  0.00  0.00    +0.000 A 
ATOM      7  C   UNL     1      -0.845  12.042  21.384  0.00  0.00    +0.000 A 
ATOM      8  C   UNL     1      -1.274  11.846  22.701  0.00  0.00    +0.000 A 
ATOM      9  C   UNL     1      -1.018  10.656  23.364  0.00  0.00    +0.000 A 
ATOM     10  C   UNL     1      -0.321   9.629  22.726  0.00  0.00    +0.000 A 
ATOM     11  C   UNL     1       0.127   9.797  21.393  0.00  0.00    +0.000 A 
ATOM     12  C   UNL     1       1.845   8.747  18.304  0.00  0.00    +0.000 A 
ATOM     13  O   UNL     1       2.067   9.195  17.182  0.00  0.00    +0.000 OA
ATOM     14  N   UNL     1       2.307   7.474  18.725  0.00  0.00    +0.000 N 
ENDROOT
BRANCH   1  15
ATOM     15  S   UNL     1       2.545   5.468  20.599  0.00  0.00    +0.000 S 
BRANCH  15  16
ATOM     16  C   UNL     1       1.196   4.341  20.153  0.00  0.00    +0.000 C 
BRANCH  16  17
ATOM     17  C   UNL     1       1.619   3.588  18.912  0.00  0.00    +0.000 C 
ATOM     18  O   UNL     1       0.840   3.038  18.141  0.00  0.00    +0.000 OA
BRANCH  17  19
ATOM     19  O   UNL     1       2.978   3.499  18.853  0.00  0.00    +0.000 OA
BRANCH  19  21
ATOM     20  C   UNL     1       3.774   1.278  18.450  0.00  0.00    +0.000 C 
ATOM     21  C   UNL     1       3.551   2.355  19.499  0.00  0.00    +0.000 C 
ENDBRANCH  19  21
ENDBRANCH  17  19
ENDBRANCH  16  17
ENDBRANCH  15  16
ENDBRANCH   1  15
BRANCH  14  22
ATOM     22  C   UNL     1       3.084   6.815  17.642  0.00  0.00    +0.000 C 
BRANCH  22  23
ATOM     23  C   UNL     1       4.259   7.533  17.019  0.00  0.00    +0.000 C 
BRANCH  23  24
ATOM     24  C   UNL     1       5.639   6.979  17.357  0.00  0.00    +0.000 C 
BRANCH  24  25
ATOM     25  N   UNL     1       5.481   5.654  17.992  0.00  0.00    +0.000 NA
ATOM     26  C   UNL     1       6.218   5.501  19.272  0.00  0.00    +0.000 C 
ATOM     27  C   UNL     1       7.740   5.464  19.086  0.00  0.00    +0.000 C 
ATOM     28  O   UNL     1       8.116   4.379  18.228  0.00  0.00    +0.000 OA
ATOM     29  C   UNL     1       7.456   4.470  16.957  0.00  0.00    +0.000 C 
ATOM     30  C   UNL     1       5.926   4.563  17.101  0.00  0.00    +0.000 C 
ENDBRANCH  24  25
ENDBRANCH  23  24
ENDBRANCH  22  23
ENDBRANCH  14  22
TORSDOF 9
ENDMDL
MODEL 7
REMARK VINA RESULT:      -7.2      1.063      1.559
REMARK  Name = 
REMARK  10 active torsions:
REMARK  status: ('A' for Active; 'I' for Inactive)
REMARK    1  A    between atoms: C_1  and  C_2
REMARK    2  A    between atoms: C_2  and  O_3
REMARK    3  A    between atoms: O_3  and  C_4
REMARK    4  A    between atoms: C_4  and  C_6
REMARK    5  A    between atoms: C_6  and  S_7
REMARK    6  A    between atoms: S_7  and  C_8
REMARK    7  A    between atoms: N_21  and  C_22
REMARK    8  A    between atoms: C_22  and  C_23
REMARK    9  A    between atoms: C_23  and  C_24
REMARK   10  A    between atoms: C_24  and  N_25
REMARK                            x       y       z     vdW  Elec       q    Type
REMARK                         _______ _______ _______ _____ _____    ______ ____
ROOT
ATOM      1  C   UNL     1       1.779   7.055  20.088  0.00  0.00    +0.000 A 
ATOM      2  N   UNL     1       1.098   7.735  20.957  0.00  0.00    +0.000 NA
ATOM      3  C   UNL     1       0.732   9.020  20.572  0.00  0.00    +0.000 A 
ATOM      4  C   UNL     1       1.049   9.526  19.355  0.00  0.00    +0.000 A 
ATOM      5  S   UNL     1       0.506  11.114  19.165  0.00  0.00    +0.000 S 
ATOM      6  C   UNL     1      -0.166  11.137  20.762  0.00  0.00    +0.000 A 
ATOM      7  C   UNL     1      -0.826  12.207  21.389  0.00  0.00    +0.000 A 
ATOM      8  C   UNL     1      -1.306  12.028  22.691  0.00  0.00    +0.000 A 
ATOM      9  C   UNL     1      -1.136  10.823  23.354  0.00  0.00    +0.000 A 
ATOM     10  C   UNL     1      -0.476   9.762  22.731  0.00  0.00    +0.000 A 
ATOM     11  C   UNL     1       0.022   9.912  21.414  0.00  0.00    +0.000 A 
ATOM     12  C   UNL     1       1.776   8.786  18.372  0.00  0.00    +0.000 A 
ATOM     13  O   UNL     1       2.056   9.227  17.260  0.00  0.00    +0.000 OA
ATOM     14  N   UNL     1       2.154   7.488  18.799  0.00  0.00    +0.000 N 
ENDROOT
BRANCH   1  15
ATOM     15  S   UNL     1       2.225   5.462  20.665  0.00  0.00    +0.000 S 
BRANCH  15  16
ATOM     16  C   UNL     1       0.874   4.397  20.092  0.00  0.00    +0.000 C 
BRANCH  16  17
ATOM     17  C   UNL     1       1.464   3.378  19.144  0.00  0.00    +0.000 C 
ATOM     18  O   UNL     1       0.892   2.351  18.792  0.00  0.00    +0.000 OA
BRANCH  17  19
ATOM     19  O   UNL     1       2.755   3.699  18.848  0.00  0.00    +0.000 OA
BRANCH  19  21
ATOM     20  C   UNL     1       4.181   2.279  20.143  0.00  0.00    +0.000 C 
ATOM     21  C   UNL     1       3.661   2.592  18.751  0.00  0.00    +0.000 C 
ENDBRANCH  19  21
ENDBRANCH  17  19
ENDBRANCH  16  17
ENDBRANCH  15  16
ENDBRANCH   1  15
BRANCH  14  22
ATOM     22  C   UNL     1       2.928   6.793  17.736  0.00  0.00    +0.000 C 
BRANCH  22  23
ATOM     23  C   UNL     1       4.358   7.199  17.463  0.00  0.00    +0.000 C 
BRANCH  23  24
ATOM     24  C   UNL     1       5.073   6.431  16.356  0.00  0.00    +0.000 C 
BRANCH  24  25
ATOM     25  N   UNL     1       6.530   6.634  16.496  0.00  0.00    +0.000 NA
ATOM     26  C   UNL     1       7.356   5.582  15.852  0.00  0.00    +0.000 C 
ATOM     27  C   UNL     1       7.265   4.227  16.566  0.00  0.00    +0.000 C 
ATOM     28  O   UNL     1       7.689   4.349  17.930  0.00  0.00    +0.000 OA
ATOM     29  C   UNL     1       6.920   5.338  18.627  0.00  0.00    +0.000 C 
ATOM     30  C   UNL     1       6.941   6.702  17.913  0.00  0.00    +0.000 C 
ENDBRANCH  24  25
ENDBRANCH  23  24
ENDBRANCH  22  23
ENDBRANCH  14  22
TORSDOF 9
ENDMDL
MODEL 8
REMARK VINA RESULT:      -7.2      0.872      1.437
REMARK  Name = 
REMARK  10 active torsions:
REMARK  status: ('A' for Active; 'I' for Inactive)
REMARK    1  A    between atoms: C_1  and  C_2
REMARK    2  A    between atoms: C_2  and  O_3
REMARK    3  A    between atoms: O_3  and  C_4
REMARK    4  A    between atoms: C_4  and  C_6
REMARK    5  A    between atoms: C_6  and  S_7
REMARK    6  A    between atoms: S_7  and  C_8
REMARK    7  A    between atoms: N_21  and  C_22
REMARK    8  A    between atoms: C_22  and  C_23
REMARK    9  A    between atoms: C_23  and  C_24
REMARK   10  A    between atoms: C_24  and  N_25
REMARK                            x       y       z     vdW  Elec       q    Type
REMARK                         _______ _______ _______ _____ _____    ______ ____
ROOT
ATOM      1  C   UNL     1       1.882   7.433  19.728  0.00  0.00    +0.000 A 
ATOM      2  N   UNL     1       1.173   7.967  20.673  0.00  0.00    +0.000 NA
ATOM      3  C   UNL     1       0.767   9.280  20.460  0.00  0.00    +0.000 A 
ATOM      4  C   UNL     1       1.075   9.955  19.326  0.00  0.00    +0.000 A 
ATOM      5  S   UNL     1       0.481  11.536  19.345  0.00  0.00    +0.000 S 
ATOM      6  C   UNL     1      -0.202  11.322  20.922  0.00  0.00    +0.000 A 
ATOM      7  C   UNL     1      -0.901  12.277  21.681  0.00  0.00    +0.000 A 
ATOM      8  C   UNL     1      -1.384  11.909  22.941  0.00  0.00    +0.000 A 
ATOM      9  C   UNL     1      -1.179  10.632  23.438  0.00  0.00    +0.000 A 
ATOM     10  C   UNL     1      -0.480   9.686  22.686  0.00  0.00    +0.000 A 
ATOM     11  C   UNL     1       0.022  10.028  21.406  0.00  0.00    +0.000 A 
ATOM     12  C   UNL     1       1.833   9.378  18.261  0.00  0.00    +0.000 A 
ATOM     13  O   UNL     1       2.106   9.973  17.221  0.00  0.00    +0.000 OA
ATOM     14  N   UNL     1       2.251   8.047  18.513  0.00  0.00    +0.000 N 
ENDROOT
BRANCH   1  15
ATOM     15  S   UNL     1       2.376   5.792  20.091  0.00  0.00    +0.000 S 
BRANCH  15  16
ATOM     16  C   UNL     1       1.578   4.800  18.800  0.00  0.00    +0.000 C 
BRANCH  16  17
ATOM     17  C   UNL     1       2.460   3.603  18.530  0.00  0.00    +0.000 C 
ATOM     18  O   UNL     1       2.754   3.202  17.408  0.00  0.00    +0.000 OA
BRANCH  17  19
ATOM     19  O   UNL     1       2.767   2.968  19.697  0.00  0.00    +0.000 OA
BRANCH  19  21
ATOM     20  C   UNL     1       1.564   2.546  21.722  0.00  0.00    +0.000 C 
ATOM     21  C   UNL     1       1.719   2.168  20.259  0.00  0.00    +0.000 C 
ENDBRANCH  19  21
ENDBRANCH  17  19
ENDBRANCH  16  17
ENDBRANCH  15  16
ENDBRANCH   1  15
BRANCH  14  22
ATOM     22  C   UNL     1       3.055   7.526  17.375  0.00  0.00    +0.000 C 
BRANCH  22  23
ATOM     23  C   UNL     1       4.554   7.392  17.515  0.00  0.00    +0.000 C 
BRANCH  23  24
ATOM     24  C   UNL     1       5.259   6.591  16.427  0.00  0.00    +0.000 C 
BRANCH  24  25
ATOM     25  N   UNL     1       5.256   5.162  16.804  0.00  0.00    +0.000 NA
ATOM     26  C   UNL     1       5.998   4.860  18.053  0.00  0.00    +0.000 C 
ATOM     27  C   UNL     1       7.516   5.034  17.906  0.00  0.00    +0.000 C 
ATOM     28  O   UNL     1       8.022   4.178  16.873  0.00  0.00    +0.000 OA
ATOM     29  C   UNL     1       7.363   4.425  15.623  0.00  0.00    +0.000 C 
ATOM     30  C   UNL     1       5.832   4.313  15.740  0.00  0.00    +0.000 C 
ENDBRANCH  24  25
ENDBRANCH  23  24
ENDBRANCH  22  23
ENDBRANCH  14  22
TORSDOF 9
ENDMDL
MODEL 9
REMARK VINA RESULT:      -7.1      1.336      1.801
REMARK  Name = 
REMARK  10 active torsions:
REMARK  status: ('A' for Active; 'I' for Inactive)
REMARK    1  A    between atoms: C_1  and  C_2
REMARK    2  A    between atoms: C_2  and  O_3
REMARK    3  A    between atoms: O_3  and  C_4
REMARK    4  A    between atoms: C_4  and  C_6
REMARK    5  A    between atoms: C_6  and  S_7
REMARK    6  A    between atoms: S_7  and  C_8
REMARK    7  A    between atoms: N_21  and  C_22
REMARK    8  A    between atoms: C_22  and  C_23
REMARK    9  A    between atoms: C_23  and  C_24
REMARK   10  A    between atoms: C_24  and  N_25
REMARK                            x       y       z     vdW  Elec       q    Type
REMARK                         _______ _______ _______ _____ _____    ______ ____
ROOT
ATOM      1  C   UNL     1       2.281   6.939  19.602  0.00  0.00    +0.000 A 
ATOM      2  N   UNL     1       1.581   7.425  20.579  0.00  0.00    +0.000 NA
ATOM      3  C   UNL     1       1.082   8.709  20.391  0.00  0.00    +0.000 A 
ATOM      4  C   UNL     1       1.295   9.404  19.246  0.00  0.00    +0.000 A 
ATOM      5  S   UNL     1       0.600  10.943  19.298  0.00  0.00    +0.000 S 
ATOM      6  C   UNL     1       0.004  10.683  20.904  0.00  0.00    +0.000 A 
ATOM      7  C   UNL     1      -0.721  11.589  21.696  0.00  0.00    +0.000 A 
ATOM      8  C   UNL     1      -1.121  11.190  22.976  0.00  0.00    +0.000 A 
ATOM      9  C   UNL     1      -0.811   9.928  23.458  0.00  0.00    +0.000 A 
ATOM     10  C   UNL     1      -0.087   9.030  22.671  0.00  0.00    +0.000 A 
ATOM     11  C   UNL     1       0.334   9.406  21.372  0.00  0.00    +0.000 A 
ATOM     12  C   UNL     1       2.039   8.878  18.146  0.00  0.00    +0.000 A 
ATOM     13  O   UNL     1       2.226   9.491  17.097  0.00  0.00    +0.000 OA
ATOM     14  N   UNL     1       2.554   7.577  18.374  0.00  0.00    +0.000 N 
ENDROOT
BRANCH   1  15
ATOM     15  S   UNL     1       2.896   5.333  19.936  0.00  0.00    +0.000 S 
BRANCH  15  16
ATOM     16  C   UNL     1       1.497   4.242  19.562  0.00  0.00    +0.000 C 
BRANCH  16  17
ATOM     17  C   UNL     1       1.518   3.961  18.077  0.00  0.00    +0.000 C 
ATOM     18  O   UNL     1       0.900   4.614  17.243  0.00  0.00    +0.000 OA
BRANCH  17  19
ATOM     19  O   UNL     1       2.209   2.814  17.822  0.00  0.00    +0.000 OA
BRANCH  19  21
ATOM     20  C   UNL     1       3.711   1.168  18.694  0.00  0.00    +0.000 C 
ATOM     21  C   UNL     1       2.451   1.973  18.958  0.00  0.00    +0.000 C 
ENDBRANCH  19  21
ENDBRANCH  17  19
ENDBRANCH  16  17
ENDBRANCH  15  16
ENDBRANCH   1  15
BRANCH  14  22
ATOM     22  C   UNL     1       3.338   7.111  17.199  0.00  0.00    +0.000 C 
BRANCH  22  23
ATOM     23  C   UNL     1       4.816   6.835  17.345  0.00  0.00    +0.000 C 
BRANCH  23  24
ATOM     24  C   UNL     1       5.596   6.655  16.048  0.00  0.00    +0.000 C 
BRANCH  24  25
ATOM     25  N   UNL     1       6.693   5.692  16.277  0.00  0.00    +0.000 NA
ATOM     26  C   UNL     1       7.246   5.092  15.036  0.00  0.00    +0.000 C 
ATOM     27  C   UNL     1       6.267   4.134  14.345  0.00  0.00    +0.000 C 
ATOM     28  O   UNL     1       5.902   3.065  15.228  0.00  0.00    +0.000 OA
ATOM     29  C   UNL     1       5.338   3.567  16.447  0.00  0.00    +0.000 C 
ATOM     30  C   UNL     1       6.269   4.575  17.147  0.00  0.00    +0.000 C 
ENDBRANCH  24  25
ENDBRANCH  23  24
ENDBRANCH  22  23
ENDBRANCH  14  22
TORSDOF 9
ENDMDL
