MODEL 1
REMARK VINA RESULT:      -6.6      0.000      0.000
REMARK  Name = 
REMARK  9 active torsions:
REMARK  status: ('A' for Active; 'I' for Inactive)
REMARK    1  A    between atoms: C_1  and  C_2
REMARK    2  A    between atoms: C_2  and  O_3
REMARK    3  A    between atoms: O_3  and  C_4
REMARK    4  A    between atoms: C_4  and  C_5
REMARK    5  A    between atoms: C_4  and  O_16
REMARK    6  A    between atoms: C_5  and  N_6
REMARK    7  A    between atoms: C_10  and  C_11
REMARK    8  A    between atoms: O_16  and  C_17
REMARK    9  A    between atoms: C_17  and  C_18
REMARK                            x       y       z     vdW  Elec       q    Type
REMARK                         _______ _______ _______ _____ _____    ______ ____
ROOT
ATOM      1  N   UNL     1       5.297   3.480  17.128  0.00  0.00    +0.000 N 
ATOM      2  C   UNL     1       4.207   3.450  17.950  0.00  0.00    +0.000 A 
ATOM      3  N   UNL     1       3.722   4.460  18.616  0.00  0.00    +0.000 NA
ATOM      4  N   UNL     1       2.679   3.958  19.328  0.00  0.00    +0.000 N 
ATOM      5  C   UNL     1       1.778   4.498  20.207  0.00  0.00    +0.000 A 
ATOM      6  C   UNL     1       1.682   5.941  20.534  0.00  0.00    +0.000 C 
ATOM      7  N   UNL     1       1.007   3.520  20.667  0.00  0.00    +0.000 NA
ATOM      8  N   UNL     1       1.389   2.329  20.050  0.00  0.00    +0.000 NA
ATOM      9  C   UNL     1       2.372   2.648  19.257  0.00  0.00    +0.000 A 
ATOM     10  S   UNL     1       3.404   1.865  18.147  0.00  0.00    +0.000 S 
ATOM     11  H   UNL     1       5.653   2.571  16.839  0.00  0.00    +0.000 HD
ENDROOT
BRANCH   1  12
ATOM     12  C   UNL     1       6.361   4.457  17.373  0.00  0.00    +0.000 C 
BRANCH  12  13
ATOM     13  C   UNL     1       7.031   4.986  16.070  0.00  0.00    +0.000 C 
BRANCH  13  14
ATOM     14  O   UNL     1       7.413   6.364  16.149  0.00  0.00    +0.000 OA
BRANCH  14  16
ATOM     15  C   UNL     1       7.949   8.010  17.811  0.00  0.00    +0.000 C 
ATOM     16  C   UNL     1       6.901   7.047  17.290  0.00  0.00    +0.000 C 
ENDBRANCH  14  16
ENDBRANCH  13  14
BRANCH  13  17
ATOM     17  O   UNL     1       6.114   4.793  14.974  0.00  0.00    +0.000 OA
BRANCH  17  18
ATOM     18  C   UNL     1       6.790   4.551  13.737  0.00  0.00    +0.000 C 
ATOM     19  C   UNL     1       5.969   3.587  12.896  0.00  0.00    +0.000 C 
ENDBRANCH  17  18
ENDBRANCH  13  17
ENDBRANCH  12  13
ENDBRANCH   1  12
TORSDOF 6
ENDMDL
MODEL 2
REMARK VINA RESULT:      -6.5      1.149      1.178
REMARK  Name = 
REMARK  9 active torsions:
REMARK  status: ('A' for Active; 'I' for Inactive)
REMARK    1  A    between atoms: C_1  and  C_2
REMARK    2  A    between atoms: C_2  and  O_3
REMARK    3  A    between atoms: O_3  and  C_4
REMARK    4  A    between atoms: C_4  and  C_5
REMARK    5  A    between atoms: C_4  and  O_16
REMARK    6  A    between atoms: C_5  and  N_6
REMARK    7  A    between atoms: C_10  and  C_11
REMARK    8  A    between atoms: O_16  and  C_17
REMARK    9  A    between atoms: C_17  and  C_18
REMARK                            x       y       z     vdW  Elec       q    Type
REMARK                         _______ _______ _______ _____ _____    ______ ____
ROOT
ATOM      1  N   UNL     1       4.744   3.240  17.132  0.00  0.00    +0.000 N 
ATOM      2  C   UNL     1       4.078   3.259  18.324  0.00  0.00    +0.000 A 
ATOM      3  N   UNL     1       3.356   4.243  18.782  0.00  0.00    +0.000 NA
ATOM      4  N   UNL     1       2.933   3.840  20.010  0.00  0.00    +0.000 N 
ATOM      5  C   UNL     1       2.156   4.410  20.983  0.00  0.00    +0.000 A 
ATOM      6  C   UNL     1       1.451   5.707  20.846  0.00  0.00    +0.000 C 
ATOM      7  N   UNL     1       2.126   3.589  22.026  0.00  0.00    +0.000 NA
ATOM      8  N   UNL     1       2.867   2.449  21.713  0.00  0.00    +0.000 NA
ATOM      9  C   UNL     1       3.309   2.644  20.503  0.00  0.00    +0.000 A 
ATOM     10  S   UNL     1       4.252   1.808  19.353  0.00  0.00    +0.000 S 
ATOM     11  H   UNL     1       5.411   2.481  17.014  0.00  0.00    +0.000 HD
ENDROOT
BRANCH   1  12
ATOM     12  C   UNL     1       5.206   4.500  16.541  0.00  0.00    +0.000 C 
BRANCH  12  13
ATOM     13  C   UNL     1       6.551   4.367  15.767  0.00  0.00    +0.000 C 
BRANCH  13  14
ATOM     14  O   UNL     1       7.619   5.117  16.355  0.00  0.00    +0.000 OA
BRANCH  14  16
ATOM     15  C   UNL     1       7.592   7.232  17.487  0.00  0.00    +0.000 C 
ATOM     16  C   UNL     1       7.279   5.752  17.583  0.00  0.00    +0.000 C 
ENDBRANCH  14  16
ENDBRANCH  13  14
BRANCH  13  17
ATOM     17  O   UNL     1       6.339   4.796  14.407  0.00  0.00    +0.000 OA
BRANCH  17  18
ATOM     18  C   UNL     1       6.036   3.703  13.534  0.00  0.00    +0.000 C 
ATOM     19  C   UNL     1       6.785   3.884  12.224  0.00  0.00    +0.000 C 
ENDBRANCH  17  18
ENDBRANCH  13  17
ENDBRANCH  12  13
ENDBRANCH   1  12
TORSDOF 6
ENDMDL
MODEL 3
REMARK VINA RESULT:      -6.4      3.057      6.431
REMARK  Name = 
REMARK  9 active torsions:
REMARK  status: ('A' for Active; 'I' for Inactive)
REMARK    1  A    between atoms: C_1  and  C_2
REMARK    2  A    between atoms: C_2  and  O_3
REMARK    3  A    between atoms: O_3  and  C_4
REMARK    4  A    between atoms: C_4  and  C_5
REMARK    5  A    between atoms: C_4  and  O_16
REMARK    6  A    between atoms: C_5  and  N_6
REMARK    7  A    between atoms: C_10  and  C_11
REMARK    8  A    between atoms: O_16  and  C_17
REMARK    9  A    between atoms: C_17  and  C_18
REMARK                            x       y       z     vdW  Elec       q    Type
REMARK                         _______ _______ _______ _____ _____    ______ ____
ROOT
ATOM      1  N   UNL     1       3.474   5.781  19.129  0.00  0.00    +0.000 N 
ATOM      2  C   UNL     1       4.554   5.471  18.352  0.00  0.00    +0.000 A 
ATOM      3  N   UNL     1       4.534   5.240  17.070  0.00  0.00    +0.000 NA
ATOM      4  N   UNL     1       5.815   4.929  16.738  0.00  0.00    +0.000 N 
ATOM      5  C   UNL     1       6.440   4.592  15.567  0.00  0.00    +0.000 A 
ATOM      6  C   UNL     1       5.787   4.584  14.236  0.00  0.00    +0.000 C 
ATOM      7  N   UNL     1       7.710   4.317  15.837  0.00  0.00    +0.000 NA
ATOM      8  N   UNL     1       7.925   4.513  17.201  0.00  0.00    +0.000 NA
ATOM      9  C   UNL     1       6.775   4.889  17.683  0.00  0.00    +0.000 A 
ATOM     10  S   UNL     1       6.125   5.341  19.195  0.00  0.00    +0.000 S 
ATOM     11  H   UNL     1       3.630   5.741  20.134  0.00  0.00    +0.000 HD
ENDROOT
BRANCH   1  12
ATOM     12  C   UNL     1       2.143   5.304  18.741  0.00  0.00    +0.000 C 
BRANCH  12  13
ATOM     13  C   UNL     1       1.955   3.769  18.926  0.00  0.00    +0.000 C 
BRANCH  13  14
ATOM     14  O   UNL     1       1.644   3.085  17.707  0.00  0.00    +0.000 OA
BRANCH  14  16
ATOM     15  C   UNL     1       3.573   1.851  18.424  0.00  0.00    +0.000 C 
ATOM     16  C   UNL     1       2.661   2.192  17.263  0.00  0.00    +0.000 C 
ENDBRANCH  14  16
ENDBRANCH  13  14
BRANCH  13  17
ATOM     17  O   UNL     1       0.909   3.550  19.893  0.00  0.00    +0.000 OA
BRANCH  17  18
ATOM     18  C   UNL     1       1.354   3.775  21.234  0.00  0.00    +0.000 C 
ATOM     19  C   UNL     1       2.220   2.608  21.678  0.00  0.00    +0.000 C 
ENDBRANCH  17  18
ENDBRANCH  13  17
ENDBRANCH  12  13
ENDBRANCH   1  12
TORSDOF 6
ENDMDL
MODEL 4
REMARK VINA RESULT:      -6.4      0.461      2.866
REMARK  Name = 
REMARK  9 active torsions:
REMARK  status: ('A' for Active; 'I' for Inactive)
REMARK    1  A    between atoms: C_1  and  C_2
REMARK    2  A    between atoms: C_2  and  O_3
REMARK    3  A    between atoms: O_3  and  C_4
REMARK    4  A    between atoms: C_4  and  C_5
REMARK    5  A    between atoms: C_4  and  O_16
REMARK    6  A    between atoms: C_5  and  N_6
REMARK    7  A    between atoms: C_10  and  C_11
REMARK    8  A    between atoms: O_16  and  C_17
REMARK    9  A    between atoms: C_17  and  C_18
REMARK                            x       y       z     vdW  Elec       q    Type
REMARK                         _______ _______ _______ _____ _____    ______ ____
ROOT
ATOM      1  N   UNL     1       5.187   3.358  17.128  0.00  0.00    +0.000 N 
ATOM      2  C   UNL     1       4.145   3.374  18.011  0.00  0.00    +0.000 A 
ATOM      3  N   UNL     1       3.683   4.422  18.632  0.00  0.00    +0.000 NA
ATOM      4  N   UNL     1       2.689   3.959  19.435  0.00  0.00    +0.000 N 
ATOM      5  C   UNL     1       1.830   4.549  20.324  0.00  0.00    +0.000 A 
ATOM      6  C   UNL     1       1.731   6.009  20.556  0.00  0.00    +0.000 C 
ATOM      7  N   UNL     1       1.101   3.596  20.893  0.00  0.00    +0.000 NA
ATOM      8  N   UNL     1       1.467   2.369  20.339  0.00  0.00    +0.000 NA
ATOM      9  C   UNL     1       2.399   2.643  19.471  0.00  0.00    +0.000 A 
ATOM     10  S   UNL     1       3.379   1.797  18.361  0.00  0.00    +0.000 S 
ATOM     11  H   UNL     1       5.541   2.436  16.883  0.00  0.00    +0.000 HD
ENDROOT
BRANCH   1  12
ATOM     12  C   UNL     1       6.249   4.362  17.244  0.00  0.00    +0.000 C 
BRANCH  12  13
ATOM     13  C   UNL     1       6.448   5.209  15.952  0.00  0.00    +0.000 C 
BRANCH  13  14
ATOM     14  O   UNL     1       6.877   4.433  14.827  0.00  0.00    +0.000 OA
BRANCH  14  16
ATOM     15  C   UNL     1       6.456   3.643  12.601  0.00  0.00    +0.000 C 
ATOM     16  C   UNL     1       5.841   4.128  13.899  0.00  0.00    +0.000 C 
ENDBRANCH  14  16
ENDBRANCH  13  14
BRANCH  13  17
ATOM     17  O   UNL     1       7.409   6.247  16.229  0.00  0.00    +0.000 OA
BRANCH  17  18
ATOM     18  C   UNL     1       6.966   7.135  17.260  0.00  0.00    +0.000 C 
ATOM     19  C   UNL     1       8.050   7.254  18.320  0.00  0.00    +0.000 C 
ENDBRANCH  17  18
ENDBRANCH  13  17
ENDBRANCH  12  13
ENDBRANCH   1  12
TORSDOF 6
ENDMDL
MODEL 5
REMARK VINA RESULT:      -6.3      1.277      1.432
REMARK  Name = 
REMARK  9 active torsions:
REMARK  status: ('A' for Active; 'I' for Inactive)
REMARK    1  A    between atoms: C_1  and  C_2
REMARK    2  A    between atoms: C_2  and  O_3
REMARK    3  A    between atoms: O_3  and  C_4
REMARK    4  A    between atoms: C_4  and  C_5
REMARK    5  A    between atoms: C_4  and  O_16
REMARK    6  A    between atoms: C_5  and  N_6
REMARK    7  A    between atoms: C_10  and  C_11
REMARK    8  A    between atoms: O_16  and  C_17
REMARK    9  A    between atoms: C_17  and  C_18
REMARK                            x       y       z     vdW  Elec       q    Type
REMARK                         _______ _______ _______ _____ _____    ______ ____
ROOT
ATOM      1  N   UNL     1       6.076   3.786  18.404  0.00  0.00    +0.000 N 
ATOM      2  C   UNL     1       4.881   4.138  18.966  0.00  0.00    +0.000 A 
ATOM      3  N   UNL     1       4.366   5.336  18.984  0.00  0.00    +0.000 NA
ATOM      4  N   UNL     1       3.208   5.222  19.684  0.00  0.00    +0.000 N 
ATOM      5  C   UNL     1       2.225   6.103  20.049  0.00  0.00    +0.000 A 
ATOM      6  C   UNL     1       2.166   7.522  19.625  0.00  0.00    +0.000 C 
ATOM      7  N   UNL     1       1.343   5.456  20.801  0.00  0.00    +0.000 NA
ATOM      8  N   UNL     1       1.739   4.122  20.898  0.00  0.00    +0.000 NA
ATOM      9  C   UNL     1       2.840   4.035  20.206  0.00  0.00    +0.000 A 
ATOM     10  S   UNL     1       3.971   2.832  19.777  0.00  0.00    +0.000 S 
ATOM     11  H   UNL     1       6.417   2.858  18.645  0.00  0.00    +0.000 HD
ENDROOT
BRANCH   1  12
ATOM     12  C   UNL     1       7.149   4.779  18.306  0.00  0.00    +0.000 C 
BRANCH  12  13
ATOM     13  C   UNL     1       7.411   5.269  16.851  0.00  0.00    +0.000 C 
BRANCH  13  14
ATOM     14  O   UNL     1       7.506   6.693  16.741  0.00  0.00    +0.000 OA
BRANCH  14  16
ATOM     15  C   UNL     1       7.989   8.832  17.716  0.00  0.00    +0.000 C 
ATOM     16  C   UNL     1       7.745   7.359  17.977  0.00  0.00    +0.000 C 
ENDBRANCH  14  16
ENDBRANCH  13  14
BRANCH  13  17
ATOM     17  O   UNL     1       6.350   4.780  16.006  0.00  0.00    +0.000 OA
BRANCH  17  18
ATOM     18  C   UNL     1       6.800   4.495  14.679  0.00  0.00    +0.000 C 
ATOM     19  C   UNL     1       5.630   3.992  13.849  0.00  0.00    +0.000 C 
ENDBRANCH  17  18
ENDBRANCH  13  17
ENDBRANCH  12  13
ENDBRANCH   1  12
TORSDOF 6
ENDMDL
MODEL 6
REMARK VINA RESULT:      -6.3      3.213      6.547
REMARK  Name = 
REMARK  9 active torsions:
REMARK  status: ('A' for Active; 'I' for Inactive)
REMARK    1  A    between atoms: C_1  and  C_2
REMARK    2  A    between atoms: C_2  and  O_3
REMARK    3  A    between atoms: O_3  and  C_4
REMARK    4  A    between atoms: C_4  and  C_5
REMARK    5  A    between atoms: C_4  and  O_16
REMARK    6  A    between atoms: C_5  and  N_6
REMARK    7  A    between atoms: C_10  and  C_11
REMARK    8  A    between atoms: O_16  and  C_17
REMARK    9  A    between atoms: C_17  and  C_18
REMARK                            x       y       z     vdW  Elec       q    Type
REMARK                         _______ _______ _______ _____ _____    ______ ____
ROOT
ATOM      1  N   UNL     1       4.833   3.829  19.695  0.00  0.00    +0.000 N 
ATOM      2  C   UNL     1       5.444   4.344  18.587  0.00  0.00    +0.000 A 
ATOM      3  N   UNL     1       5.220   3.988  17.353  0.00  0.00    +0.000 NA
ATOM      4  N   UNL     1       6.081   4.722  16.601  0.00  0.00    +0.000 N 
ATOM      5  C   UNL     1       6.337   4.811  15.258  0.00  0.00    +0.000 A 
ATOM      6  C   UNL     1       5.568   4.103  14.207  0.00  0.00    +0.000 C 
ATOM      7  N   UNL     1       7.349   5.651  15.081  0.00  0.00    +0.000 NA
ATOM      8  N   UNL     1       7.735   6.147  16.327  0.00  0.00    +0.000 NA
ATOM      9  C   UNL     1       6.943   5.576  17.189  0.00  0.00    +0.000 A 
ATOM     10  S   UNL     1       6.690   5.593  18.876  0.00  0.00    +0.000 S 
ATOM     11  H   UNL     1       5.258   4.078  20.585  0.00  0.00    +0.000 HD
ENDROOT
BRANCH   1  12
ATOM     12  C   UNL     1       4.327   2.454  19.669  0.00  0.00    +0.000 C 
BRANCH  12  13
ATOM     13  C   UNL     1       2.929   2.294  20.336  0.00  0.00    +0.000 C 
BRANCH  13  14
ATOM     14  O   UNL     1       1.855   2.232  19.391  0.00  0.00    +0.000 OA
BRANCH  14  16
ATOM     15  C   UNL     1       1.827   3.590  17.413  0.00  0.00    +0.000 C 
ATOM     16  C   UNL     1       2.271   2.278  18.030  0.00  0.00    +0.000 C 
ENDBRANCH  14  16
ENDBRANCH  13  14
BRANCH  13  17
ATOM     17  O   UNL     1       2.725   3.397  21.241  0.00  0.00    +0.000 OA
BRANCH  17  18
ATOM     18  C   UNL     1       1.482   4.067  21.009  0.00  0.00    +0.000 C 
ATOM     19  C   UNL     1       1.755   5.501  20.586  0.00  0.00    +0.000 C 
ENDBRANCH  17  18
ENDBRANCH  13  17
ENDBRANCH  12  13
ENDBRANCH   1  12
TORSDOF 6
ENDMDL
MODEL 7
REMARK VINA RESULT:      -6.2      1.579      1.674
REMARK  Name = 
REMARK  9 active torsions:
REMARK  status: ('A' for Active; 'I' for Inactive)
REMARK    1  A    between atoms: C_1  and  C_2
REMARK    2  A    between atoms: C_2  and  O_3
REMARK    3  A    between atoms: O_3  and  C_4
REMARK    4  A    between atoms: C_4  and  C_5
REMARK    5  A    between atoms: C_4  and  O_16
REMARK    6  A    between atoms: C_5  and  N_6
REMARK    7  A    between atoms: C_10  and  C_11
REMARK    8  A    between atoms: O_16  and  C_17
REMARK    9  A    between atoms: C_17  and  C_18
REMARK                            x       y       z     vdW  Elec       q    Type
REMARK                         _______ _______ _______ _____ _____    ______ ____
ROOT
ATOM      1  N   UNL     1       6.164   3.983  18.936  0.00  0.00    +0.000 N 
ATOM      2  C   UNL     1       4.850   3.614  18.975  0.00  0.00    +0.000 A 
ATOM      3  N   UNL     1       3.886   4.137  18.271  0.00  0.00    +0.000 NA
ATOM      4  N   UNL     1       2.756   3.497  18.671  0.00  0.00    +0.000 N 
ATOM      5  C   UNL     1       1.435   3.587  18.319  0.00  0.00    +0.000 A 
ATOM      6  C   UNL     1       0.911   4.443  17.228  0.00  0.00    +0.000 C 
ATOM      7  N   UNL     1       0.741   2.761  19.092  0.00  0.00    +0.000 NA
ATOM      8  N   UNL     1       1.629   2.095  19.937  0.00  0.00    +0.000 NA
ATOM      9  C   UNL     1       2.809   2.557  19.635  0.00  0.00    +0.000 A 
ATOM     10  S   UNL     1       4.424   2.316  20.129  0.00  0.00    +0.000 S 
ATOM     11  H   UNL     1       6.747   3.609  19.682  0.00  0.00    +0.000 HD
ENDROOT
BRANCH   1  12
ATOM     12  C   UNL     1       6.519   5.358  18.572  0.00  0.00    +0.000 C 
BRANCH  12  13
ATOM     13  C   UNL     1       7.585   5.445  17.440  0.00  0.00    +0.000 C 
BRANCH  13  14
ATOM     14  O   UNL     1       7.550   6.684  16.723  0.00  0.00    +0.000 OA
BRANCH  14  16
ATOM     15  C   UNL     1       8.170   8.680  17.903  0.00  0.00    +0.000 C 
ATOM     16  C   UNL     1       7.031   7.778  17.473  0.00  0.00    +0.000 C 
ENDBRANCH  14  16
ENDBRANCH  13  14
BRANCH  13  17
ATOM     17  O   UNL     1       7.377   4.345  16.531  0.00  0.00    +0.000 OA
BRANCH  17  18
ATOM     18  C   UNL     1       7.083   4.788  15.202  0.00  0.00    +0.000 C 
ATOM     19  C   UNL     1       5.734   4.233  14.776  0.00  0.00    +0.000 C 
ENDBRANCH  17  18
ENDBRANCH  13  17
ENDBRANCH  12  13
ENDBRANCH   1  12
TORSDOF 6
ENDMDL
MODEL 8
REMARK VINA RESULT:      -6.1      0.908      1.120
REMARK  Name = 
REMARK  9 active torsions:
REMARK  status: ('A' for Active; 'I' for Inactive)
REMARK    1  A    between atoms: C_1  and  C_2
REMARK    2  A    between atoms: C_2  and  O_3
REMARK    3  A    between atoms: O_3  and  C_4
REMARK    4  A    between atoms: C_4  and  C_5
REMARK    5  A    between atoms: C_4  and  O_16
REMARK    6  A    between atoms: C_5  and  N_6
REMARK    7  A    between atoms: C_10  and  C_11
REMARK    8  A    between atoms: O_16  and  C_17
REMARK    9  A    between atoms: C_17  and  C_18
REMARK                            x       y       z     vdW  Elec       q    Type
REMARK                         _______ _______ _______ _____ _____    ______ ____
ROOT
ATOM      1  N   UNL     1       5.531   3.641  17.464  0.00  0.00    +0.000 N 
ATOM      2  C   UNL     1       4.372   3.539  18.180  0.00  0.00    +0.000 A 
ATOM      3  N   UNL     1       3.823   4.485  18.888  0.00  0.00    +0.000 NA
ATOM      4  N   UNL     1       2.724   3.922  19.457  0.00  0.00    +0.000 N 
ATOM      5  C   UNL     1       1.745   4.382  20.297  0.00  0.00    +0.000 A 
ATOM      6  C   UNL     1       1.611   5.790  20.743  0.00  0.00    +0.000 C 
ATOM      7  N   UNL     1       0.943   3.368  20.597  0.00  0.00    +0.000 NA
ATOM      8  N   UNL     1       1.387   2.236  19.912  0.00  0.00    +0.000 NA
ATOM      9  C   UNL     1       2.434   2.624  19.241  0.00  0.00    +0.000 A 
ATOM     10  S   UNL     1       3.566   1.943  18.161  0.00  0.00    +0.000 S 
ATOM     11  H   UNL     1       5.917   2.761  17.128  0.00  0.00    +0.000 HD
ENDROOT
BRANCH   1  12
ATOM     12  C   UNL     1       6.562   4.590  17.889  0.00  0.00    +0.000 C 
BRANCH  12  13
ATOM     13  C   UNL     1       7.197   5.387  16.711  0.00  0.00    +0.000 C 
BRANCH  13  14
ATOM     14  O   UNL     1       6.380   6.473  16.256  0.00  0.00    +0.000 OA
BRANCH  14  16
ATOM     15  C   UNL     1       4.245   7.261  17.016  0.00  0.00    +0.000 C 
ATOM     16  C   UNL     1       5.732   7.192  17.301  0.00  0.00    +0.000 C 
ENDBRANCH  14  16
ENDBRANCH  13  14
BRANCH  13  17
ATOM     17  O   UNL     1       7.449   4.474  15.625  0.00  0.00    +0.000 OA
BRANCH  17  18
ATOM     18  C   UNL     1       6.935   4.956  14.379  0.00  0.00    +0.000 C 
ATOM     19  C   UNL     1       6.111   3.862  13.719  0.00  0.00    +0.000 C 
ENDBRANCH  17  18
ENDBRANCH  13  17
ENDBRANCH  12  13
ENDBRANCH   1  12
TORSDOF 6
ENDMDL
MODEL 9
REMARK VINA RESULT:      -6.1      3.195      6.230
REMARK  Name = 
REMARK  9 active torsions:
REMARK  status: ('A' for Active; 'I' for Inactive)
REMARK    1  A    between atoms: C_1  and  C_2
REMARK    2  A    between atoms: C_2  and  O_3
REMARK    3  A    between atoms: O_3  and  C_4
REMARK    4  A    between atoms: C_4  and  C_5
REMARK    5  A    between atoms: C_4  and  O_16
REMARK    6  A    between atoms: C_5  and  N_6
REMARK    7  A    between atoms: C_10  and  C_11
REMARK    8  A    between atoms: O_16  and  C_17
REMARK    9  A    between atoms: C_17  and  C_18
REMARK                            x       y       z     vdW  Elec       q    Type
REMARK                         _______ _______ _______ _____ _____    ______ ____
ROOT
ATOM      1  N   UNL     1       2.799   5.219  18.453  0.00  0.00    +0.000 N 
ATOM      2  C   UNL     1       4.056   5.084  17.936  0.00  0.00    +0.000 A 
ATOM      3  N   UNL     1       4.349   4.735  16.715  0.00  0.00    +0.000 NA
ATOM      4  N   UNL     1       5.706   4.685  16.668  0.00  0.00    +0.000 N 
ATOM      5  C   UNL     1       6.614   4.386  15.687  0.00  0.00    +0.000 A 
ATOM      6  C   UNL     1       6.266   4.111  14.273  0.00  0.00    +0.000 C 
ATOM      7  N   UNL     1       7.830   4.424  16.220  0.00  0.00    +0.000 NA
ATOM      8  N   UNL     1       7.714   4.789  17.561  0.00  0.00    +0.000 NA
ATOM      9  C   UNL     1       6.437   4.946  17.769  0.00  0.00    +0.000 A 
ATOM     10  S   UNL     1       5.412   5.382  19.062  0.00  0.00    +0.000 S 
ATOM     11  H   UNL     1       2.748   5.309  19.466  0.00  0.00    +0.000 HD
ENDROOT
BRANCH   1  12
ATOM     12  C   UNL     1       1.699   4.426  17.896  0.00  0.00    +0.000 C 
BRANCH  12  13
ATOM     13  C   UNL     1       0.949   3.571  18.960  0.00  0.00    +0.000 C 
BRANCH  13  14
ATOM     14  O   UNL     1       1.028   4.115  20.283  0.00  0.00    +0.000 OA
BRANCH  14  16
ATOM     15  C   UNL     1       1.543   2.524  22.004  0.00  0.00    +0.000 C 
ATOM     16  C   UNL     1       2.091   3.584  21.069  0.00  0.00    +0.000 C 
ENDBRANCH  14  16
ENDBRANCH  13  14
BRANCH  13  17
ATOM     17  O   UNL     1       1.496   2.237  18.943  0.00  0.00    +0.000 OA
BRANCH  17  18
ATOM     18  C   UNL     1       2.354   2.017  17.819  0.00  0.00    +0.000 C 
ATOM     19  C   UNL     1       3.657   1.398  18.296  0.00  0.00    +0.000 C 
ENDBRANCH  17  18
ENDBRANCH  13  17
ENDBRANCH  12  13
ENDBRANCH   1  12
TORSDOF 6
ENDMDL
