MODEL 1
REMARK VINA RESULT:      -6.8      0.000      0.000
REMARK  Name = 
REMARK  5 active torsions:
REMARK  status: ('A' for Active; 'I' for Inactive)
REMARK    1  A    between atoms: C_1  and  C_2
REMARK    2  A    between atoms: C_2  and  C_3
REMARK    3  A    between atoms: C_6  and  C_7
REMARK    4  A    between atoms: C_7  and  N_8
REMARK    5  A    between atoms: C_9  and  C_11
REMARK                            x       y       z     vdW  Elec       q    Type
REMARK                         _______ _______ _______ _____ _____    ______ ____
ROOT
ATOM      1  N   UNL     1       5.655   5.101  16.870  0.00  0.00    +0.000 N 
ATOM      2  C   UNL     1       5.879   4.508  18.088  0.00  0.00    +0.000 C 
ATOM      3  O   UNL     1       7.007   4.419  18.566  0.00  0.00    +0.000 OA
ATOM      4  H   UNL     1       4.793   4.930  16.369  0.00  0.00    +0.000 HD
ENDROOT
BRANCH   2   5
ATOM      5  C   UNL     1       4.670   3.912  18.795  0.00  0.00    +0.000 C 
ATOM      6  C   UNL     1       3.805   5.062  19.352  0.00  0.00    +0.000 C 
ATOM      7  C   UNL     1       2.481   4.466  19.772  0.00  0.00    +0.000 C 
ATOM      8  S   UNL     1       2.094   3.316  18.472  0.00  0.00    +0.000 S 
ATOM      9  O   UNL     1       1.339   4.005  17.447  0.00  0.00    +0.000 OA
ATOM     10  O   UNL     1       1.627   2.084  19.079  0.00  0.00    +0.000 OA
ATOM     11  C   UNL     1       3.769   3.078  17.883  0.00  0.00    +0.000 C 
ENDBRANCH   2   5
BRANCH   1  12
ATOM     12  C   UNL     1       6.799   5.535  16.089  0.00  0.00    +0.000 C 
BRANCH  12  16
ATOM     13  C   UNL     1       6.127   3.618  12.728  0.00  0.00    +0.000 A 
ATOM     14  C   UNL     1       7.218   4.431  12.501  0.00  0.00    +0.000 A 
ATOM     15  C   UNL     1       7.563   5.204  13.646  0.00  0.00    +0.000 A 
ATOM     16  C   UNL     1       6.729   4.953  14.719  0.00  0.00    +0.000 A 
ATOM     17  S   UNL     1       5.544   3.782  14.329  0.00  0.00    +0.000 S 
BRANCH  13  19
ATOM     18  C   UNL     1       4.109   3.207  11.319  0.00  0.00    +0.000 C 
ATOM     19  C   UNL     1       5.463   2.677  11.769  0.00  0.00    +0.000 C 
ENDBRANCH  13  19
ENDBRANCH  12  16
ENDBRANCH   1  12
TORSDOF 4
ENDMDL
MODEL 2
REMARK VINA RESULT:      -6.5      1.096      1.493
REMARK  Name = 
REMARK  5 active torsions:
REMARK  status: ('A' for Active; 'I' for Inactive)
REMARK    1  A    between atoms: C_1  and  C_2
REMARK    2  A    between atoms: C_2  and  C_3
REMARK    3  A    between atoms: C_6  and  C_7
REMARK    4  A    between atoms: C_7  and  N_8
REMARK    5  A    between atoms: C_9  and  C_11
REMARK                            x       y       z     vdW  Elec       q    Type
REMARK                         _______ _______ _______ _____ _____    ______ ____
ROOT
ATOM      1  N   UNL     1       5.504   5.585  16.881  0.00  0.00    +0.000 N 
ATOM      2  C   UNL     1       5.158   4.911  18.027  0.00  0.00    +0.000 C 
ATOM      3  O   UNL     1       5.978   4.250  18.659  0.00  0.00    +0.000 OA
ATOM      4  H   UNL     1       4.790   5.889  16.231  0.00  0.00    +0.000 HD
ENDROOT
BRANCH   2   5
ATOM      5  C   UNL     1       3.696   4.973  18.446  0.00  0.00    +0.000 C 
ATOM      6  C   UNL     1       2.860   4.137  17.453  0.00  0.00    +0.000 C 
ATOM      7  C   UNL     1       1.485   3.966  18.056  0.00  0.00    +0.000 C 
ATOM      8  S   UNL     1       1.805   3.651  19.777  0.00  0.00    +0.000 S 
ATOM      9  O   UNL     1       1.953   2.224  19.971  0.00  0.00    +0.000 OA
ATOM     10  O   UNL     1       0.882   4.446  20.564  0.00  0.00    +0.000 OA
ATOM     11  C   UNL     1       3.428   4.406  19.840  0.00  0.00    +0.000 C 
ENDBRANCH   2   5
BRANCH   1  12
ATOM     12  C   UNL     1       6.848   5.419  16.358  0.00  0.00    +0.000 C 
BRANCH  12  16
ATOM     13  C   UNL     1       6.238   3.680  12.889  0.00  0.00    +0.000 A 
ATOM     14  C   UNL     1       7.261   4.585  12.696  0.00  0.00    +0.000 A 
ATOM     15  C   UNL     1       7.575   5.305  13.884  0.00  0.00    +0.000 A 
ATOM     16  C   UNL     1       6.787   4.924  14.952  0.00  0.00    +0.000 A 
ATOM     17  S   UNL     1       5.682   3.696  14.508  0.00  0.00    +0.000 S 
BRANCH  13  19
ATOM     18  C   UNL     1       4.276   3.281  11.399  0.00  0.00    +0.000 C 
ATOM     19  C   UNL     1       5.621   2.757  11.882  0.00  0.00    +0.000 C 
ENDBRANCH  13  19
ENDBRANCH  12  16
ENDBRANCH   1  12
TORSDOF 4
ENDMDL
MODEL 3
REMARK VINA RESULT:      -6.5      3.911      7.293
REMARK  Name = 
REMARK  5 active torsions:
REMARK  status: ('A' for Active; 'I' for Inactive)
REMARK    1  A    between atoms: C_1  and  C_2
REMARK    2  A    between atoms: C_2  and  C_3
REMARK    3  A    between atoms: C_6  and  C_7
REMARK    4  A    between atoms: C_7  and  N_8
REMARK    5  A    between atoms: C_9  and  C_11
REMARK                            x       y       z     vdW  Elec       q    Type
REMARK                         _______ _______ _______ _____ _____    ______ ____
ROOT
ATOM      1  N   UNL     1       3.576   5.944  19.243  0.00  0.00    +0.000 N 
ATOM      2  C   UNL     1       3.479   4.884  18.374  0.00  0.00    +0.000 C 
ATOM      3  O   UNL     1       2.392   4.404  18.062  0.00  0.00    +0.000 OA
ATOM      4  H   UNL     1       4.455   6.150  19.700  0.00  0.00    +0.000 HD
ENDROOT
BRANCH   2   5
ATOM      5  C   UNL     1       4.784   4.293  17.861  0.00  0.00    +0.000 C 
ATOM      6  C   UNL     1       4.758   4.303  16.317  0.00  0.00    +0.000 C 
ATOM      7  C   UNL     1       6.162   4.002  15.843  0.00  0.00    +0.000 C 
ATOM      8  S   UNL     1       7.198   4.942  16.941  0.00  0.00    +0.000 S 
ATOM      9  O   UNL     1       7.403   6.259  16.378  0.00  0.00    +0.000 OA
ATOM     10  O   UNL     1       8.303   4.098  17.355  0.00  0.00    +0.000 OA
ATOM     11  C   UNL     1       6.027   5.073  18.290  0.00  0.00    +0.000 C 
ENDBRANCH   2   5
BRANCH   1  12
ATOM     12  C   UNL     1       2.368   6.431  19.882  0.00  0.00    +0.000 C 
BRANCH  12  16
ATOM     13  C   UNL     1       1.080  10.035  18.999  0.00  0.00    +0.000 A 
ATOM     14  C   UNL     1       1.726   9.566  17.874  0.00  0.00    +0.000 A 
ATOM     15  C   UNL     1       2.262   8.261  18.065  0.00  0.00    +0.000 A 
ATOM     16  C   UNL     1       2.004   7.767  19.328  0.00  0.00    +0.000 A 
ATOM     17  S   UNL     1       1.111   8.885  20.267  0.00  0.00    +0.000 S 
BRANCH  13  19
ATOM     18  C   UNL     1      -0.346  11.415  20.512  0.00  0.00    +0.000 C 
ATOM     19  C   UNL     1       0.406  11.360  19.190  0.00  0.00    +0.000 C 
ENDBRANCH  13  19
ENDBRANCH  12  16
ENDBRANCH   1  12
TORSDOF 4
ENDMDL
MODEL 4
REMARK VINA RESULT:      -6.4      1.087      1.094
REMARK  Name = 
REMARK  5 active torsions:
REMARK  status: ('A' for Active; 'I' for Inactive)
REMARK    1  A    between atoms: C_1  and  C_2
REMARK    2  A    between atoms: C_2  and  C_3
REMARK    3  A    between atoms: C_6  and  C_7
REMARK    4  A    between atoms: C_7  and  N_8
REMARK    5  A    between atoms: C_9  and  C_11
REMARK                            x       y       z     vdW  Elec       q    Type
REMARK                         _______ _______ _______ _____ _____    ______ ____
ROOT
ATOM      1  N   UNL     1       6.161   4.796  16.704  0.00  0.00    +0.000 N 
ATOM      2  C   UNL     1       5.236   5.630  17.284  0.00  0.00    +0.000 C 
ATOM      3  O   UNL     1       5.151   6.815  16.973  0.00  0.00    +0.000 OA
ATOM      4  H   UNL     1       6.407   3.920  17.146  0.00  0.00    +0.000 HD
ENDROOT
BRANCH   2   5
ATOM      5  C   UNL     1       4.358   5.031  18.373  0.00  0.00    +0.000 C 
ATOM      6  C   UNL     1       3.173   5.985  18.635  0.00  0.00    +0.000 C 
ATOM      7  C   UNL     1       2.172   5.235  19.484  0.00  0.00    +0.000 C 
ATOM      8  S   UNL     1       2.147   3.602  18.780  0.00  0.00    +0.000 S 
ATOM      9  O   UNL     1       1.141   3.557  17.741  0.00  0.00    +0.000 OA
ATOM     10  O   UNL     1       2.181   2.640  19.865  0.00  0.00    +0.000 OA
ATOM     11  C   UNL     1       3.762   3.670  18.009  0.00  0.00    +0.000 C 
ENDBRANCH   2   5
BRANCH   1  12
ATOM     12  C   UNL     1       7.125   5.365  15.780  0.00  0.00    +0.000 C 
BRANCH  12  16
ATOM     13  C   UNL     1       6.101   3.505  12.476  0.00  0.00    +0.000 A 
ATOM     14  C   UNL     1       7.188   4.292  12.158  0.00  0.00    +0.000 A 
ATOM     15  C   UNL     1       7.655   5.042  13.275  0.00  0.00    +0.000 A 
ATOM     16  C   UNL     1       6.915   4.801  14.416  0.00  0.00    +0.000 A 
ATOM     17  S   UNL     1       5.669   3.666  14.125  0.00  0.00    +0.000 S 
BRANCH  13  19
ATOM     18  C   UNL     1       4.021   3.234  11.123  0.00  0.00    +0.000 C 
ATOM     19  C   UNL     1       5.327   2.593  11.572  0.00  0.00    +0.000 C 
ENDBRANCH  13  19
ENDBRANCH  12  16
ENDBRANCH   1  12
TORSDOF 4
ENDMDL
MODEL 5
REMARK VINA RESULT:      -6.3      3.251      4.956
REMARK  Name = 
REMARK  5 active torsions:
REMARK  status: ('A' for Active; 'I' for Inactive)
REMARK    1  A    between atoms: C_1  and  C_2
REMARK    2  A    between atoms: C_2  and  C_3
REMARK    3  A    between atoms: C_6  and  C_7
REMARK    4  A    between atoms: C_7  and  N_8
REMARK    5  A    between atoms: C_9  and  C_11
REMARK                            x       y       z     vdW  Elec       q    Type
REMARK                         _______ _______ _______ _____ _____    ______ ____
ROOT
ATOM      1  N   UNL     1       5.473   3.792  17.753  0.00  0.00    +0.000 N 
ATOM      2  C   UNL     1       4.331   3.992  17.016  0.00  0.00    +0.000 C 
ATOM      3  O   UNL     1       4.374   4.347  15.841  0.00  0.00    +0.000 OA
ATOM      4  H   UNL     1       5.432   3.772  18.763  0.00  0.00    +0.000 HD
ENDROOT
BRANCH   2   5
ATOM      5  C   UNL     1       3.004   3.809  17.740  0.00  0.00    +0.000 C 
ATOM      6  C   UNL     1       2.729   2.298  17.894  0.00  0.00    +0.000 C 
ATOM      7  C   UNL     1       1.583   2.148  18.868  0.00  0.00    +0.000 C 
ATOM      8  S   UNL     1       1.932   3.347  20.134  0.00  0.00    +0.000 S 
ATOM      9  O   UNL     1       2.744   2.724  21.157  0.00  0.00    +0.000 OA
ATOM     10  O   UNL     1       0.702   4.050  20.446  0.00  0.00    +0.000 OA
ATOM     11  C   UNL     1       2.979   4.412  19.145  0.00  0.00    +0.000 C 
ENDBRANCH   2   5
BRANCH   1  12
ATOM     12  C   UNL     1       6.753   4.114  17.149  0.00  0.00    +0.000 C 
BRANCH  12  16
ATOM     13  C   UNL     1       7.901   7.773  17.998  0.00  0.00    +0.000 A 
ATOM     14  C   UNL     1       8.303   6.984  19.055  0.00  0.00    +0.000 A 
ATOM     15  C   UNL     1       7.930   5.620  18.882  0.00  0.00    +0.000 A 
ATOM     16  C   UNL     1       7.261   5.406  17.694  0.00  0.00    +0.000 A 
ATOM     17  S   UNL     1       7.096   6.854  16.798  0.00  0.00    +0.000 S 
BRANCH  13  19
ATOM     18  C   UNL     1       9.028   9.816  18.884  0.00  0.00    +0.000 C 
ATOM     19  C   UNL     1       8.095   9.249  17.823  0.00  0.00    +0.000 C 
ENDBRANCH  13  19
ENDBRANCH  12  16
ENDBRANCH   1  12
TORSDOF 4
ENDMDL
MODEL 6
REMARK VINA RESULT:      -6.3      1.679      1.934
REMARK  Name = 
REMARK  5 active torsions:
REMARK  status: ('A' for Active; 'I' for Inactive)
REMARK    1  A    between atoms: C_1  and  C_2
REMARK    2  A    between atoms: C_2  and  C_3
REMARK    3  A    between atoms: C_6  and  C_7
REMARK    4  A    between atoms: C_7  and  N_8
REMARK    5  A    between atoms: C_9  and  C_11
REMARK                            x       y       z     vdW  Elec       q    Type
REMARK                         _______ _______ _______ _____ _____    ______ ____
ROOT
ATOM      1  N   UNL     1       5.722   4.901  16.783  0.00  0.00    +0.000 N 
ATOM      2  C   UNL     1       4.749   5.841  17.021  0.00  0.00    +0.000 C 
ATOM      3  O   UNL     1       4.802   6.964  16.526  0.00  0.00    +0.000 OA
ATOM      4  H   UNL     1       5.818   4.100  17.394  0.00  0.00    +0.000 HD
ENDROOT
BRANCH   2   5
ATOM      5  C   UNL     1       3.629   5.446  17.974  0.00  0.00    +0.000 C 
ATOM      6  C   UNL     1       2.957   4.162  17.443  0.00  0.00    +0.000 C 
ATOM      7  C   UNL     1       2.071   3.630  18.547  0.00  0.00    +0.000 C 
ATOM      8  S   UNL     1       3.041   3.847  20.021  0.00  0.00    +0.000 S 
ATOM      9  O   UNL     1       3.840   2.659  20.234  0.00  0.00    +0.000 OA
ATOM     10  O   UNL     1       2.182   4.396  21.053  0.00  0.00    +0.000 OA
ATOM     11  C   UNL     1       4.105   5.145  19.395  0.00  0.00    +0.000 C 
ENDBRANCH   2   5
BRANCH   1  12
ATOM     12  C   UNL     1       6.889   5.290  16.013  0.00  0.00    +0.000 C 
BRANCH  12  16
ATOM     13  C   UNL     1       6.107   3.524  12.593  0.00  0.00    +0.000 A 
ATOM     14  C   UNL     1       7.201   4.335  12.371  0.00  0.00    +0.000 A 
ATOM     15  C   UNL     1       7.584   5.055  13.539  0.00  0.00    +0.000 A 
ATOM     16  C   UNL     1       6.776   4.767  14.621  0.00  0.00    +0.000 A 
ATOM     17  S   UNL     1       5.568   3.626  14.215  0.00  0.00    +0.000 S 
BRANCH  13  19
ATOM     18  C   UNL     1       4.079   3.229  11.169  0.00  0.00    +0.000 C 
ATOM     19  C   UNL     1       5.407   2.632  11.613  0.00  0.00    +0.000 C 
ENDBRANCH  13  19
ENDBRANCH  12  16
ENDBRANCH   1  12
TORSDOF 4
ENDMDL
MODEL 7
REMARK VINA RESULT:      -6.3      1.542      1.738
REMARK  Name = 
REMARK  5 active torsions:
REMARK  status: ('A' for Active; 'I' for Inactive)
REMARK    1  A    between atoms: C_1  and  C_2
REMARK    2  A    between atoms: C_2  and  C_3
REMARK    3  A    between atoms: C_6  and  C_7
REMARK    4  A    between atoms: C_7  and  N_8
REMARK    5  A    between atoms: C_9  and  C_11
REMARK                            x       y       z     vdW  Elec       q    Type
REMARK                         _______ _______ _______ _____ _____    ______ ____
ROOT
ATOM      1  N   UNL     1       5.990   4.760  16.668  0.00  0.00    +0.000 N 
ATOM      2  C   UNL     1       5.228   5.625  17.417  0.00  0.00    +0.000 C 
ATOM      3  O   UNL     1       5.333   6.843  17.301  0.00  0.00    +0.000 OA
ATOM      4  H   UNL     1       6.099   3.796  16.955  0.00  0.00    +0.000 HD
ENDROOT
BRANCH   2   5
ATOM      5  C   UNL     1       4.289   5.003  18.441  0.00  0.00    +0.000 C 
ATOM      6  C   UNL     1       2.999   4.554  17.722  0.00  0.00    +0.000 C 
ATOM      7  C   UNL     1       2.229   3.681  18.685  0.00  0.00    +0.000 C 
ATOM      8  S   UNL     1       3.480   2.675  19.451  0.00  0.00    +0.000 S 
ATOM      9  O   UNL     1       3.657   1.472  18.666  0.00  0.00    +0.000 OA
ATOM     10  O   UNL     1       3.221   2.636  20.878  0.00  0.00    +0.000 OA
ATOM     11  C   UNL     1       4.863   3.769  19.138  0.00  0.00    +0.000 C 
ENDBRANCH   2   5
BRANCH   1  12
ATOM     12  C   UNL     1       7.013   5.312  15.799  0.00  0.00    +0.000 C 
BRANCH  12  16
ATOM     13  C   UNL     1       6.131   3.482  12.438  0.00  0.00    +0.000 A 
ATOM     14  C   UNL     1       7.212   4.294  12.166  0.00  0.00    +0.000 A 
ATOM     15  C   UNL     1       7.628   5.036  13.308  0.00  0.00    +0.000 A 
ATOM     16  C   UNL     1       6.858   4.764  14.421  0.00  0.00    +0.000 A 
ATOM     17  S   UNL     1       5.644   3.610  14.075  0.00  0.00    +0.000 S 
BRANCH  13  19
ATOM     18  C   UNL     1       6.236   1.337  11.166  0.00  0.00    +0.000 C 
ATOM     19  C   UNL     1       5.404   2.568  11.498  0.00  0.00    +0.000 C 
ENDBRANCH  13  19
ENDBRANCH  12  16
ENDBRANCH   1  12
TORSDOF 4
ENDMDL
MODEL 8
REMARK VINA RESULT:      -6.2      1.529      1.874
REMARK  Name = 
REMARK  5 active torsions:
REMARK  status: ('A' for Active; 'I' for Inactive)
REMARK    1  A    between atoms: C_1  and  C_2
REMARK    2  A    between atoms: C_2  and  C_3
REMARK    3  A    between atoms: C_6  and  C_7
REMARK    4  A    between atoms: C_7  and  N_8
REMARK    5  A    between atoms: C_9  and  C_11
REMARK                            x       y       z     vdW  Elec       q    Type
REMARK                         _______ _______ _______ _____ _____    ______ ____
ROOT
ATOM      1  N   UNL     1       5.847   4.122  18.586  0.00  0.00    +0.000 N 
ATOM      2  C   UNL     1       4.890   5.062  18.883  0.00  0.00    +0.000 C 
ATOM      3  O   UNL     1       4.982   6.223  18.494  0.00  0.00    +0.000 OA
ATOM      4  H   UNL     1       5.907   3.268  19.123  0.00  0.00    +0.000 HD
ENDROOT
BRANCH   2   5
ATOM      5  C   UNL     1       3.736   4.613  19.770  0.00  0.00    +0.000 C 
ATOM      6  C   UNL     1       2.408   5.029  19.103  0.00  0.00    +0.000 C 
ATOM      7  C   UNL     1       1.295   4.315  19.835  0.00  0.00    +0.000 C 
ATOM      8  S   UNL     1       1.936   2.678  20.103  0.00  0.00    +0.000 S 
ATOM      9  O   UNL     1       1.584   1.847  18.972  0.00  0.00    +0.000 OA
ATOM     10  O   UNL     1       1.638   2.291  21.469  0.00  0.00    +0.000 OA
ATOM     11  C   UNL     1       3.673   3.100  19.982  0.00  0.00    +0.000 C 
ENDBRANCH   2   5
BRANCH   1  12
ATOM     12  C   UNL     1       7.042   4.549  17.882  0.00  0.00    +0.000 C 
BRANCH  12  16
ATOM     13  C   UNL     1       5.903   4.084  14.153  0.00  0.00    +0.000 A 
ATOM     14  C   UNL     1       7.044   4.858  14.117  0.00  0.00    +0.000 A 
ATOM     15  C   UNL     1       7.558   5.120  15.419  0.00  0.00    +0.000 A 
ATOM     16  C   UNL     1       6.799   4.532  16.412  0.00  0.00    +0.000 A 
ATOM     17  S   UNL     1       5.477   3.666  15.757  0.00  0.00    +0.000 S 
BRANCH  13  19
ATOM     18  C   UNL     1       5.930   2.969  11.920  0.00  0.00    +0.000 C 
ATOM     19  C   UNL     1       5.070   3.615  12.997  0.00  0.00    +0.000 C 
ENDBRANCH  13  19
ENDBRANCH  12  16
ENDBRANCH   1  12
TORSDOF 4
ENDMDL
MODEL 9
REMARK VINA RESULT:      -6.1      5.166      8.863
REMARK  Name = 
REMARK  5 active torsions:
REMARK  status: ('A' for Active; 'I' for Inactive)
REMARK    1  A    between atoms: C_1  and  C_2
REMARK    2  A    between atoms: C_2  and  C_3
REMARK    3  A    between atoms: C_6  and  C_7
REMARK    4  A    between atoms: C_7  and  N_8
REMARK    5  A    between atoms: C_9  and  C_11
REMARK                            x       y       z     vdW  Elec       q    Type
REMARK                         _______ _______ _______ _____ _____    ______ ____
ROOT
ATOM      1  N   UNL     1       2.230   7.412  20.402  0.00  0.00    +0.000 N 
ATOM      2  C   UNL     1       2.440   6.354  19.552  0.00  0.00    +0.000 C 
ATOM      3  O   UNL     1       2.125   6.406  18.366  0.00  0.00    +0.000 OA
ATOM      4  H   UNL     1       2.234   7.270  21.404  0.00  0.00    +0.000 HD
ENDROOT
BRANCH   2   5
ATOM      5  C   UNL     1       3.030   5.089  20.160  0.00  0.00    +0.000 C 
ATOM      6  C   UNL     1       1.886   4.089  20.430  0.00  0.00    +0.000 C 
ATOM      7  C   UNL     1       2.522   2.753  20.740  0.00  0.00    +0.000 C 
ATOM      8  S   UNL     1       3.853   2.626  19.569  0.00  0.00    +0.000 S 
ATOM      9  O   UNL     1       3.358   1.992  18.366  0.00  0.00    +0.000 OA
ATOM     10  O   UNL     1       5.029   2.144  20.269  0.00  0.00    +0.000 OA
ATOM     11  C   UNL     1       4.038   4.380  19.255  0.00  0.00    +0.000 C 
ENDBRANCH   2   5
BRANCH   1  12
ATOM     12  C   UNL     1       1.521   8.575  19.900  0.00  0.00    +0.000 C 
BRANCH  12  16
ATOM     13  C   UNL     1      -0.660  10.723  22.360  0.00  0.00    +0.000 A 
ATOM     14  C   UNL     1      -0.204   9.643  23.087  0.00  0.00    +0.000 A 
ATOM     15  C   UNL     1       0.594   8.763  22.301  0.00  0.00    +0.000 A 
ATOM     16  C   UNL     1       0.733   9.202  20.999  0.00  0.00    +0.000 A 
ATOM     17  S   UNL     1      -0.100  10.674  20.743  0.00  0.00    +0.000 S 
BRANCH  13  19
ATOM     18  C   UNL     1      -0.852  13.197  22.636  0.00  0.00    +0.000 C 
ATOM     19  C   UNL     1      -1.532  11.848  22.830  0.00  0.00    +0.000 C 
ENDBRANCH  13  19
ENDBRANCH  12  16
ENDBRANCH   1  12
TORSDOF 4
ENDMDL
