MODEL 1
REMARK VINA RESULT:      -8.8      0.000      0.000
REMARK  Name = 
REMARK  10 active torsions:
REMARK  status: ('A' for Active; 'I' for Inactive)
REMARK    1  A    between atoms: C_1  and  C_2
REMARK    2  A    between atoms: C_2  and  C_3
REMARK    3  A    between atoms: C_2  and  N_4
REMARK    4  A    between atoms: N_4  and  C_5
REMARK    5  A    between atoms: C_5  and  C_6
REMARK    6  A    between atoms: C_6  and  C_7
REMARK    7  A    between atoms: N_9  and  C_10
REMARK    8  A    between atoms: C_14  and  C_15
REMARK    9  A    between atoms: C_25  and  C_26
REMARK   10  A    between atoms: C_28  and  C_29
REMARK                            x       y       z     vdW  Elec       q    Type
REMARK                         _______ _______ _______ _____ _____    ______ ____
ROOT
ATOM      1  C   UNL     1       4.461   5.841  18.438  0.00  0.00    +0.000 A 
ATOM      2  S   UNL     1       5.152   4.301  18.489  0.00  0.00    +0.000 S 
ATOM      3  C   UNL     1       3.671   3.602  18.929  0.00  0.00    +0.000 A 
ATOM      4  C   UNL     1       2.668   4.548  19.133  0.00  0.00    +0.000 A 
ATOM      5  C   UNL     1       3.156   5.906  18.892  0.00  0.00    +0.000 A 
ATOM      6  C   UNL     1       1.299   4.073  19.558  0.00  0.00    +0.000 C 
ATOM      7  C   UNL     1       1.306   2.576  20.018  0.00  0.00    +0.000 C 
ATOM      8  C   UNL     1       1.642   2.420  21.504  0.00  0.00    +0.000 C 
ATOM      9  N   UNL     1       2.142   1.688  19.173  0.00  0.00    +0.000 NA
ATOM     10  C   UNL     1       3.552   2.105  19.060  0.00  0.00    +0.000 C 
ATOM     11  C   UNL     1       4.428   1.519  20.174  0.00  0.00    +0.000 C 
ATOM     12  H   UNL     1       1.750   1.712  18.230  0.00  0.00    +0.000 HD
ENDROOT
BRANCH   5  13
ATOM     13  C   UNL     1       2.421   7.243  19.112  0.00  0.00    +0.000 A 
ATOM     14  N   UNL     1       1.910   7.658  20.257  0.00  0.00    +0.000 NA
ATOM     15  C   UNL     1       1.265   8.899  20.082  0.00  0.00    +0.000 A 
ATOM     16  C   UNL     1       0.532   9.633  21.046  0.00  0.00    +0.000 A 
ATOM     17  C   UNL     1      -0.089  10.847  20.694  0.00  0.00    +0.000 A 
ATOM     18  C   UNL     1       0.042  11.366  19.411  0.00  0.00    +0.000 A 
ATOM     19  C   UNL     1       0.777  10.678  18.449  0.00  0.00    +0.000 A 
ATOM     20  C   UNL     1       1.358   9.444  18.803  0.00  0.00    +0.000 A 
ATOM     21  S   UNL     1       2.254   8.386  17.818  0.00  0.00    +0.000 S 
ENDBRANCH   5  13
BRANCH   1  24
ATOM     22  C   UNL     1       5.962   6.719  16.776  0.00  0.00    +0.000 C 
ATOM     23  O   UNL     1       7.018   7.341  16.624  0.00  0.00    +0.000 OA
ATOM     24  N   UNL     1       5.358   6.788  18.006  0.00  0.00    +0.000 N 
ATOM     25  H   UNL     1       6.080   7.037  18.673  0.00  0.00    +0.000 HD
BRANCH  22  26
ATOM     26  C   UNL     1       5.333   5.918  15.642  0.00  0.00    +0.000 C 
BRANCH  26  27
ATOM     27  C   UNL     1       6.426   5.122  14.918  0.00  0.00    +0.000 C 
BRANCH  27  28
ATOM     28  N   UNL     1       5.908   3.857  14.384  0.00  0.00    +0.000 NA
ATOM     29  H   UNL     1       6.213   3.089  14.984  0.00  0.00    +0.000 HD
BRANCH  28  31
ATOM     30  C   UNL     1       5.133   3.444  12.114  0.00  0.00    +0.000 C 
ATOM     31  C   UNL     1       6.366   3.589  13.009  0.00  0.00    +0.000 C 
ATOM     32  C   UNL     1       7.269   4.691  12.450  0.00  0.00    +0.000 C 
ENDBRANCH  28  31
ENDBRANCH  27  28
ENDBRANCH  26  27
ENDBRANCH  22  26
ENDBRANCH   1  24
TORSDOF 6
ENDMDL
MODEL 2
REMARK VINA RESULT:      -8.7      0.771      1.178
REMARK  Name = 
REMARK  10 active torsions:
REMARK  status: ('A' for Active; 'I' for Inactive)
REMARK    1  A    between atoms: C_1  and  C_2
REMARK    2  A    between atoms: C_2  and  C_3
REMARK    3  A    between atoms: C_2  and  N_4
REMARK    4  A    between atoms: N_4  and  C_5
REMARK    5  A    between atoms: C_5  and  C_6
REMARK    6  A    between atoms: C_6  and  C_7
REMARK    7  A    between atoms: N_9  and  C_10
REMARK    8  A    between atoms: C_14  and  C_15
REMARK    9  A    between atoms: C_25  and  C_26
REMARK   10  A    between atoms: C_28  and  C_29
REMARK                            x       y       z     vdW  Elec       q    Type
REMARK                         _______ _______ _______ _____ _____    ______ ____
ROOT
ATOM      1  C   UNL     1       4.463   5.737  18.264  0.00  0.00    +0.000 A 
ATOM      2  S   UNL     1       5.121   4.183  18.330  0.00  0.00    +0.000 S 
ATOM      3  C   UNL     1       3.639   3.527  18.827  0.00  0.00    +0.000 A 
ATOM      4  C   UNL     1       2.663   4.500  19.039  0.00  0.00    +0.000 A 
ATOM      5  C   UNL     1       3.174   5.841  18.754  0.00  0.00    +0.000 A 
ATOM      6  C   UNL     1       1.297   4.065  19.513  0.00  0.00    +0.000 C 
ATOM      7  C   UNL     1       1.285   2.579  20.006  0.00  0.00    +0.000 C 
ATOM      8  C   UNL     1       1.660   2.448  21.485  0.00  0.00    +0.000 C 
ATOM      9  N   UNL     1       2.075   1.655  19.157  0.00  0.00    +0.000 NA
ATOM     10  C   UNL     1       3.491   2.037  18.995  0.00  0.00    +0.000 C 
ATOM     11  C   UNL     1       4.386   1.455  20.095  0.00  0.00    +0.000 C 
ATOM     12  H   UNL     1       1.657   1.667  18.226  0.00  0.00    +0.000 HD
ENDROOT
BRANCH   5  13
ATOM     13  C   UNL     1       2.475   7.198  18.965  0.00  0.00    +0.000 A 
ATOM     14  N   UNL     1       2.354   8.147  18.053  0.00  0.00    +0.000 NA
ATOM     15  C   UNL     1       1.707   9.272  18.605  0.00  0.00    +0.000 A 
ATOM     16  C   UNL     1       1.458  10.517  17.978  0.00  0.00    +0.000 A 
ATOM     17  C   UNL     1       0.830  11.559  18.688  0.00  0.00    +0.000 A 
ATOM     18  C   UNL     1       0.405  11.369  19.998  0.00  0.00    +0.000 A 
ATOM     19  C   UNL     1       0.613  10.147  20.632  0.00  0.00    +0.000 A 
ATOM     20  C   UNL     1       1.281   9.128  19.924  0.00  0.00    +0.000 A 
ATOM     21  S   UNL     1       1.705   7.575  20.472  0.00  0.00    +0.000 S 
ENDBRANCH   5  13
BRANCH   1  24
ATOM     22  C   UNL     1       6.025   6.483  16.593  0.00  0.00    +0.000 C 
ATOM     23  O   UNL     1       7.080   7.103  16.429  0.00  0.00    +0.000 OA
ATOM     24  N   UNL     1       5.369   6.653  17.785  0.00  0.00    +0.000 N 
ATOM     25  H   UNL     1       6.060   6.971  18.457  0.00  0.00    +0.000 HD
BRANCH  22  26
ATOM     26  C   UNL     1       5.452   5.574  15.511  0.00  0.00    +0.000 C 
BRANCH  26  27
ATOM     27  C   UNL     1       6.604   4.912  14.744  0.00  0.00    +0.000 C 
BRANCH  27  28
ATOM     28  N   UNL     1       6.215   3.601  14.212  0.00  0.00    +0.000 NA
ATOM     29  H   UNL     1       6.772   2.876  14.667  0.00  0.00    +0.000 HD
BRANCH  28  31
ATOM     30  C   UNL     1       5.031   3.510  12.088  0.00  0.00    +0.000 C 
ATOM     31  C   UNL     1       6.409   3.497  12.756  0.00  0.00    +0.000 C 
ATOM     32  C   UNL     1       7.261   4.630  12.179  0.00  0.00    +0.000 C 
ENDBRANCH  28  31
ENDBRANCH  27  28
ENDBRANCH  26  27
ENDBRANCH  22  26
ENDBRANCH   1  24
TORSDOF 6
ENDMDL
MODEL 3
REMARK VINA RESULT:      -8.6      2.363      7.016
REMARK  Name = 
REMARK  10 active torsions:
REMARK  status: ('A' for Active; 'I' for Inactive)
REMARK    1  A    between atoms: C_1  and  C_2
REMARK    2  A    between atoms: C_2  and  C_3
REMARK    3  A    between atoms: C_2  and  N_4
REMARK    4  A    between atoms: N_4  and  C_5
REMARK    5  A    between atoms: C_5  and  C_6
REMARK    6  A    between atoms: C_6  and  C_7
REMARK    7  A    between atoms: N_9  and  C_10
REMARK    8  A    between atoms: C_14  and  C_15
REMARK    9  A    between atoms: C_25  and  C_26
REMARK   10  A    between atoms: C_28  and  C_29
REMARK                            x       y       z     vdW  Elec       q    Type
REMARK                         _______ _______ _______ _____ _____    ______ ____
ROOT
ATOM      1  C   UNL     1       2.274   6.458  20.400  0.00  0.00    +0.000 A 
ATOM      2  S   UNL     1       1.195   7.383  21.312  0.00  0.00    +0.000 S 
ATOM      3  C   UNL     1       1.032   8.511  20.057  0.00  0.00    +0.000 A 
ATOM      4  C   UNL     1       1.871   8.241  18.977  0.00  0.00    +0.000 A 
ATOM      5  C   UNL     1       2.663   7.033  19.204  0.00  0.00    +0.000 A 
ATOM      6  C   UNL     1       1.854   9.180  17.794  0.00  0.00    +0.000 C 
ATOM      7  C   UNL     1       1.105  10.519  18.109  0.00  0.00    +0.000 C 
ATOM      8  C   UNL     1       2.026  11.576  18.728  0.00  0.00    +0.000 C 
ATOM      9  N   UNL     1      -0.136  10.345  18.901  0.00  0.00    +0.000 NA
ATOM     10  C   UNL     1       0.055   9.652  20.190  0.00  0.00    +0.000 C 
ATOM     11  C   UNL     1       0.397  10.618  21.330  0.00  0.00    +0.000 C 
ATOM     12  H   UNL     1      -0.770   9.768  18.347  0.00  0.00    +0.000 HD
ENDROOT
BRANCH   5  13
ATOM     13  C   UNL     1       3.787   6.444  18.329  0.00  0.00    +0.000 A 
ATOM     14  N   UNL     1       3.854   6.524  17.011  0.00  0.00    +0.000 NA
ATOM     15  C   UNL     1       4.986   5.831  16.538  0.00  0.00    +0.000 A 
ATOM     16  C   UNL     1       5.367   5.618  15.191  0.00  0.00    +0.000 A 
ATOM     17  C   UNL     1       6.516   4.863  14.887  0.00  0.00    +0.000 A 
ATOM     18  C   UNL     1       7.319   4.352  15.900  0.00  0.00    +0.000 A 
ATOM     19  C   UNL     1       6.984   4.567  17.235  0.00  0.00    +0.000 A 
ATOM     20  C   UNL     1       5.808   5.288  17.524  0.00  0.00    +0.000 A 
ATOM     21  S   UNL     1       5.146   5.645  19.050  0.00  0.00    +0.000 S 
ENDBRANCH   5  13
BRANCH   1  24
ATOM     22  C   UNL     1       1.825   4.192  21.073  0.00  0.00    +0.000 C 
ATOM     23  O   UNL     1       2.006   3.374  21.980  0.00  0.00    +0.000 OA
ATOM     24  N   UNL     1       2.631   5.302  21.052  0.00  0.00    +0.000 N 
ATOM     25  H   UNL     1       2.981   5.428  21.996  0.00  0.00    +0.000 HD
BRANCH  22  26
ATOM     26  C   UNL     1       0.763   3.980  20.000  0.00  0.00    +0.000 C 
BRANCH  26  27
ATOM     27  C   UNL     1       1.378   3.209  18.825  0.00  0.00    +0.000 C 
BRANCH  27  28
ATOM     28  N   UNL     1       1.940   1.924  19.256  0.00  0.00    +0.000 NA
ATOM     29  H   UNL     1       1.975   1.898  20.276  0.00  0.00    +0.000 HD
BRANCH  28  31
ATOM     30  C   UNL     1       3.492   2.573  17.498  0.00  0.00    +0.000 C 
ATOM     31  C   UNL     1       3.298   1.691  18.734  0.00  0.00    +0.000 C 
ATOM     32  C   UNL     1       4.397   2.002  19.753  0.00  0.00    +0.000 C 
ENDBRANCH  28  31
ENDBRANCH  27  28
ENDBRANCH  26  27
ENDBRANCH  22  26
ENDBRANCH   1  24
TORSDOF 6
ENDMDL
MODEL 4
REMARK VINA RESULT:      -8.3      1.022      1.146
REMARK  Name = 
REMARK  10 active torsions:
REMARK  status: ('A' for Active; 'I' for Inactive)
REMARK    1  A    between atoms: C_1  and  C_2
REMARK    2  A    between atoms: C_2  and  C_3
REMARK    3  A    between atoms: C_2  and  N_4
REMARK    4  A    between atoms: N_4  and  C_5
REMARK    5  A    between atoms: C_5  and  C_6
REMARK    6  A    between atoms: C_6  and  C_7
REMARK    7  A    between atoms: N_9  and  C_10
REMARK    8  A    between atoms: C_14  and  C_15
REMARK    9  A    between atoms: C_25  and  C_26
REMARK   10  A    between atoms: C_28  and  C_29
REMARK                            x       y       z     vdW  Elec       q    Type
REMARK                         _______ _______ _______ _____ _____    ______ ____
ROOT
ATOM      1  C   UNL     1       3.814   5.780  17.685  0.00  0.00    +0.000 A 
ATOM      2  S   UNL     1       4.356   4.193  17.487  0.00  0.00    +0.000 S 
ATOM      3  C   UNL     1       3.027   3.584  18.346  0.00  0.00    +0.000 A 
ATOM      4  C   UNL     1       2.217   4.590  18.870  0.00  0.00    +0.000 A 
ATOM      5  C   UNL     1       2.721   5.919  18.521  0.00  0.00    +0.000 A 
ATOM      6  C   UNL     1       1.009   4.196  19.685  0.00  0.00    +0.000 C 
ATOM      7  C   UNL     1       1.031   2.683  20.087  0.00  0.00    +0.000 C 
ATOM      8  C   UNL     1       1.790   2.433  21.394  0.00  0.00    +0.000 C 
ATOM      9  N   UNL     1       1.490   1.778  19.006  0.00  0.00    +0.000 NA
ATOM     10  C   UNL     1       2.829   2.095  18.473  0.00  0.00    +0.000 C 
ATOM     11  C   UNL     1       3.950   1.395  19.250  0.00  0.00    +0.000 C 
ATOM     12  H   UNL     1       0.833   1.874  18.231  0.00  0.00    +0.000 HD
ENDROOT
BRANCH   5  13
ATOM     13  C   UNL     1       2.203   7.293  18.986  0.00  0.00    +0.000 A 
ATOM     14  N   UNL     1       1.907   7.620  20.231  0.00  0.00    +0.000 NA
ATOM     15  C   UNL     1       1.412   8.939  20.285  0.00  0.00    +0.000 A 
ATOM     16  C   UNL     1       0.916   9.628  21.418  0.00  0.00    +0.000 A 
ATOM     17  C   UNL     1       0.418  10.940  21.291  0.00  0.00    +0.000 A 
ATOM     18  C   UNL     1       0.446  11.594  20.066  0.00  0.00    +0.000 A 
ATOM     19  C   UNL     1       0.951  10.950  18.938  0.00  0.00    +0.000 A 
ATOM     20  C   UNL     1       1.406   9.624  19.071  0.00  0.00    +0.000 A 
ATOM     21  S   UNL     1       2.018   8.599  17.859  0.00  0.00    +0.000 S 
ENDBRANCH   5  13
BRANCH   1  24
ATOM     22  C   UNL     1       5.961   6.778  17.255  0.00  0.00    +0.000 C 
ATOM     23  O   UNL     1       6.516   7.836  16.943  0.00  0.00    +0.000 OA
ATOM     24  N   UNL     1       4.613   6.678  17.018  0.00  0.00    +0.000 N 
ATOM     25  H   UNL     1       4.252   7.625  16.971  0.00  0.00    +0.000 HD
BRANCH  22  26
ATOM     26  C   UNL     1       6.734   5.614  17.862  0.00  0.00    +0.000 C 
BRANCH  26  27
ATOM     27  C   UNL     1       7.464   4.855  16.747  0.00  0.00    +0.000 C 
BRANCH  27  28
ATOM     28  N   UNL     1       7.332   5.535  15.454  0.00  0.00    +0.000 NA
ATOM     29  H   UNL     1       6.523   6.157  15.483  0.00  0.00    +0.000 HD
BRANCH  28  31
ATOM     30  C   UNL     1       5.670   4.314  14.163  0.00  0.00    +0.000 C 
ATOM     31  C   UNL     1       7.164   4.597  14.330  0.00  0.00    +0.000 C 
ATOM     32  C   UNL     1       7.728   5.130  13.011  0.00  0.00    +0.000 C 
ENDBRANCH  28  31
ENDBRANCH  27  28
ENDBRANCH  26  27
ENDBRANCH  22  26
ENDBRANCH   1  24
TORSDOF 6
ENDMDL
MODEL 5
REMARK VINA RESULT:      -8.3      1.243      1.613
REMARK  Name = 
REMARK  10 active torsions:
REMARK  status: ('A' for Active; 'I' for Inactive)
REMARK    1  A    between atoms: C_1  and  C_2
REMARK    2  A    between atoms: C_2  and  C_3
REMARK    3  A    between atoms: C_2  and  N_4
REMARK    4  A    between atoms: N_4  and  C_5
REMARK    5  A    between atoms: C_5  and  C_6
REMARK    6  A    between atoms: C_6  and  C_7
REMARK    7  A    between atoms: N_9  and  C_10
REMARK    8  A    between atoms: C_14  and  C_15
REMARK    9  A    between atoms: C_25  and  C_26
REMARK   10  A    between atoms: C_28  and  C_29
REMARK                            x       y       z     vdW  Elec       q    Type
REMARK                         _______ _______ _______ _____ _____    ______ ____
ROOT
ATOM      1  C   UNL     1       3.782   5.760  17.652  0.00  0.00    +0.000 A 
ATOM      2  S   UNL     1       4.338   4.175  17.476  0.00  0.00    +0.000 S 
ATOM      3  C   UNL     1       3.029   3.569  18.367  0.00  0.00    +0.000 A 
ATOM      4  C   UNL     1       2.216   4.576  18.885  0.00  0.00    +0.000 A 
ATOM      5  C   UNL     1       2.699   5.903  18.502  0.00  0.00    +0.000 A 
ATOM      6  C   UNL     1       1.025   4.185  19.726  0.00  0.00    +0.000 C 
ATOM      7  C   UNL     1       1.070   2.680  20.157  0.00  0.00    +0.000 C 
ATOM      8  C   UNL     1       1.852   2.465  21.456  0.00  0.00    +0.000 C 
ATOM      9  N   UNL     1       1.523   1.759  19.086  0.00  0.00    +0.000 NA
ATOM     10  C   UNL     1       2.850   2.081  18.527  0.00  0.00    +0.000 C 
ATOM     11  C   UNL     1       3.991   1.408  19.299  0.00  0.00    +0.000 C 
ATOM     12  H   UNL     1       0.854   1.833  18.320  0.00  0.00    +0.000 HD
ENDROOT
BRANCH   5  13
ATOM     13  C   UNL     1       2.173   7.281  18.948  0.00  0.00    +0.000 A 
ATOM     14  N   UNL     1       2.014   8.331  18.162  0.00  0.00    +0.000 NA
ATOM     15  C   UNL     1       1.565   9.437  18.913  0.00  0.00    +0.000 A 
ATOM     16  C   UNL     1       1.350  10.760  18.456  0.00  0.00    +0.000 A 
ATOM     17  C   UNL     1       0.935  11.764  19.352  0.00  0.00    +0.000 A 
ATOM     18  C   UNL     1       0.686  11.466  20.686  0.00  0.00    +0.000 A 
ATOM     19  C   UNL     1       0.865  10.168  21.160  0.00  0.00    +0.000 A 
ATOM     20  C   UNL     1       1.321   9.183  20.262  0.00  0.00    +0.000 A 
ATOM     21  S   UNL     1       1.668   7.549  20.585  0.00  0.00    +0.000 S 
ENDBRANCH   5  13
BRANCH   1  24
ATOM     22  C   UNL     1       5.905   6.792  17.188  0.00  0.00    +0.000 C 
ATOM     23  O   UNL     1       6.437   7.851  16.841  0.00  0.00    +0.000 OA
ATOM     24  N   UNL     1       4.560   6.653  16.956  0.00  0.00    +0.000 N 
ATOM     25  H   UNL     1       4.178   7.590  16.877  0.00  0.00    +0.000 HD
BRANCH  22  26
ATOM     26  C   UNL     1       6.704   5.666  17.833  0.00  0.00    +0.000 C 
BRANCH  26  27
ATOM     27  C   UNL     1       7.447   4.884  16.742  0.00  0.00    +0.000 C 
BRANCH  27  28
ATOM     28  N   UNL     1       7.360   5.556  15.441  0.00  0.00    +0.000 NA
ATOM     29  H   UNL     1       6.575   6.208  15.452  0.00  0.00    +0.000 HD
BRANCH  28  31
ATOM     30  C   UNL     1       5.674   4.348  14.169  0.00  0.00    +0.000 C 
ATOM     31  C   UNL     1       7.173   4.613  14.324  0.00  0.00    +0.000 C 
ATOM     32  C   UNL     1       7.734   5.132  12.997  0.00  0.00    +0.000 C 
ENDBRANCH  28  31
ENDBRANCH  27  28
ENDBRANCH  26  27
ENDBRANCH  22  26
ENDBRANCH   1  24
TORSDOF 6
ENDMDL
MODEL 6
REMARK VINA RESULT:      -8.2      2.490      6.961
REMARK  Name = 
REMARK  10 active torsions:
REMARK  status: ('A' for Active; 'I' for Inactive)
REMARK    1  A    between atoms: C_1  and  C_2
REMARK    2  A    between atoms: C_2  and  C_3
REMARK    3  A    between atoms: C_2  and  N_4
REMARK    4  A    between atoms: N_4  and  C_5
REMARK    5  A    between atoms: C_5  and  C_6
REMARK    6  A    between atoms: C_6  and  C_7
REMARK    7  A    between atoms: N_9  and  C_10
REMARK    8  A    between atoms: C_14  and  C_15
REMARK    9  A    between atoms: C_25  and  C_26
REMARK   10  A    between atoms: C_28  and  C_29
REMARK                            x       y       z     vdW  Elec       q    Type
REMARK                         _______ _______ _______ _____ _____    ______ ____
ROOT
ATOM      1  C   UNL     1       2.173   6.570  20.493  0.00  0.00    +0.000 A 
ATOM      2  S   UNL     1       1.101   7.510  21.398  0.00  0.00    +0.000 S 
ATOM      3  C   UNL     1       0.951   8.633  20.136  0.00  0.00    +0.000 A 
ATOM      4  C   UNL     1       1.790   8.350  19.060  0.00  0.00    +0.000 A 
ATOM      5  C   UNL     1       2.571   7.135  19.295  0.00  0.00    +0.000 A 
ATOM      6  C   UNL     1       1.785   9.282  17.872  0.00  0.00    +0.000 C 
ATOM      7  C   UNL     1       1.048  10.630  18.179  0.00  0.00    +0.000 C 
ATOM      8  C   UNL     1       1.977  11.681  18.794  0.00  0.00    +0.000 C 
ATOM      9  N   UNL     1      -0.197  10.471  18.969  0.00  0.00    +0.000 NA
ATOM     10  C   UNL     1      -0.015   9.783  20.262  0.00  0.00    +0.000 C 
ATOM     11  C   UNL     1       0.334  10.752  21.398  0.00  0.00    +0.000 C 
ATOM     12  H   UNL     1      -0.835   9.898  18.417  0.00  0.00    +0.000 HD
ENDROOT
BRANCH   5  13
ATOM     13  C   UNL     1       3.690   6.531  18.425  0.00  0.00    +0.000 A 
ATOM     14  N   UNL     1       4.650   5.732  18.857  0.00  0.00    +0.000 NA
ATOM     15  C   UNL     1       5.530   5.414  17.802  0.00  0.00    +0.000 A 
ATOM     16  C   UNL     1       6.721   4.651  17.874  0.00  0.00    +0.000 A 
ATOM     17  C   UNL     1       7.512   4.459  16.725  0.00  0.00    +0.000 A 
ATOM     18  C   UNL     1       7.118   4.974  15.496  0.00  0.00    +0.000 A 
ATOM     19  C   UNL     1       5.938   5.708  15.390  0.00  0.00    +0.000 A 
ATOM     20  C   UNL     1       5.178   5.928  16.556  0.00  0.00    +0.000 A 
ATOM     21  S   UNL     1       3.740   6.822  16.716  0.00  0.00    +0.000 S 
ENDBRANCH   5  13
BRANCH   1  24
ATOM     22  C   UNL     1       1.739   4.285  21.111  0.00  0.00    +0.000 C 
ATOM     23  O   UNL     1       1.884   3.460  22.017  0.00  0.00    +0.000 OA
ATOM     24  N   UNL     1       2.518   5.414  21.152  0.00  0.00    +0.000 N 
ATOM     25  H   UNL     1       2.807   5.535  22.117  0.00  0.00    +0.000 HD
BRANCH  22  26
ATOM     26  C   UNL     1       0.750   4.062  19.973  0.00  0.00    +0.000 C 
BRANCH  26  27
ATOM     27  C   UNL     1       1.418   3.220  18.879  0.00  0.00    +0.000 C 
BRANCH  27  28
ATOM     28  N   UNL     1       2.030   2.005  19.429  0.00  0.00    +0.000 NA
ATOM     29  H   UNL     1       2.081   2.087  20.446  0.00  0.00    +0.000 HD
BRANCH  28  31
ATOM     30  C   UNL     1       3.538   2.535  17.595  0.00  0.00    +0.000 C 
ATOM     31  C   UNL     1       3.386   1.763  18.908  0.00  0.00    +0.000 C 
ATOM     32  C   UNL     1       4.490   2.192  19.877  0.00  0.00    +0.000 C 
ENDBRANCH  28  31
ENDBRANCH  27  28
ENDBRANCH  26  27
ENDBRANCH  22  26
ENDBRANCH   1  24
TORSDOF 6
ENDMDL
MODEL 7
REMARK VINA RESULT:      -7.7      2.407      7.080
REMARK  Name = 
REMARK  10 active torsions:
REMARK  status: ('A' for Active; 'I' for Inactive)
REMARK    1  A    between atoms: C_1  and  C_2
REMARK    2  A    between atoms: C_2  and  C_3
REMARK    3  A    between atoms: C_2  and  N_4
REMARK    4  A    between atoms: N_4  and  C_5
REMARK    5  A    between atoms: C_5  and  C_6
REMARK    6  A    between atoms: C_6  and  C_7
REMARK    7  A    between atoms: N_9  and  C_10
REMARK    8  A    between atoms: C_14  and  C_15
REMARK    9  A    between atoms: C_25  and  C_26
REMARK   10  A    between atoms: C_28  and  C_29
REMARK                            x       y       z     vdW  Elec       q    Type
REMARK                         _______ _______ _______ _____ _____    ______ ____
ROOT
ATOM      1  C   UNL     1       2.333   6.458  20.374  0.00  0.00    +0.000 A 
ATOM      2  S   UNL     1       1.366   7.477  21.310  0.00  0.00    +0.000 S 
ATOM      3  C   UNL     1       1.141   8.537  20.006  0.00  0.00    +0.000 A 
ATOM      4  C   UNL     1       1.880   8.172  18.882  0.00  0.00    +0.000 A 
ATOM      5  C   UNL     1       2.645   6.948  19.118  0.00  0.00    +0.000 A 
ATOM      6  C   UNL     1       1.802   9.042  17.650  0.00  0.00    +0.000 C 
ATOM      7  C   UNL     1       1.129  10.426  17.941  0.00  0.00    +0.000 C 
ATOM      8  C   UNL     1       2.134  11.477  18.421  0.00  0.00    +0.000 C 
ATOM      9  N   UNL     1      -0.050  10.347  18.838  0.00  0.00    +0.000 NA
ATOM     10  C   UNL     1       0.221   9.722  20.147  0.00  0.00    +0.000 C 
ATOM     11  C   UNL     1       0.688  10.738  21.196  0.00  0.00    +0.000 C 
ATOM     12  H   UNL     1      -0.747   9.766  18.371  0.00  0.00    +0.000 HD
ENDROOT
BRANCH   5  13
ATOM     13  C   UNL     1       3.672   6.265  18.195  0.00  0.00    +0.000 A 
ATOM     14  N   UNL     1       4.938   6.619  18.062  0.00  0.00    +0.000 NA
ATOM     15  C   UNL     1       5.570   5.811  17.094  0.00  0.00    +0.000 A 
ATOM     16  C   UNL     1       6.897   5.924  16.611  0.00  0.00    +0.000 A 
ATOM     17  C   UNL     1       7.364   5.055  15.606  0.00  0.00    +0.000 A 
ATOM     18  C   UNL     1       6.549   4.047  15.104  0.00  0.00    +0.000 A 
ATOM     19  C   UNL     1       5.248   3.896  15.578  0.00  0.00    +0.000 A 
ATOM     20  C   UNL     1       4.780   4.799  16.553  0.00  0.00    +0.000 A 
ATOM     21  S   UNL     1       3.234   4.872  17.259  0.00  0.00    +0.000 S 
ENDBRANCH   5  13
BRANCH   1  24
ATOM     22  C   UNL     1       1.870   4.243  21.192  0.00  0.00    +0.000 C 
ATOM     23  O   UNL     1       2.085   3.468  22.128  0.00  0.00    +0.000 OA
ATOM     24  N   UNL     1       2.700   5.328  21.065  0.00  0.00    +0.000 N 
ATOM     25  H   UNL     1       3.109   5.493  21.979  0.00  0.00    +0.000 HD
BRANCH  22  26
ATOM     26  C   UNL     1       0.742   4.005  20.195  0.00  0.00    +0.000 C 
BRANCH  26  27
ATOM     27  C   UNL     1       1.163   2.913  19.204  0.00  0.00    +0.000 C 
BRANCH  27  28
ATOM     28  N   UNL     1       2.189   2.032  19.775  0.00  0.00    +0.000 NA
ATOM     29  H   UNL     1       2.279   2.225  20.774  0.00  0.00    +0.000 HD
BRANCH  28  31
ATOM     30  C   UNL     1       4.582   2.042  20.220  0.00  0.00    +0.000 C 
ATOM     31  C   UNL     1       3.508   2.209  19.142  0.00  0.00    +0.000 C 
ATOM     32  C   UNL     1       3.771   1.212  18.010  0.00  0.00    +0.000 C 
ENDBRANCH  28  31
ENDBRANCH  27  28
ENDBRANCH  26  27
ENDBRANCH  22  26
ENDBRANCH   1  24
TORSDOF 6
ENDMDL
MODEL 8
REMARK VINA RESULT:      -7.5      1.001      1.503
REMARK  Name = 
REMARK  10 active torsions:
REMARK  status: ('A' for Active; 'I' for Inactive)
REMARK    1  A    between atoms: C_1  and  C_2
REMARK    2  A    between atoms: C_2  and  C_3
REMARK    3  A    between atoms: C_2  and  N_4
REMARK    4  A    between atoms: N_4  and  C_5
REMARK    5  A    between atoms: C_5  and  C_6
REMARK    6  A    between atoms: C_6  and  C_7
REMARK    7  A    between atoms: N_9  and  C_10
REMARK    8  A    between atoms: C_14  and  C_15
REMARK    9  A    between atoms: C_25  and  C_26
REMARK   10  A    between atoms: C_28  and  C_29
REMARK                            x       y       z     vdW  Elec       q    Type
REMARK                         _______ _______ _______ _____ _____    ______ ____
ROOT
ATOM      1  C   UNL     1       4.555   5.890  18.791  0.00  0.00    +0.000 A 
ATOM      2  S   UNL     1       5.255   4.357  18.898  0.00  0.00    +0.000 S 
ATOM      3  C   UNL     1       3.748   3.640  19.197  0.00  0.00    +0.000 A 
ATOM      4  C   UNL     1       2.720   4.575  19.313  0.00  0.00    +0.000 A 
ATOM      5  C   UNL     1       3.214   5.939  19.124  0.00  0.00    +0.000 A 
ATOM      6  C   UNL     1       1.324   4.083  19.608  0.00  0.00    +0.000 C 
ATOM      7  C   UNL     1       1.305   2.583  20.060  0.00  0.00    +0.000 C 
ATOM      8  C   UNL     1       1.505   2.423  21.570  0.00  0.00    +0.000 C 
ATOM      9  N   UNL     1       2.223   1.709  19.290  0.00  0.00    +0.000 NA
ATOM     10  C   UNL     1       3.634   2.141  19.309  0.00  0.00    +0.000 C 
ATOM     11  C   UNL     1       4.411   1.558  20.496  0.00  0.00    +0.000 C 
ATOM     12  H   UNL     1       1.920   1.735  18.316  0.00  0.00    +0.000 HD
ENDROOT
BRANCH   5  13
ATOM     13  C   UNL     1       2.447   7.266  19.281  0.00  0.00    +0.000 A 
ATOM     14  N   UNL     1       2.344   8.206  18.358  0.00  0.00    +0.000 NA
ATOM     15  C   UNL     1       1.617   9.304  18.860  0.00  0.00    +0.000 A 
ATOM     16  C   UNL     1       1.357  10.535  18.210  0.00  0.00    +0.000 A 
ATOM     17  C   UNL     1       0.643  11.552  18.873  0.00  0.00    +0.000 A 
ATOM     18  C   UNL     1       0.144  11.351  20.155  0.00  0.00    +0.000 A 
ATOM     19  C   UNL     1       0.363  10.140  20.809  0.00  0.00    +0.000 A 
ATOM     20  C   UNL     1       1.115   9.148  20.151  0.00  0.00    +0.000 A 
ATOM     21  S   UNL     1       1.569   7.616  20.735  0.00  0.00    +0.000 S 
ENDBRANCH   5  13
BRANCH   1  24
ATOM     22  C   UNL     1       5.711   7.209  17.144  0.00  0.00    +0.000 C 
ATOM     23  O   UNL     1       6.793   7.746  16.886  0.00  0.00    +0.000 OA
ATOM     24  N   UNL     1       5.478   6.848  18.447  0.00  0.00    +0.000 N 
ATOM     25  H   UNL     1       6.386   6.755  18.891  0.00  0.00    +0.000 HD
BRANCH  22  26
ATOM     26  C   UNL     1       4.659   6.967  16.068  0.00  0.00    +0.000 C 
BRANCH  26  27
ATOM     27  C   UNL     1       5.245   6.059  14.980  0.00  0.00    +0.000 C 
BRANCH  27  28
ATOM     28  N   UNL     1       4.949   4.645  15.239  0.00  0.00    +0.000 NA
ATOM     29  H   UNL     1       4.624   4.541  16.201  0.00  0.00    +0.000 HD
BRANCH  28  31
ATOM     30  C   UNL     1       6.448   3.748  13.545  0.00  0.00    +0.000 C 
ATOM     31  C   UNL     1       6.118   3.772  15.039  0.00  0.00    +0.000 C 
ATOM     32  C   UNL     1       7.352   4.231  15.821  0.00  0.00    +0.000 C 
ENDBRANCH  28  31
ENDBRANCH  27  28
ENDBRANCH  26  27
ENDBRANCH  22  26
ENDBRANCH   1  24
TORSDOF 6
ENDMDL
MODEL 9
REMARK VINA RESULT:      -7.2      4.529     10.040
REMARK  Name = 
REMARK  10 active torsions:
REMARK  status: ('A' for Active; 'I' for Inactive)
REMARK    1  A    between atoms: C_1  and  C_2
REMARK    2  A    between atoms: C_2  and  C_3
REMARK    3  A    between atoms: C_2  and  N_4
REMARK    4  A    between atoms: N_4  and  C_5
REMARK    5  A    between atoms: C_5  and  C_6
REMARK    6  A    between atoms: C_6  and  C_7
REMARK    7  A    between atoms: N_9  and  C_10
REMARK    8  A    between atoms: C_14  and  C_15
REMARK    9  A    between atoms: C_25  and  C_26
REMARK   10  A    between atoms: C_28  and  C_29
REMARK                            x       y       z     vdW  Elec       q    Type
REMARK                         _______ _______ _______ _____ _____    ______ ____
ROOT
ATOM      1  C   UNL     1      -0.762  10.889  18.756  0.00  0.00    +0.000 A 
ATOM      2  S   UNL     1      -1.460  12.401  19.035  0.00  0.00    +0.000 S 
ATOM      3  C   UNL     1       0.044  13.171  18.898  0.00  0.00    +0.000 A 
ATOM      4  C   UNL     1       1.097  12.272  18.736  0.00  0.00    +0.000 A 
ATOM      5  C   UNL     1       0.620  10.890  18.705  0.00  0.00    +0.000 A 
ATOM      6  C   UNL     1       2.502  12.814  18.628  0.00  0.00    +0.000 C 
ATOM      7  C   UNL     1       2.591  14.322  19.041  0.00  0.00    +0.000 C 
ATOM      8  C   UNL     1       2.809  14.507  20.546  0.00  0.00    +0.000 C 
ATOM      9  N   UNL     1       1.465  15.151  18.546  0.00  0.00    +0.000 NA
ATOM     10  C   UNL     1       0.131  14.675  18.959  0.00  0.00    +0.000 C 
ATOM     11  C   UNL     1      -0.309  15.257  20.307  0.00  0.00    +0.000 C 
ATOM     12  H   UNL     1       1.489  15.115  17.527  0.00  0.00    +0.000 HD
ENDROOT
BRANCH   5  13
ATOM     13  C   UNL     1       1.448   9.590  18.659  0.00  0.00    +0.000 A 
ATOM     14  N   UNL     1       2.260   9.234  17.681  0.00  0.00    +0.000 NA
ATOM     15  C   UNL     1       2.812   7.963  17.944  0.00  0.00    +0.000 A 
ATOM     16  C   UNL     1       3.664   7.203  17.106  0.00  0.00    +0.000 A 
ATOM     17  C   UNL     1       4.096   5.923  17.506  0.00  0.00    +0.000 A 
ATOM     18  C   UNL     1       3.733   5.404  18.742  0.00  0.00    +0.000 A 
ATOM     19  C   UNL     1       2.916   6.140  19.598  0.00  0.00    +0.000 A 
ATOM     20  C   UNL     1       2.456   7.400  19.168  0.00  0.00    +0.000 A 
ATOM     21  S   UNL     1       1.417   8.472  19.985  0.00  0.00    +0.000 S 
ENDBRANCH   5  13
BRANCH   1  24
ATOM     22  C   UNL     1      -2.694   9.882  17.736  0.00  0.00    +0.000 C 
ATOM     23  O   UNL     1      -3.710   9.223  17.976  0.00  0.00    +0.000 OA
ATOM     24  N   UNL     1      -1.709   9.895  18.690  0.00  0.00    +0.000 N 
ATOM     25  H   UNL     1      -2.152   9.661  19.573  0.00  0.00    +0.000 HD
BRANCH  22  26
ATOM     26  C   UNL     1      -2.520  10.640  16.426  0.00  0.00    +0.000 C 
BRANCH  26  27
ATOM     27  C   UNL     1      -3.871  11.227  15.997  0.00  0.00    +0.000 C 
BRANCH  27  28
ATOM     28  N   UNL     1      -4.464  12.049  17.058  0.00  0.00    +0.000 NA
ATOM     29  H   UNL     1      -4.177  11.682  17.967  0.00  0.00    +0.000 HD
BRANCH  28  31
ATOM     30  C   UNL     1      -6.470  11.249  18.181  0.00  0.00    +0.000 C 
ATOM     31  C   UNL     1      -5.937  12.072  17.005  0.00  0.00    +0.000 C 
ATOM     32  C   UNL     1      -6.520  13.486  17.073  0.00  0.00    +0.000 C 
ENDBRANCH  28  31
ENDBRANCH  27  28
ENDBRANCH  26  27
ENDBRANCH  22  26
ENDBRANCH   1  24
TORSDOF 6
ENDMDL
