MODEL 1
REMARK VINA RESULT:      -8.3      0.000      0.000
REMARK  Name = 
REMARK  8 active torsions:
REMARK  status: ('A' for Active; 'I' for Inactive)
REMARK    1  A    between atoms: C_1  and  C_2
REMARK    2  A    between atoms: C_5  and  C_6
REMARK    3  A    between atoms: C_12  and  C_13
REMARK    4  A    between atoms: C_13  and  O_14
REMARK    5  A    between atoms: O_14  and  C_15
REMARK    6  A    between atoms: C_18  and  C_19
REMARK    7  A    between atoms: N_21  and  C_22
REMARK    8  A    between atoms: C_22  and  C_23
REMARK                            x       y       z     vdW  Elec       q    Type
REMARK                         _______ _______ _______ _____ _____    ______ ____
ROOT
ATOM      1  C   UNL     1       2.454   7.456  19.455  0.00  0.00    +0.000 A 
ATOM      2  C   UNL     1       2.437   7.909  18.149  0.00  0.00    +0.000 A 
ATOM      3  C   UNL     1       1.657   9.027  17.841  0.00  0.00    +0.000 A 
ATOM      4  C   UNL     1       0.896   9.626  18.851  0.00  0.00    +0.000 A 
ATOM      5  C   UNL     1       0.970   9.085  20.127  0.00  0.00    +0.000 A 
ATOM      6  N   UNL     1       1.732   8.010  20.450  0.00  0.00    +0.000 NA
ENDROOT
BRANCH   4   7
ATOM      7  C   UNL     1       0.038  10.817  18.645  0.00  0.00    +0.000 C 
ATOM      8  O   UNL     1       0.234  11.824  19.312  0.00  0.00    +0.000 OA
ATOM      9  N   UNL     1      -0.967  10.697  17.711  0.00  0.00    +0.000 N 
ATOM     10  H   UNL     1      -1.099   9.823  17.227  0.00  0.00    +0.000 HD
BRANCH   9  11
ATOM     11  C   UNL     1      -1.864  11.793  17.384  0.00  0.00    +0.000 C 
BRANCH  11  12
ATOM     12  C   UNL     1      -3.045  11.331  16.518  0.00  0.00    +0.000 C 
ATOM     13  C   UNL     1      -4.403  11.649  17.119  0.00  0.00    +0.000 C 
ATOM     14  C   UNL     1      -4.585  10.540  18.132  0.00  0.00    +0.000 C 
ATOM     15  O   UNL     1      -3.893   9.398  17.611  0.00  0.00    +0.000 OA
ATOM     16  C   UNL     1      -3.112   9.811  16.476  0.00  0.00    +0.000 C 
ENDBRANCH  11  12
ENDBRANCH   9  11
ENDBRANCH   4   7
BRANCH   1  17
ATOM     17  O   UNL     1       3.234   6.346  19.714  0.00  0.00    +0.000 OA
BRANCH  17  18
ATOM     18  C   UNL     1       2.448   5.152  19.812  0.00  0.00    +0.000 C 
BRANCH  18  24
ATOM     19  C   UNL     1       0.848   2.395  18.825  0.00  0.00    +0.000 C 
ATOM     20  C   UNL     1       2.134   2.993  18.422  0.00  0.00    +0.000 A 
ATOM     21  O   UNL     1       2.826   2.333  17.465  0.00  0.00    +0.000 OA
ATOM     22  N   UNL     1       4.006   2.992  17.205  0.00  0.00    +0.000 NA
ATOM     23  C   UNL     1       4.042   4.054  18.029  0.00  0.00    +0.000 A 
ATOM     24  C   UNL     1       2.837   4.117  18.809  0.00  0.00    +0.000 A 
BRANCH  23  25
ATOM     25  C   UNL     1       5.205   4.951  18.031  0.00  0.00    +0.000 A 
ATOM     26  C   UNL     1       6.192   4.834  19.023  0.00  0.00    +0.000 A 
ATOM     27  C   UNL     1       7.297   5.693  19.039  0.00  0.00    +0.000 A 
ATOM     28  C   UNL     1       7.431   6.680  18.067  0.00  0.00    +0.000 A 
ATOM     29  C   UNL     1       6.455   6.818  17.084  0.00  0.00    +0.000 A 
ATOM     30  C   UNL     1       5.343   5.973  17.080  0.00  0.00    +0.000 A 
ENDBRANCH  23  25
ENDBRANCH  18  24
ENDBRANCH  17  18
ENDBRANCH   1  17
TORSDOF 7
ENDMDL
MODEL 2
REMARK VINA RESULT:      -8.3      2.669      3.410
REMARK  Name = 
REMARK  8 active torsions:
REMARK  status: ('A' for Active; 'I' for Inactive)
REMARK    1  A    between atoms: C_1  and  C_2
REMARK    2  A    between atoms: C_5  and  C_6
REMARK    3  A    between atoms: C_12  and  C_13
REMARK    4  A    between atoms: C_13  and  O_14
REMARK    5  A    between atoms: O_14  and  C_15
REMARK    6  A    between atoms: C_18  and  C_19
REMARK    7  A    between atoms: N_21  and  C_22
REMARK    8  A    between atoms: C_22  and  C_23
REMARK                            x       y       z     vdW  Elec       q    Type
REMARK                         _______ _______ _______ _____ _____    ______ ____
ROOT
ATOM      1  C   UNL     1       2.353   7.707  18.864  0.00  0.00    +0.000 A 
ATOM      2  C   UNL     1       1.962   8.544  17.836  0.00  0.00    +0.000 A 
ATOM      3  C   UNL     1       1.106   9.609  18.132  0.00  0.00    +0.000 A 
ATOM      4  C   UNL     1       0.647   9.769  19.444  0.00  0.00    +0.000 A 
ATOM      5  C   UNL     1       1.085   8.864  20.401  0.00  0.00    +0.000 A 
ATOM      6  N   UNL     1       1.927   7.833  20.137  0.00  0.00    +0.000 NA
ENDROOT
BRANCH   4   7
ATOM      7  C   UNL     1      -0.258  10.860  19.877  0.00  0.00    +0.000 C 
ATOM      8  O   UNL     1      -1.373  10.952  19.379  0.00  0.00    +0.000 OA
ATOM      9  N   UNL     1       0.239  11.736  20.815  0.00  0.00    +0.000 N 
ATOM     10  H   UNL     1       1.182  11.626  21.152  0.00  0.00    +0.000 HD
BRANCH   9  11
ATOM     11  C   UNL     1      -0.548  12.834  21.353  0.00  0.00    +0.000 C 
BRANCH  11  12
ATOM     12  C   UNL     1      -0.897  12.621  22.833  0.00  0.00    +0.000 C 
ATOM     13  C   UNL     1      -2.110  11.735  23.053  0.00  0.00    +0.000 C 
ATOM     14  C   UNL     1      -3.263  12.686  22.816  0.00  0.00    +0.000 C 
ATOM     15  O   UNL     1      -2.806  13.984  23.220  0.00  0.00    +0.000 OA
ATOM     16  C   UNL     1      -1.389  13.921  23.456  0.00  0.00    +0.000 C 
ENDBRANCH  11  12
ENDBRANCH   9  11
ENDBRANCH   4   7
BRANCH   1  17
ATOM     17  O   UNL     1       3.196   6.666  18.526  0.00  0.00    +0.000 OA
BRANCH  17  18
ATOM     18  C   UNL     1       3.285   5.690  19.573  0.00  0.00    +0.000 C 
BRANCH  18  24
ATOM     19  C   UNL     1       1.087   3.379  20.553  0.00  0.00    +0.000 C 
ATOM     20  C   UNL     1       2.136   3.374  19.516  0.00  0.00    +0.000 A 
ATOM     21  O   UNL     1       2.259   2.235  18.795  0.00  0.00    +0.000 OA
ATOM     22  N   UNL     1       3.281   2.368  17.884  0.00  0.00    +0.000 NA
ATOM     23  C   UNL     1       3.802   3.595  18.067  0.00  0.00    +0.000 A 
ATOM     24  C   UNL     1       3.070   4.296  19.086  0.00  0.00    +0.000 A 
BRANCH  23  25
ATOM     25  C   UNL     1       4.952   4.039  17.270  0.00  0.00    +0.000 A 
ATOM     26  C   UNL     1       4.866   4.101  15.869  0.00  0.00    +0.000 A 
ATOM     27  C   UNL     1       5.962   4.511  15.101  0.00  0.00    +0.000 A 
ATOM     28  C   UNL     1       7.158   4.863  15.720  0.00  0.00    +0.000 A 
ATOM     29  C   UNL     1       7.265   4.794  17.106  0.00  0.00    +0.000 A 
ATOM     30  C   UNL     1       6.177   4.366  17.870  0.00  0.00    +0.000 A 
ENDBRANCH  23  25
ENDBRANCH  18  24
ENDBRANCH  17  18
ENDBRANCH   1  17
TORSDOF 7
ENDMDL
MODEL 3
REMARK VINA RESULT:      -8.3      1.137      1.479
REMARK  Name = 
REMARK  8 active torsions:
REMARK  status: ('A' for Active; 'I' for Inactive)
REMARK    1  A    between atoms: C_1  and  C_2
REMARK    2  A    between atoms: C_5  and  C_6
REMARK    3  A    between atoms: C_12  and  C_13
REMARK    4  A    between atoms: C_13  and  O_14
REMARK    5  A    between atoms: O_14  and  C_15
REMARK    6  A    between atoms: C_18  and  C_19
REMARK    7  A    between atoms: N_21  and  C_22
REMARK    8  A    between atoms: C_22  and  C_23
REMARK                            x       y       z     vdW  Elec       q    Type
REMARK                         _______ _______ _______ _____ _____    ______ ____
ROOT
ATOM      1  C   UNL     1       2.778   7.375  18.976  0.00  0.00    +0.000 A 
ATOM      2  C   UNL     1       2.594   8.050  17.785  0.00  0.00    +0.000 A 
ATOM      3  C   UNL     1       1.650   9.082  17.742  0.00  0.00    +0.000 A 
ATOM      4  C   UNL     1       0.904   9.370  18.890  0.00  0.00    +0.000 A 
ATOM      5  C   UNL     1       1.154   8.622  20.032  0.00  0.00    +0.000 A 
ATOM      6  N   UNL     1       2.074   7.627  20.099  0.00  0.00    +0.000 NA
ENDROOT
BRANCH   4   7
ATOM      7  C   UNL     1      -0.117  10.442  18.966  0.00  0.00    +0.000 C 
ATOM      8  O   UNL     1      -0.397  10.932  20.052  0.00  0.00    +0.000 OA
ATOM      9  N   UNL     1      -0.717  10.805  17.781  0.00  0.00    +0.000 N 
ATOM     10  H   UNL     1      -0.469  10.329  16.928  0.00  0.00    +0.000 HD
BRANCH   9  11
ATOM     11  C   UNL     1      -1.713  11.861  17.702  0.00  0.00    +0.000 C 
BRANCH  11  12
ATOM     12  C   UNL     1      -2.859  11.500  16.744  0.00  0.00    +0.000 C 
ATOM     13  C   UNL     1      -4.237  11.626  17.369  0.00  0.00    +0.000 C 
ATOM     14  C   UNL     1      -4.361  10.340  18.157  0.00  0.00    +0.000 C 
ATOM     15  O   UNL     1      -3.600   9.355  17.448  0.00  0.00    +0.000 OA
ATOM     16  C   UNL     1      -2.836  10.012  16.422  0.00  0.00    +0.000 C 
ENDBRANCH  11  12
ENDBRANCH   9  11
ENDBRANCH   4   7
BRANCH   1  17
ATOM     17  O   UNL     1       3.716   6.361  18.973  0.00  0.00    +0.000 OA
BRANCH  17  18
ATOM     18  C   UNL     1       3.384   5.322  19.904  0.00  0.00    +0.000 C 
BRANCH  18  24
ATOM     19  C   UNL     1       1.165   2.941  20.641  0.00  0.00    +0.000 C 
ATOM     20  C   UNL     1       2.178   3.058  19.575  0.00  0.00    +0.000 A 
ATOM     21  O   UNL     1       2.248   2.026  18.702  0.00  0.00    +0.000 OA
ATOM     22  N   UNL     1       3.243   2.263  17.781  0.00  0.00    +0.000 NA
ATOM     23  C   UNL     1       3.798   3.442  18.110  0.00  0.00    +0.000 A 
ATOM     24  C   UNL     1       3.119   4.012  19.241  0.00  0.00    +0.000 A 
BRANCH  23  25
ATOM     25  C   UNL     1       4.931   3.969  17.338  0.00  0.00    +0.000 A 
ATOM     26  C   UNL     1       4.804   4.208  15.960  0.00  0.00    +0.000 A 
ATOM     27  C   UNL     1       5.883   4.697  15.215  0.00  0.00    +0.000 A 
ATOM     28  C   UNL     1       7.102   4.954  15.835  0.00  0.00    +0.000 A 
ATOM     29  C   UNL     1       7.250   4.710  17.197  0.00  0.00    +0.000 A 
ATOM     30  C   UNL     1       6.178   4.203  17.936  0.00  0.00    +0.000 A 
ENDBRANCH  23  25
ENDBRANCH  18  24
ENDBRANCH  17  18
ENDBRANCH   1  17
TORSDOF 7
ENDMDL
MODEL 4
REMARK VINA RESULT:      -8.2      2.731      3.362
REMARK  Name = 
REMARK  8 active torsions:
REMARK  status: ('A' for Active; 'I' for Inactive)
REMARK    1  A    between atoms: C_1  and  C_2
REMARK    2  A    between atoms: C_5  and  C_6
REMARK    3  A    between atoms: C_12  and  C_13
REMARK    4  A    between atoms: C_13  and  O_14
REMARK    5  A    between atoms: O_14  and  C_15
REMARK    6  A    between atoms: C_18  and  C_19
REMARK    7  A    between atoms: N_21  and  C_22
REMARK    8  A    between atoms: C_22  and  C_23
REMARK                            x       y       z     vdW  Elec       q    Type
REMARK                         _______ _______ _______ _____ _____    ______ ____
ROOT
ATOM      1  C   UNL     1       2.406   7.490  18.805  0.00  0.00    +0.000 A 
ATOM      2  C   UNL     1       2.219   8.443  17.821  0.00  0.00    +0.000 A 
ATOM      3  C   UNL     1       1.567   9.632  18.161  0.00  0.00    +0.000 A 
ATOM      4  C   UNL     1       1.097   9.802  19.468  0.00  0.00    +0.000 A 
ATOM      5  C   UNL     1       1.321   8.778  20.377  0.00  0.00    +0.000 A 
ATOM      6  N   UNL     1       1.963   7.622  20.072  0.00  0.00    +0.000 NA
ENDROOT
BRANCH   4   7
ATOM      7  C   UNL     1       0.399  11.020  19.944  0.00  0.00    +0.000 C 
ATOM      8  O   UNL     1       0.894  12.120  19.737  0.00  0.00    +0.000 OA
ATOM      9  N   UNL     1      -0.779  10.825  20.630  0.00  0.00    +0.000 N 
ATOM     10  H   UNL     1      -1.109   9.888  20.802  0.00  0.00    +0.000 HD
BRANCH   9  11
ATOM     11  C   UNL     1      -1.585  11.928  21.127  0.00  0.00    +0.000 C 
BRANCH  11  12
ATOM     12  C   UNL     1      -1.463  12.089  22.650  0.00  0.00    +0.000 C 
ATOM     13  C   UNL     1      -2.796  12.038  23.376  0.00  0.00    +0.000 C 
ATOM     14  C   UNL     1      -3.337  13.437  23.173  0.00  0.00    +0.000 C 
ATOM     15  O   UNL     1      -2.198  14.304  23.097  0.00  0.00    +0.000 OA
ATOM     16  C   UNL     1      -1.010  13.499  23.002  0.00  0.00    +0.000 C 
ENDBRANCH  11  12
ENDBRANCH   9  11
ENDBRANCH   4   7
BRANCH   1  17
ATOM     17  O   UNL     1       3.049   6.328  18.426  0.00  0.00    +0.000 OA
BRANCH  17  18
ATOM     18  C   UNL     1       2.275   5.162  18.736  0.00  0.00    +0.000 C 
BRANCH  18  24
ATOM     19  C   UNL     1       1.638   3.284  21.420  0.00  0.00    +0.000 C 
ATOM     20  C   UNL     1       2.774   3.318  20.480  0.00  0.00    +0.000 A 
ATOM     21  O   UNL     1       3.767   2.428  20.710  0.00  0.00    +0.000 OA
ATOM     22  N   UNL     1       4.761   2.587  19.773  0.00  0.00    +0.000 NA
ATOM     23  C   UNL     1       4.379   3.600  18.976  0.00  0.00    +0.000 A 
ATOM     24  C   UNL     1       3.084   4.081  19.371  0.00  0.00    +0.000 A 
BRANCH  23  25
ATOM     25  C   UNL     1       5.252   4.054  17.885  0.00  0.00    +0.000 A 
ATOM     26  C   UNL     1       6.425   4.774  18.164  0.00  0.00    +0.000 A 
ATOM     27  C   UNL     1       7.254   5.221  17.130  0.00  0.00    +0.000 A 
ATOM     28  C   UNL     1       6.925   4.955  15.804  0.00  0.00    +0.000 A 
ATOM     29  C   UNL     1       5.759   4.255  15.509  0.00  0.00    +0.000 A 
ATOM     30  C   UNL     1       4.922   3.826  16.541  0.00  0.00    +0.000 A 
ENDBRANCH  23  25
ENDBRANCH  18  24
ENDBRANCH  17  18
ENDBRANCH   1  17
TORSDOF 7
ENDMDL
MODEL 5
REMARK VINA RESULT:      -8.2      0.820      1.170
REMARK  Name = 
REMARK  8 active torsions:
REMARK  status: ('A' for Active; 'I' for Inactive)
REMARK    1  A    between atoms: C_1  and  C_2
REMARK    2  A    between atoms: C_5  and  C_6
REMARK    3  A    between atoms: C_12  and  C_13
REMARK    4  A    between atoms: C_13  and  O_14
REMARK    5  A    between atoms: O_14  and  C_15
REMARK    6  A    between atoms: C_18  and  C_19
REMARK    7  A    between atoms: N_21  and  C_22
REMARK    8  A    between atoms: C_22  and  C_23
REMARK                            x       y       z     vdW  Elec       q    Type
REMARK                         _______ _______ _______ _____ _____    ______ ____
ROOT
ATOM      1  C   UNL     1       2.520   7.320  19.563  0.00  0.00    +0.000 A 
ATOM      2  C   UNL     1       2.519   7.765  18.255  0.00  0.00    +0.000 A 
ATOM      3  C   UNL     1       1.689   8.838  17.916  0.00  0.00    +0.000 A 
ATOM      4  C   UNL     1       0.866   9.399  18.898  0.00  0.00    +0.000 A 
ATOM      5  C   UNL     1       0.929   8.869  20.179  0.00  0.00    +0.000 A 
ATOM      6  N   UNL     1       1.738   7.838  20.532  0.00  0.00    +0.000 NA
ENDROOT
BRANCH   4   7
ATOM      7  C   UNL     1      -0.049  10.540  18.658  0.00  0.00    +0.000 C 
ATOM      8  O   UNL     1       0.349  11.682  18.844  0.00  0.00    +0.000 OA
ATOM      9  N   UNL     1      -1.328  10.229  18.256  0.00  0.00    +0.000 N 
ATOM     10  H   UNL     1      -1.603   9.263  18.163  0.00  0.00    +0.000 HD
BRANCH   9  11
ATOM     11  C   UNL     1      -2.322  11.247  17.955  0.00  0.00    +0.000 C 
BRANCH  11  12
ATOM     12  C   UNL     1      -3.595  10.645  17.341  0.00  0.00    +0.000 C 
ATOM     13  C   UNL     1      -3.324   9.510  16.368  0.00  0.00    +0.000 C 
ATOM     14  C   UNL     1      -2.942  10.245  15.101  0.00  0.00    +0.000 C 
ATOM     15  O   UNL     1      -3.664  11.484  15.118  0.00  0.00    +0.000 OA
ATOM     16  C   UNL     1      -4.265  11.649  16.414  0.00  0.00    +0.000 C 
ENDBRANCH  11  12
ENDBRANCH   9  11
ENDBRANCH   4   7
BRANCH   1  17
ATOM     17  O   UNL     1       3.351   6.256  19.854  0.00  0.00    +0.000 OA
BRANCH  17  18
ATOM     18  C   UNL     1       2.623   5.027  19.973  0.00  0.00    +0.000 C 
BRANCH  18  24
ATOM     19  C   UNL     1       0.611   2.614  18.848  0.00  0.00    +0.000 C 
ATOM     20  C   UNL     1       1.866   3.185  18.323  0.00  0.00    +0.000 A 
ATOM     21  O   UNL     1       2.318   2.663  17.159  0.00  0.00    +0.000 OA
ATOM     22  N   UNL     1       3.498   3.274  16.803  0.00  0.00    +0.000 NA
ATOM     23  C   UNL     1       3.778   4.164  17.772  0.00  0.00    +0.000 A 
ATOM     24  C   UNL     1       2.733   4.168  18.757  0.00  0.00    +0.000 A 
BRANCH  23  25
ATOM     25  C   UNL     1       5.009   4.962  17.712  0.00  0.00    +0.000 A 
ATOM     26  C   UNL     1       6.073   4.697  18.590  0.00  0.00    +0.000 A 
ATOM     27  C   UNL     1       7.244   5.462  18.548  0.00  0.00    +0.000 A 
ATOM     28  C   UNL     1       7.370   6.500  17.629  0.00  0.00    +0.000 A 
ATOM     29  C   UNL     1       6.321   6.785  16.761  0.00  0.00    +0.000 A 
ATOM     30  C   UNL     1       5.144   6.034  16.817  0.00  0.00    +0.000 A 
ENDBRANCH  23  25
ENDBRANCH  18  24
ENDBRANCH  17  18
ENDBRANCH   1  17
TORSDOF 7
ENDMDL
MODEL 6
REMARK VINA RESULT:      -8.2      2.794      4.678
REMARK  Name = 
REMARK  8 active torsions:
REMARK  status: ('A' for Active; 'I' for Inactive)
REMARK    1  A    between atoms: C_1  and  C_2
REMARK    2  A    between atoms: C_5  and  C_6
REMARK    3  A    between atoms: C_12  and  C_13
REMARK    4  A    between atoms: C_13  and  O_14
REMARK    5  A    between atoms: O_14  and  C_15
REMARK    6  A    between atoms: C_18  and  C_19
REMARK    7  A    between atoms: N_21  and  C_22
REMARK    8  A    between atoms: C_22  and  C_23
REMARK                            x       y       z     vdW  Elec       q    Type
REMARK                         _______ _______ _______ _____ _____    ______ ____
ROOT
ATOM      1  C   UNL     1       2.182   7.774  18.406  0.00  0.00    +0.000 A 
ATOM      2  C   UNL     1       1.866   7.689  19.749  0.00  0.00    +0.000 A 
ATOM      3  C   UNL     1       1.284   8.799  20.368  0.00  0.00    +0.000 A 
ATOM      4  C   UNL     1       1.074   9.963  19.622  0.00  0.00    +0.000 A 
ATOM      5  C   UNL     1       1.440   9.952  18.283  0.00  0.00    +0.000 A 
ATOM      6  N   UNL     1       1.994   8.882  17.660  0.00  0.00    +0.000 NA
ENDROOT
BRANCH   4   7
ATOM      7  C   UNL     1       0.461  11.197  20.169  0.00  0.00    +0.000 C 
ATOM      8  O   UNL     1       1.113  12.233  20.196  0.00  0.00    +0.000 OA
ATOM      9  N   UNL     1      -0.825  11.086  20.647  0.00  0.00    +0.000 N 
ATOM     10  H   UNL     1      -1.289  10.191  20.632  0.00  0.00    +0.000 HD
BRANCH   9  11
ATOM     11  C   UNL     1      -1.560  12.220  21.182  0.00  0.00    +0.000 C 
BRANCH  11  12
ATOM     12  C   UNL     1      -1.516  12.261  22.717  0.00  0.00    +0.000 C 
ATOM     13  C   UNL     1      -2.880  12.119  23.370  0.00  0.00    +0.000 C 
ATOM     14  C   UNL     1      -3.451  13.515  23.251  0.00  0.00    +0.000 C 
ATOM     15  O   UNL     1      -2.336  14.414  23.301  0.00  0.00    +0.000 OA
ATOM     16  C   UNL     1      -1.122  13.650  23.201  0.00  0.00    +0.000 C 
ENDBRANCH  11  12
ENDBRANCH   9  11
ENDBRANCH   4   7
BRANCH   1  17
ATOM     17  O   UNL     1       2.759   6.657  17.834  0.00  0.00    +0.000 OA
BRANCH  17  18
ATOM     18  C   UNL     1       4.138   6.875  17.510  0.00  0.00    +0.000 C 
BRANCH  18  24
ATOM     19  C   UNL     1       7.471   6.728  17.577  0.00  0.00    +0.000 C 
ATOM     20  C   UNL     1       6.428   5.855  18.147  0.00  0.00    +0.000 A 
ATOM     21  O   UNL     1       6.864   4.781  18.845  0.00  0.00    +0.000 OA
ATOM     22  N   UNL     1       5.788   4.053  19.299  0.00  0.00    +0.000 NA
ATOM     23  C   UNL     1       4.685   4.679  18.853  0.00  0.00    +0.000 A 
ATOM     24  C   UNL     1       5.047   5.870  18.134  0.00  0.00    +0.000 A 
BRANCH  23  25
ATOM     25  C   UNL     1       3.354   4.125  19.133  0.00  0.00    +0.000 A 
ATOM     26  C   UNL     1       2.676   3.374  18.158  0.00  0.00    +0.000 A 
ATOM     27  C   UNL     1       1.403   2.853  18.413  0.00  0.00    +0.000 A 
ATOM     28  C   UNL     1       0.788   3.075  19.642  0.00  0.00    +0.000 A 
ATOM     29  C   UNL     1       1.440   3.829  20.614  0.00  0.00    +0.000 A 
ATOM     30  C   UNL     1       2.703   4.364  20.352  0.00  0.00    +0.000 A 
ENDBRANCH  23  25
ENDBRANCH  18  24
ENDBRANCH  17  18
ENDBRANCH   1  17
TORSDOF 7
ENDMDL
MODEL 7
REMARK VINA RESULT:      -8.1      2.873      3.654
REMARK  Name = 
REMARK  8 active torsions:
REMARK  status: ('A' for Active; 'I' for Inactive)
REMARK    1  A    between atoms: C_1  and  C_2
REMARK    2  A    between atoms: C_5  and  C_6
REMARK    3  A    between atoms: C_12  and  C_13
REMARK    4  A    between atoms: C_13  and  O_14
REMARK    5  A    between atoms: O_14  and  C_15
REMARK    6  A    between atoms: C_18  and  C_19
REMARK    7  A    between atoms: N_21  and  C_22
REMARK    8  A    between atoms: C_22  and  C_23
REMARK                            x       y       z     vdW  Elec       q    Type
REMARK                         _______ _______ _______ _____ _____    ______ ____
ROOT
ATOM      1  C   UNL     1       2.262   7.577  19.162  0.00  0.00    +0.000 A 
ATOM      2  C   UNL     1       1.798   7.595  20.464  0.00  0.00    +0.000 A 
ATOM      3  C   UNL     1       0.972   8.651  20.862  0.00  0.00    +0.000 A 
ATOM      4  C   UNL     1       0.674   9.666  19.946  0.00  0.00    +0.000 A 
ATOM      5  C   UNL     1       1.203   9.562  18.667  0.00  0.00    +0.000 A 
ATOM      6  N   UNL     1       1.995   8.540  18.256  0.00  0.00    +0.000 NA
ENDROOT
BRANCH   4   7
ATOM      7  C   UNL     1      -0.192  10.829  20.252  0.00  0.00    +0.000 C 
ATOM      8  O   UNL     1      -1.256  10.961  19.661  0.00  0.00    +0.000 OA
ATOM      9  N   UNL     1       0.282  11.720  21.187  0.00  0.00    +0.000 N 
ATOM     10  H   UNL     1       1.187  11.572  21.606  0.00  0.00    +0.000 HD
BRANCH   9  11
ATOM     11  C   UNL     1      -0.474  12.888  21.608  0.00  0.00    +0.000 C 
BRANCH  11  12
ATOM     12  C   UNL     1      -1.105  12.697  22.995  0.00  0.00    +0.000 C 
ATOM     13  C   UNL     1      -2.482  12.057  22.955  0.00  0.00    +0.000 C 
ATOM     14  C   UNL     1      -3.379  13.223  22.600  0.00  0.00    +0.000 C 
ATOM     15  O   UNL     1      -2.764  14.391  23.158  0.00  0.00    +0.000 OA
ATOM     16  C   UNL     1      -1.445  14.045  23.616  0.00  0.00    +0.000 C 
ENDBRANCH  11  12
ENDBRANCH   9  11
ENDBRANCH   4   7
BRANCH   1  17
ATOM     17  O   UNL     1       3.078   6.519  18.811  0.00  0.00    +0.000 OA
BRANCH  17  18
ATOM     18  C   UNL     1       2.360   5.279  18.774  0.00  0.00    +0.000 C 
BRANCH  18  24
ATOM     19  C   UNL     1       1.672   3.363  21.418  0.00  0.00    +0.000 C 
ATOM     20  C   UNL     1       2.796   3.370  20.464  0.00  0.00    +0.000 A 
ATOM     21  O   UNL     1       3.750   2.430  20.657  0.00  0.00    +0.000 OA
ATOM     22  N   UNL     1       4.738   2.567  19.710  0.00  0.00    +0.000 NA
ATOM     23  C   UNL     1       4.393   3.617  18.944  0.00  0.00    +0.000 A 
ATOM     24  C   UNL     1       3.126   4.146  19.370  0.00  0.00    +0.000 A 
BRANCH  23  25
ATOM     25  C   UNL     1       5.271   4.059  17.853  0.00  0.00    +0.000 A 
ATOM     26  C   UNL     1       4.909   3.837  16.514  0.00  0.00    +0.000 A 
ATOM     27  C   UNL     1       5.746   4.243  15.469  0.00  0.00    +0.000 A 
ATOM     28  C   UNL     1       6.954   4.877  15.745  0.00  0.00    +0.000 A 
ATOM     29  C   UNL     1       7.334   5.093  17.066  0.00  0.00    +0.000 A 
ATOM     30  C   UNL     1       6.507   4.669  18.109  0.00  0.00    +0.000 A 
ENDBRANCH  23  25
ENDBRANCH  18  24
ENDBRANCH  17  18
ENDBRANCH   1  17
TORSDOF 7
ENDMDL
MODEL 8
REMARK VINA RESULT:      -8.1      1.499      1.897
REMARK  Name = 
REMARK  8 active torsions:
REMARK  status: ('A' for Active; 'I' for Inactive)
REMARK    1  A    between atoms: C_1  and  C_2
REMARK    2  A    between atoms: C_5  and  C_6
REMARK    3  A    between atoms: C_12  and  C_13
REMARK    4  A    between atoms: C_13  and  O_14
REMARK    5  A    between atoms: O_14  and  C_15
REMARK    6  A    between atoms: C_18  and  C_19
REMARK    7  A    between atoms: N_21  and  C_22
REMARK    8  A    between atoms: C_22  and  C_23
REMARK                            x       y       z     vdW  Elec       q    Type
REMARK                         _______ _______ _______ _____ _____    ______ ____
ROOT
ATOM      1  C   UNL     1       2.266   7.555  19.489  0.00  0.00    +0.000 A 
ATOM      2  C   UNL     1       1.608   8.013  20.615  0.00  0.00    +0.000 A 
ATOM      3  C   UNL     1       0.749   9.109  20.485  0.00  0.00    +0.000 A 
ATOM      4  C   UNL     1       0.612   9.723  19.236  0.00  0.00    +0.000 A 
ATOM      5  C   UNL     1       1.330   9.197  18.171  0.00  0.00    +0.000 A 
ATOM      6  N   UNL     1       2.158   8.127  18.272  0.00  0.00    +0.000 NA
ENDROOT
BRANCH   4   7
ATOM      7  C   UNL     1      -0.271  10.886  18.978  0.00  0.00    +0.000 C 
ATOM      8  O   UNL     1       0.193  12.017  19.025  0.00  0.00    +0.000 OA
ATOM      9  N   UNL     1      -1.594  10.608  18.723  0.00  0.00    +0.000 N 
ATOM     10  H   UNL     1      -1.919   9.654  18.741  0.00  0.00    +0.000 HD
BRANCH   9  11
ATOM     11  C   UNL     1      -2.566  11.646  18.422  0.00  0.00    +0.000 C 
BRANCH  11  12
ATOM     12  C   UNL     1      -3.910  11.062  17.964  0.00  0.00    +0.000 C 
ATOM     13  C   UNL     1      -3.813   9.633  17.459  0.00  0.00    +0.000 C 
ATOM     14  C   UNL     1      -3.299   9.815  16.047  0.00  0.00    +0.000 C 
ATOM     15  O   UNL     1      -3.811  11.073  15.589  0.00  0.00    +0.000 OA
ATOM     16  C   UNL     1      -4.396  11.767  16.705  0.00  0.00    +0.000 C 
ENDBRANCH  11  12
ENDBRANCH   9  11
ENDBRANCH   4   7
BRANCH   1  17
ATOM     17  O   UNL     1       3.108   6.474  19.662  0.00  0.00    +0.000 OA
BRANCH  17  18
ATOM     18  C   UNL     1       2.452   5.233  19.371  0.00  0.00    +0.000 C 
BRANCH  18  24
ATOM     19  C   UNL     1       1.752   2.809  21.555  0.00  0.00    +0.000 C 
ATOM     20  C   UNL     1       2.917   3.054  20.684  0.00  0.00    +0.000 A 
ATOM     21  O   UNL     1       3.912   2.139  20.746  0.00  0.00    +0.000 OA
ATOM     22  N   UNL     1       4.934   2.505  19.900  0.00  0.00    +0.000 NA
ATOM     23  C   UNL     1       4.565   3.667  19.332  0.00  0.00    +0.000 A 
ATOM     24  C   UNL     1       3.253   4.043  19.780  0.00  0.00    +0.000 A 
BRANCH  23  25
ATOM     25  C   UNL     1       5.466   4.353  18.397  0.00  0.00    +0.000 A 
ATOM     26  C   UNL     1       6.485   5.192  18.877  0.00  0.00    +0.000 A 
ATOM     27  C   UNL     1       7.339   5.860  17.992  0.00  0.00    +0.000 A 
ATOM     28  C   UNL     1       7.189   5.698  16.617  0.00  0.00    +0.000 A 
ATOM     29  C   UNL     1       6.176   4.881  16.125  0.00  0.00    +0.000 A 
ATOM     30  C   UNL     1       5.311   4.230  17.008  0.00  0.00    +0.000 A 
ENDBRANCH  23  25
ENDBRANCH  18  24
ENDBRANCH  17  18
ENDBRANCH   1  17
TORSDOF 7
ENDMDL
MODEL 9
REMARK VINA RESULT:      -8.1      2.737      5.062
REMARK  Name = 
REMARK  8 active torsions:
REMARK  status: ('A' for Active; 'I' for Inactive)
REMARK    1  A    between atoms: C_1  and  C_2
REMARK    2  A    between atoms: C_5  and  C_6
REMARK    3  A    between atoms: C_12  and  C_13
REMARK    4  A    between atoms: C_13  and  O_14
REMARK    5  A    between atoms: O_14  and  C_15
REMARK    6  A    between atoms: C_18  and  C_19
REMARK    7  A    between atoms: N_21  and  C_22
REMARK    8  A    between atoms: C_22  and  C_23
REMARK                            x       y       z     vdW  Elec       q    Type
REMARK                         _______ _______ _______ _____ _____    ______ ____
ROOT
ATOM      1  C   UNL     1       2.206   7.981  18.388  0.00  0.00    +0.000 A 
ATOM      2  C   UNL     1       1.601   8.135  19.621  0.00  0.00    +0.000 A 
ATOM      3  C   UNL     1       1.091   9.392  19.961  0.00  0.00    +0.000 A 
ATOM      4  C   UNL     1       1.240  10.453  19.062  0.00  0.00    +0.000 A 
ATOM      5  C   UNL     1       1.878  10.198  17.856  0.00  0.00    +0.000 A 
ATOM      6  N   UNL     1       2.367   8.984  17.501  0.00  0.00    +0.000 NA
ENDROOT
BRANCH   4   7
ATOM      7  C   UNL     1       0.737  11.825  19.311  0.00  0.00    +0.000 C 
ATOM      8  O   UNL     1      -0.095  12.012  20.189  0.00  0.00    +0.000 OA
ATOM      9  N   UNL     1       1.233  12.819  18.499  0.00  0.00    +0.000 N 
ATOM     10  H   UNL     1       1.885  12.588  17.766  0.00  0.00    +0.000 HD
BRANCH   9  11
ATOM     11  C   UNL     1       0.851  14.214  18.649  0.00  0.00    +0.000 C 
BRANCH  11  12
ATOM     12  C   UNL     1       1.965  15.049  19.298  0.00  0.00    +0.000 C 
ATOM     13  C   UNL     1       2.433  16.212  18.442  0.00  0.00    +0.000 C 
ATOM     14  C   UNL     1       3.370  15.545  17.459  0.00  0.00    +0.000 C 
ATOM     15  O   UNL     1       3.951  14.429  18.148  0.00  0.00    +0.000 OA
ATOM     16  C   UNL     1       3.252  14.240  19.390  0.00  0.00    +0.000 C 
ENDBRANCH  11  12
ENDBRANCH   9  11
ENDBRANCH   4   7
BRANCH   1  17
ATOM     17  O   UNL     1       2.700   6.725  18.094  0.00  0.00    +0.000 OA
BRANCH  17  18
ATOM     18  C   UNL     1       4.034   6.783  17.574  0.00  0.00    +0.000 C 
BRANCH  18  24
ATOM     19  C   UNL     1       7.367   6.629  17.623  0.00  0.00    +0.000 C 
ATOM     20  C   UNL     1       6.324   5.758  18.199  0.00  0.00    +0.000 A 
ATOM     21  O   UNL     1       6.761   4.684  18.897  0.00  0.00    +0.000 OA
ATOM     22  N   UNL     1       5.686   3.959  19.356  0.00  0.00    +0.000 NA
ATOM     23  C   UNL     1       4.582   4.587  18.915  0.00  0.00    +0.000 A 
ATOM     24  C   UNL     1       4.944   5.776  18.194  0.00  0.00    +0.000 A 
BRANCH  23  25
ATOM     25  C   UNL     1       3.251   4.037  19.203  0.00  0.00    +0.000 A 
ATOM     26  C   UNL     1       2.629   4.286  20.437  0.00  0.00    +0.000 A 
ATOM     27  C   UNL     1       1.367   3.754  20.724  0.00  0.00    +0.000 A 
ATOM     28  C   UNL     1       0.709   2.968  19.783  0.00  0.00    +0.000 A 
ATOM     29  C   UNL     1       1.316   2.700  18.560  0.00  0.00    +0.000 A 
ATOM     30  C   UNL     1       2.585   3.214  18.282  0.00  0.00    +0.000 A 
ENDBRANCH  23  25
ENDBRANCH  18  24
ENDBRANCH  17  18
ENDBRANCH   1  17
TORSDOF 7
ENDMDL
