MODEL 1
REMARK VINA RESULT:      -6.4      0.000      0.000
REMARK  Name = 
REMARK  2 active torsions:
REMARK  status: ('A' for Active; 'I' for Inactive)
REMARK    1  A    between atoms: C_1  and  N_2
REMARK    2  A    between atoms: C_4  and  C_5
REMARK                            x       y       z     vdW  Elec       q    Type
REMARK                         _______ _______ _______ _____ _____    ______ ____
ROOT
ATOM      1  C   UNL     1       3.768   4.534  17.731  0.00  0.00    +0.000 C 
ATOM      2  O   UNL     1       2.820   5.301  17.644  0.00  0.00    +0.000 OA
ATOM      3  N   UNL     1       3.949   3.537  18.670  0.00  0.00    +0.000 N 
ATOM      4  C   UNL     1       3.084   3.173  19.663  0.00  0.00    +0.000 C 
ATOM      5  N   UNL     1       3.516   2.540  20.701  0.00  0.00    +0.000 NA
ATOM      6  C   UNL     1       2.385   2.306  21.633  0.00  0.00    +0.000 C 
ATOM      7  C   UNL     1       1.229   3.251  21.331  0.00  0.00    +0.000 C 
ATOM      8  S   UNL     1       1.390   3.524  19.567  0.00  0.00    +0.000 S 
ATOM      9  H   UNL     1       4.874   3.128  18.730  0.00  0.00    +0.000 HD
ENDROOT
BRANCH   1  13
ATOM     10  C   UNL     1       6.030   3.747  13.482  0.00  0.00    +0.000 C 
ATOM     11  N   UNL     1       6.023   4.381  14.785  0.00  0.00    +0.000 N 
ATOM     12  N   UNL     1       4.938   4.126  15.619  0.00  0.00    +0.000 NA
ATOM     13  C   UNL     1       4.936   4.735  16.766  0.00  0.00    +0.000 A 
ATOM     14  C   UNL     1       5.997   5.645  17.245  0.00  0.00    +0.000 A 
ATOM     15  C   UNL     1       7.019   5.875  16.422  0.00  0.00    +0.000 A 
ATOM     16  C   UNL     1       7.074   5.239  15.096  0.00  0.00    +0.000 A 
ATOM     17  O   UNL     1       8.020   5.487  14.355  0.00  0.00    +0.000 OA
ENDBRANCH   1  13
TORSDOF 1
ENDMDL
MODEL 2
REMARK VINA RESULT:      -6.3      1.434      1.587
REMARK  Name = 
REMARK  2 active torsions:
REMARK  status: ('A' for Active; 'I' for Inactive)
REMARK    1  A    between atoms: C_1  and  N_2
REMARK    2  A    between atoms: C_4  and  C_5
REMARK                            x       y       z     vdW  Elec       q    Type
REMARK                         _______ _______ _______ _____ _____    ______ ____
ROOT
ATOM      1  C   UNL     1       4.771   4.025  18.039  0.00  0.00    +0.000 C 
ATOM      2  O   UNL     1       5.332   3.842  19.109  0.00  0.00    +0.000 OA
ATOM      3  N   UNL     1       3.426   3.867  17.766  0.00  0.00    +0.000 N 
ATOM      4  C   UNL     1       2.441   3.520  18.647  0.00  0.00    +0.000 C 
ATOM      5  N   UNL     1       1.336   3.010  18.219  0.00  0.00    +0.000 NA
ATOM      6  C   UNL     1       0.467   2.692  19.379  0.00  0.00    +0.000 C 
ATOM      7  C   UNL     1       1.282   2.613  20.662  0.00  0.00    +0.000 C 
ATOM      8  S   UNL     1       2.622   3.762  20.353  0.00  0.00    +0.000 S 
ATOM      9  H   UNL     1       3.155   3.859  16.789  0.00  0.00    +0.000 HD
ENDROOT
BRANCH   1  13
ATOM     10  C   UNL     1       5.959   3.644  13.324  0.00  0.00    +0.000 C 
ATOM     11  N   UNL     1       6.224   4.219  14.627  0.00  0.00    +0.000 N 
ATOM     12  N   UNL     1       5.407   3.823  15.682  0.00  0.00    +0.000 NA
ATOM     13  C   UNL     1       5.640   4.380  16.832  0.00  0.00    +0.000 A 
ATOM     14  C   UNL     1       6.706   5.369  17.096  0.00  0.00    +0.000 A 
ATOM     15  C   UNL     1       7.467   5.732  16.065  0.00  0.00    +0.000 A 
ATOM     16  C   UNL     1       7.244   5.161  14.727  0.00  0.00    +0.000 A 
ATOM     17  O   UNL     1       7.950   5.532  13.795  0.00  0.00    +0.000 OA
ENDBRANCH   1  13
TORSDOF 1
ENDMDL
MODEL 3
REMARK VINA RESULT:      -6.2      1.454      1.579
REMARK  Name = 
REMARK  2 active torsions:
REMARK  status: ('A' for Active; 'I' for Inactive)
REMARK    1  A    between atoms: C_1  and  N_2
REMARK    2  A    between atoms: C_4  and  C_5
REMARK                            x       y       z     vdW  Elec       q    Type
REMARK                         _______ _______ _______ _____ _____    ______ ____
ROOT
ATOM      1  C   UNL     1       4.385   3.612  17.498  0.00  0.00    +0.000 C 
ATOM      2  O   UNL     1       4.019   2.446  17.456  0.00  0.00    +0.000 OA
ATOM      3  N   UNL     1       3.932   4.597  18.354  0.00  0.00    +0.000 N 
ATOM      4  C   UNL     1       3.018   4.459  19.360  0.00  0.00    +0.000 C 
ATOM      5  N   UNL     1       2.381   5.488  19.804  0.00  0.00    +0.000 NA
ATOM      6  C   UNL     1       1.430   5.053  20.857  0.00  0.00    +0.000 C 
ATOM      7  C   UNL     1       1.158   3.558  20.759  0.00  0.00    +0.000 C 
ATOM      8  S   UNL     1       2.691   2.920  20.085  0.00  0.00    +0.000 S 
ATOM      9  H   UNL     1       4.185   5.551  18.126  0.00  0.00    +0.000 HD
ENDROOT
BRANCH   1  13
ATOM     10  C   UNL     1       6.165   3.625  12.957  0.00  0.00    +0.000 C 
ATOM     11  N   UNL     1       6.245   4.104  14.322  0.00  0.00    +0.000 N 
ATOM     12  N   UNL     1       5.317   3.608  15.233  0.00  0.00    +0.000 NA
ATOM     13  C   UNL     1       5.385   4.081  16.441  0.00  0.00    +0.000 A 
ATOM     14  C   UNL     1       6.375   5.072  16.910  0.00  0.00    +0.000 A 
ATOM     15  C   UNL     1       7.246   5.533  16.013  0.00  0.00    +0.000 A 
ATOM     16  C   UNL     1       7.211   5.061  14.620  0.00  0.00    +0.000 A 
ATOM     17  O   UNL     1       8.015   5.521  13.814  0.00  0.00    +0.000 OA
ENDBRANCH   1  13
TORSDOF 1
ENDMDL
MODEL 4
REMARK VINA RESULT:      -6.1      4.189      6.876
REMARK  Name = 
REMARK  2 active torsions:
REMARK  status: ('A' for Active; 'I' for Inactive)
REMARK    1  A    between atoms: C_1  and  N_2
REMARK    2  A    between atoms: C_4  and  C_5
REMARK                            x       y       z     vdW  Elec       q    Type
REMARK                         _______ _______ _______ _____ _____    ______ ____
ROOT
ATOM      1  C   UNL     1       3.378   6.486  18.358  0.00  0.00    +0.000 C 
ATOM      2  O   UNL     1       3.568   5.557  19.130  0.00  0.00    +0.000 OA
ATOM      3  N   UNL     1       3.976   6.685  17.129  0.00  0.00    +0.000 N 
ATOM      4  C   UNL     1       4.867   5.860  16.503  0.00  0.00    +0.000 C 
ATOM      5  N   UNL     1       5.653   6.324  15.591  0.00  0.00    +0.000 NA
ATOM      6  C   UNL     1       6.537   5.233  15.111  0.00  0.00    +0.000 C 
ATOM      7  C   UNL     1       6.586   4.091  16.117  0.00  0.00    +0.000 C 
ATOM      8  S   UNL     1       4.970   4.174  16.889  0.00  0.00    +0.000 S 
ATOM      9  H   UNL     1       3.865   7.600  16.709  0.00  0.00    +0.000 HD
ENDROOT
BRANCH   1  13
ATOM     10  C   UNL     1       0.795   8.817  21.776  0.00  0.00    +0.000 C 
ATOM     11  N   UNL     1       1.225   8.723  20.396  0.00  0.00    +0.000 N 
ATOM     12  N   UNL     1       2.046   7.653  20.050  0.00  0.00    +0.000 NA
ATOM     13  C   UNL     1       2.449   7.611  18.816  0.00  0.00    +0.000 A 
ATOM     14  C   UNL     1       2.084   8.589  17.770  0.00  0.00    +0.000 A 
ATOM     15  C   UNL     1       1.302   9.604  18.133  0.00  0.00    +0.000 A 
ATOM     16  C   UNL     1       0.829   9.730  19.521  0.00  0.00    +0.000 A 
ATOM     17  O   UNL     1       0.126  10.689  19.827  0.00  0.00    +0.000 OA
ENDBRANCH   1  13
TORSDOF 1
ENDMDL
MODEL 5
REMARK VINA RESULT:      -6.0      1.147      1.803
REMARK  Name = 
REMARK  2 active torsions:
REMARK  status: ('A' for Active; 'I' for Inactive)
REMARK    1  A    between atoms: C_1  and  N_2
REMARK    2  A    between atoms: C_4  and  C_5
REMARK                            x       y       z     vdW  Elec       q    Type
REMARK                         _______ _______ _______ _____ _____    ______ ____
ROOT
ATOM      1  C   UNL     1       3.555   4.549  17.957  0.00  0.00    +0.000 C 
ATOM      2  O   UNL     1       2.513   5.164  17.782  0.00  0.00    +0.000 OA
ATOM      3  N   UNL     1       3.809   3.599  18.928  0.00  0.00    +0.000 N 
ATOM      4  C   UNL     1       2.933   3.119  19.860  0.00  0.00    +0.000 C 
ATOM      5  N   UNL     1       3.371   2.568  20.941  0.00  0.00    +0.000 NA
ATOM      6  C   UNL     1       2.217   2.176  21.788  0.00  0.00    +0.000 C 
ATOM      7  C   UNL     1       0.961   2.933  21.379  0.00  0.00    +0.000 C 
ATOM      8  S   UNL     1       1.218   3.211  19.627  0.00  0.00    +0.000 S 
ATOM      9  H   UNL     1       4.776   3.335  19.067  0.00  0.00    +0.000 HD
ENDROOT
BRANCH   1  13
ATOM     10  C   UNL     1       7.560   7.165  17.006  0.00  0.00    +0.000 C 
ATOM     11  N   UNL     1       6.631   6.129  16.604  0.00  0.00    +0.000 N 
ATOM     12  N   UNL     1       5.549   5.874  17.442  0.00  0.00    +0.000 NA
ATOM     13  C   UNL     1       4.752   4.915  17.080  0.00  0.00    +0.000 A 
ATOM     14  C   UNL     1       4.900   4.108  15.851  0.00  0.00    +0.000 A 
ATOM     15  C   UNL     1       5.948   4.370  15.073  0.00  0.00    +0.000 A 
ATOM     16  C   UNL     1       6.907   5.426  15.435  0.00  0.00    +0.000 A 
ATOM     17  O   UNL     1       7.874   5.629  14.706  0.00  0.00    +0.000 OA
ENDBRANCH   1  13
TORSDOF 1
ENDMDL
MODEL 6
REMARK VINA RESULT:      -6.0      4.454      6.032
REMARK  Name = 
REMARK  2 active torsions:
REMARK  status: ('A' for Active; 'I' for Inactive)
REMARK    1  A    between atoms: C_1  and  N_2
REMARK    2  A    between atoms: C_4  and  C_5
REMARK                            x       y       z     vdW  Elec       q    Type
REMARK                         _______ _______ _______ _____ _____    ______ ____
ROOT
ATOM      1  C   UNL     1       2.496   7.026  19.516  0.00  0.00    +0.000 C 
ATOM      2  O   UNL     1       2.752   7.603  18.470  0.00  0.00    +0.000 OA
ATOM      3  N   UNL     1       1.797   7.530  20.597  0.00  0.00    +0.000 N 
ATOM      4  C   UNL     1       1.208   8.758  20.697  0.00  0.00    +0.000 C 
ATOM      5  N   UNL     1       0.955   9.265  21.855  0.00  0.00    +0.000 NA
ATOM      6  C   UNL     1       0.357  10.611  21.677  0.00  0.00    +0.000 C 
ATOM      7  C   UNL     1       0.655  11.157  20.287  0.00  0.00    +0.000 C 
ATOM      8  S   UNL     1       0.765   9.670  19.292  0.00  0.00    +0.000 S 
ATOM      9  H   UNL     1       1.847   7.002  21.460  0.00  0.00    +0.000 HD
ENDROOT
BRANCH   1  13
ATOM     10  C   UNL     1       2.369   2.542  21.431  0.00  0.00    +0.000 C 
ATOM     11  N   UNL     1       3.047   3.518  20.603  0.00  0.00    +0.000 N 
ATOM     12  N   UNL     1       2.471   4.780  20.494  0.00  0.00    +0.000 NA
ATOM     13  C   UNL     1       3.077   5.626  19.716  0.00  0.00    +0.000 A 
ATOM     14  C   UNL     1       4.324   5.352  18.972  0.00  0.00    +0.000 A 
ATOM     15  C   UNL     1       4.848   4.133  19.092  0.00  0.00    +0.000 A 
ATOM     16  C   UNL     1       4.201   3.116  19.935  0.00  0.00    +0.000 A 
ATOM     17  O   UNL     1       4.699   1.996  20.007  0.00  0.00    +0.000 OA
ENDBRANCH   1  13
TORSDOF 1
ENDMDL
MODEL 7
REMARK VINA RESULT:      -5.9      4.535      5.771
REMARK  Name = 
REMARK  2 active torsions:
REMARK  status: ('A' for Active; 'I' for Inactive)
REMARK    1  A    between atoms: C_1  and  N_2
REMARK    2  A    between atoms: C_4  and  C_5
REMARK                            x       y       z     vdW  Elec       q    Type
REMARK                         _______ _______ _______ _____ _____    ______ ____
ROOT
ATOM      1  C   UNL     1       2.218   7.313  19.700  0.00  0.00    +0.000 C 
ATOM      2  O   UNL     1       2.313   8.044  18.725  0.00  0.00    +0.000 OA
ATOM      3  N   UNL     1       1.583   7.596  20.895  0.00  0.00    +0.000 N 
ATOM      4  C   UNL     1       0.892   8.730  21.212  0.00  0.00    +0.000 C 
ATOM      5  N   UNL     1       0.707   9.054  22.447  0.00  0.00    +0.000 NA
ATOM      6  C   UNL     1      -0.031  10.340  22.506  0.00  0.00    +0.000 C 
ATOM      7  C   UNL     1       0.075  11.088  21.185  0.00  0.00    +0.000 C 
ATOM      8  S   UNL     1       0.228   9.762  19.989  0.00  0.00    +0.000 S 
ATOM      9  H   UNL     1       1.768   6.970  21.669  0.00  0.00    +0.000 HD
ENDROOT
BRANCH   1  13
ATOM     10  C   UNL     1       5.948   4.479  18.343  0.00  0.00    +0.000 C 
ATOM     11  N   UNL     1       4.680   4.615  19.030  0.00  0.00    +0.000 N 
ATOM     12  N   UNL     1       4.064   5.863  19.001  0.00  0.00    +0.000 NA
ATOM     13  C   UNL     1       2.947   5.970  19.656  0.00  0.00    +0.000 A 
ATOM     14  C   UNL     1       2.288   4.873  20.394  0.00  0.00    +0.000 A 
ATOM     15  C   UNL     1       2.905   3.693  20.409  0.00  0.00    +0.000 A 
ATOM     16  C   UNL     1       4.187   3.506  19.711  0.00  0.00    +0.000 A 
ATOM     17  O   UNL     1       4.739   2.411  19.761  0.00  0.00    +0.000 OA
ENDBRANCH   1  13
TORSDOF 1
ENDMDL
MODEL 8
REMARK VINA RESULT:      -5.8      4.370      6.089
REMARK  Name = 
REMARK  2 active torsions:
REMARK  status: ('A' for Active; 'I' for Inactive)
REMARK    1  A    between atoms: C_1  and  N_2
REMARK    2  A    between atoms: C_4  and  C_5
REMARK                            x       y       z     vdW  Elec       q    Type
REMARK                         _______ _______ _______ _____ _____    ______ ____
ROOT
ATOM      1  C   UNL     1       2.864   6.404  18.785  0.00  0.00    +0.000 C 
ATOM      2  O   UNL     1       3.957   6.375  18.238  0.00  0.00    +0.000 OA
ATOM      3  N   UNL     1       2.106   5.322  19.189  0.00  0.00    +0.000 N 
ATOM      4  C   UNL     1       2.443   4.001  19.103  0.00  0.00    +0.000 C 
ATOM      5  N   UNL     1       1.526   3.094  19.119  0.00  0.00    +0.000 NA
ATOM      6  C   UNL     1       2.160   1.760  18.972  0.00  0.00    +0.000 C 
ATOM      7  C   UNL     1       3.562   1.886  18.390  0.00  0.00    +0.000 C 
ATOM      8  S   UNL     1       4.095   3.491  18.986  0.00  0.00    +0.000 S 
ATOM      9  H   UNL     1       1.142   5.507  19.438  0.00  0.00    +0.000 HD
ENDROOT
BRANCH   1  13
ATOM     10  C   UNL     1       0.562   9.735  21.504  0.00  0.00    +0.000 C 
ATOM     11  N   UNL     1       1.115   9.347  20.222  0.00  0.00    +0.000 N 
ATOM     12  N   UNL     1       1.677   8.078  20.122  0.00  0.00    +0.000 NA
ATOM     13  C   UNL     1       2.200   7.768  18.974  0.00  0.00    +0.000 A 
ATOM     14  C   UNL     1       2.218   8.645  17.785  0.00  0.00    +0.000 A 
ATOM     15  C   UNL     1       1.679   9.856  17.914  0.00  0.00    +0.000 A 
ATOM     16  C   UNL     1       1.092  10.285  19.193  0.00  0.00    +0.000 A 
ATOM     17  O   UNL     1       0.620  11.415  19.285  0.00  0.00    +0.000 OA
ENDBRANCH   1  13
TORSDOF 1
ENDMDL
MODEL 9
REMARK VINA RESULT:      -5.8      4.318      4.853
REMARK  Name = 
REMARK  2 active torsions:
REMARK  status: ('A' for Active; 'I' for Inactive)
REMARK    1  A    between atoms: C_1  and  N_2
REMARK    2  A    between atoms: C_4  and  C_5
REMARK                            x       y       z     vdW  Elec       q    Type
REMARK                         _______ _______ _______ _____ _____    ______ ____
ROOT
ATOM      1  C   UNL     1       2.435   7.872  18.325  0.00  0.00    +0.000 C 
ATOM      2  O   UNL     1       2.330   8.846  17.595  0.00  0.00    +0.000 OA
ATOM      3  N   UNL     1       1.998   7.758  19.631  0.00  0.00    +0.000 N 
ATOM      4  C   UNL     1       1.318   8.694  20.357  0.00  0.00    +0.000 C 
ATOM      5  N   UNL     1       1.328   8.650  21.646  0.00  0.00    +0.000 NA
ATOM      6  C   UNL     1       0.550   9.797  22.177  0.00  0.00    +0.000 C 
ATOM      7  C   UNL     1       0.397  10.884  21.122  0.00  0.00    +0.000 C 
ATOM      8  S   UNL     1       0.408   9.954  19.590  0.00  0.00    +0.000 S 
ATOM      9  H   UNL     1       2.340   6.965  20.160  0.00  0.00    +0.000 HD
ENDROOT
BRANCH   1  13
ATOM     10  C   UNL     1       2.935   3.087  17.523  0.00  0.00    +0.000 C 
ATOM     11  N   UNL     1       3.474   4.427  17.407  0.00  0.00    +0.000 N 
ATOM     12  N   UNL     1       2.724   5.470  17.943  0.00  0.00    +0.000 NA
ATOM     13  C   UNL     1       3.209   6.665  17.793  0.00  0.00    +0.000 A 
ATOM     14  C   UNL     1       4.489   6.984  17.127  0.00  0.00    +0.000 A 
ATOM     15  C   UNL     1       5.181   5.965  16.620  0.00  0.00    +0.000 A 
ATOM     16  C   UNL     1       4.679   4.587  16.729  0.00  0.00    +0.000 A 
ATOM     17  O   UNL     1       5.331   3.673  16.233  0.00  0.00    +0.000 OA
ENDBRANCH   1  13
TORSDOF 1
ENDMDL
