MODEL 1
REMARK VINA RESULT:      -7.5      0.000      0.000
REMARK  Name = 
REMARK  10 active torsions:
REMARK  status: ('A' for Active; 'I' for Inactive)
REMARK    1  A    between atoms: C_1  and  C_2
REMARK    2  A    between atoms: C_2  and  C_3
REMARK    3  A    between atoms: C_2  and  N_4
REMARK    4  A    between atoms: C_6  and  C_7
REMARK    5  A    between atoms: N_9  and  C_10
REMARK    6  A    between atoms: C_10  and  C_11
REMARK    7  A    between atoms: C_14  and  S_15
REMARK    8  A    between atoms: S_15  and  N_18
REMARK    9  A    between atoms: N_18  and  C_19
REMARK   10  A    between atoms: N_18  and  C_20
REMARK                            x       y       z     vdW  Elec       q    Type
REMARK                         _______ _______ _______ _____ _____    ______ ____
ROOT
ATOM      1  C   UNL     1       4.340   4.090  17.325  0.00  0.00    +0.000 C 
ATOM      2  O   UNL     1       4.698   4.110  16.150  0.00  0.00    +0.000 OA
ATOM      3  N   UNL     1       3.901   5.209  17.991  0.00  0.00    +0.000 N 
ATOM      4  H   UNL     1       3.768   5.172  18.994  0.00  0.00    +0.000 HD
ENDROOT
BRANCH   1   7
ATOM      5  N   UNL     1       2.728   2.989  19.770  0.00  0.00    +0.000 N 
ATOM      6  C   UNL     1       4.166   3.037  19.611  0.00  0.00    +0.000 C 
ATOM      7  C   UNL     1       4.357   2.791  18.129  0.00  0.00    +0.000 C 
ATOM      8  C   UNL     1       3.195   1.869  17.759  0.00  0.00    +0.000 C 
ATOM      9  C   UNL     1       2.123   2.260  18.752  0.00  0.00    +0.000 C 
ATOM     10  O   UNL     1       0.936   2.008  18.641  0.00  0.00    +0.000 OA
BRANCH   5  12
ATOM     11  C   UNL     1       0.832   4.404  20.508  0.00  0.00    +0.000 C 
ATOM     12  C   UNL     1       2.024   3.547  20.926  0.00  0.00    +0.000 C 
ATOM     13  C   UNL     1       1.591   2.443  21.890  0.00  0.00    +0.000 C 
ENDBRANCH   5  12
ENDBRANCH   1   7
BRANCH   3  14
ATOM     14  C   UNL     1       3.812   6.510  17.372  0.00  0.00    +0.000 C 
BRANCH  14  15
ATOM     15  C   UNL     1       2.936   7.448  18.162  0.00  0.00    +0.000 A 
ATOM     16  C   UNL     1       2.555   7.115  19.472  0.00  0.00    +0.000 A 
ATOM     17  C   UNL     1       1.752   7.972  20.224  0.00  0.00    +0.000 A 
ATOM     18  C   UNL     1       1.327   9.179  19.662  0.00  0.00    +0.000 A 
ATOM     19  C   UNL     1       1.661   9.507  18.344  0.00  0.00    +0.000 A 
ATOM     20  C   UNL     1       2.470   8.647  17.600  0.00  0.00    +0.000 A 
BRANCH  18  21
ATOM     21  S   UNL     1       0.293  10.282  20.608  0.00  0.00    +0.000 S 
ATOM     22  O   UNL     1      -0.698   9.466  21.279  0.00  0.00    +0.000 OA
ATOM     23  O   UNL     1       1.164  11.163  21.356  0.00  0.00    +0.000 OA
BRANCH  21  24
ATOM     24  N   UNL     1      -0.498  11.196  19.408  0.00  0.00    +0.000 NA
ATOM     25  C   UNL     1      -1.664  10.577  18.756  0.00  0.00    +0.000 C 
ATOM     26  C   UNL     1      -0.679  12.631  19.686  0.00  0.00    +0.000 C 
ENDBRANCH  21  24
ENDBRANCH  18  21
ENDBRANCH  14  15
ENDBRANCH   3  14
TORSDOF 6
ENDMDL
MODEL 2
REMARK VINA RESULT:      -7.4      2.690      7.508
REMARK  Name = 
REMARK  10 active torsions:
REMARK  status: ('A' for Active; 'I' for Inactive)
REMARK    1  A    between atoms: C_1  and  C_2
REMARK    2  A    between atoms: C_2  and  C_3
REMARK    3  A    between atoms: C_2  and  N_4
REMARK    4  A    between atoms: C_6  and  C_7
REMARK    5  A    between atoms: N_9  and  C_10
REMARK    6  A    between atoms: C_10  and  C_11
REMARK    7  A    between atoms: C_14  and  S_15
REMARK    8  A    between atoms: S_15  and  N_18
REMARK    9  A    between atoms: N_18  and  C_19
REMARK   10  A    between atoms: N_18  and  C_20
REMARK                            x       y       z     vdW  Elec       q    Type
REMARK                         _______ _______ _______ _____ _____    ______ ____
ROOT
ATOM      1  C   UNL     1       1.620  10.357  18.156  0.00  0.00    +0.000 C 
ATOM      2  O   UNL     1       2.482  11.154  17.792  0.00  0.00    +0.000 OA
ATOM      3  N   UNL     1       1.803   8.995  18.127  0.00  0.00    +0.000 N 
ATOM      4  H   UNL     1       1.013   8.382  18.288  0.00  0.00    +0.000 HD
ENDROOT
BRANCH   1   7
ATOM      5  N   UNL     1       0.358  10.729  20.994  0.00  0.00    +0.000 N 
ATOM      6  C   UNL     1      -0.210  10.029  19.861  0.00  0.00    +0.000 C 
ATOM      7  C   UNL     1       0.271  10.845  18.678  0.00  0.00    +0.000 C 
ATOM      8  C   UNL     1       0.344  12.271  19.223  0.00  0.00    +0.000 C 
ATOM      9  C   UNL     1       0.634  12.057  20.693  0.00  0.00    +0.000 C 
ATOM     10  O   UNL     1       1.072  12.903  21.453  0.00  0.00    +0.000 OA
BRANCH   5  12
ATOM     11  C   UNL     1      -0.810  10.082  23.082  0.00  0.00    +0.000 C 
ATOM     12  C   UNL     1       0.512  10.127  22.320  0.00  0.00    +0.000 C 
ATOM     13  C   UNL     1       1.133   8.733  22.222  0.00  0.00    +0.000 C 
ENDBRANCH   5  12
ENDBRANCH   1   7
BRANCH   3  14
ATOM     14  C   UNL     1       3.025   8.373  17.675  0.00  0.00    +0.000 C 
BRANCH  14  15
ATOM     15  C   UNL     1       3.115   6.933  18.110  0.00  0.00    +0.000 A 
ATOM     16  C   UNL     1       2.567   6.537  19.341  0.00  0.00    +0.000 A 
ATOM     17  C   UNL     1       2.631   5.208  19.759  0.00  0.00    +0.000 A 
ATOM     18  C   UNL     1       3.247   4.261  18.936  0.00  0.00    +0.000 A 
ATOM     19  C   UNL     1       3.836   4.646  17.727  0.00  0.00    +0.000 A 
ATOM     20  C   UNL     1       3.763   5.977  17.312  0.00  0.00    +0.000 A 
BRANCH  18  21
ATOM     21  S   UNL     1       3.344   2.560  19.460  0.00  0.00    +0.000 S 
ATOM     22  O   UNL     1       3.649   1.769  18.286  0.00  0.00    +0.000 OA
ATOM     23  O   UNL     1       4.192   2.512  20.632  0.00  0.00    +0.000 OA
BRANCH  21  24
ATOM     24  N   UNL     1       1.746   2.209  19.935  0.00  0.00    +0.000 NA
ATOM     25  C   UNL     1       1.347   2.622  21.291  0.00  0.00    +0.000 C 
ATOM     26  C   UNL     1       0.696   2.428  18.926  0.00  0.00    +0.000 C 
ENDBRANCH  21  24
ENDBRANCH  18  21
ENDBRANCH  14  15
ENDBRANCH   3  14
TORSDOF 6
ENDMDL
MODEL 3
REMARK VINA RESULT:      -7.3      3.080      7.918
REMARK  Name = 
REMARK  10 active torsions:
REMARK  status: ('A' for Active; 'I' for Inactive)
REMARK    1  A    between atoms: C_1  and  C_2
REMARK    2  A    between atoms: C_2  and  C_3
REMARK    3  A    between atoms: C_2  and  N_4
REMARK    4  A    between atoms: C_6  and  C_7
REMARK    5  A    between atoms: N_9  and  C_10
REMARK    6  A    between atoms: C_10  and  C_11
REMARK    7  A    between atoms: C_14  and  S_15
REMARK    8  A    between atoms: S_15  and  N_18
REMARK    9  A    between atoms: N_18  and  C_19
REMARK   10  A    between atoms: N_18  and  C_20
REMARK                            x       y       z     vdW  Elec       q    Type
REMARK                         _______ _______ _______ _____ _____    ______ ____
ROOT
ATOM      1  C   UNL     1       0.363   8.630  21.635  0.00  0.00    +0.000 C 
ATOM      2  O   UNL     1      -0.720   8.051  21.696  0.00  0.00    +0.000 OA
ATOM      3  N   UNL     1       1.518   8.011  21.218  0.00  0.00    +0.000 N 
ATOM      4  H   UNL     1       2.405   8.484  21.333  0.00  0.00    +0.000 HD
ENDROOT
BRANCH   1   7
ATOM      5  N   UNL     1       0.346  11.331  20.057  0.00  0.00    +0.000 N 
ATOM      6  C   UNL     1       1.324  10.881  21.026  0.00  0.00    +0.000 C 
ATOM      7  C   UNL     1       0.488  10.102  22.021  0.00  0.00    +0.000 C 
ATOM      8  C   UNL     1      -0.861  10.819  22.005  0.00  0.00    +0.000 C 
ATOM      9  C   UNL     1      -0.932  11.378  20.601  0.00  0.00    +0.000 C 
ATOM     10  O   UNL     1      -1.948  11.758  20.046  0.00  0.00    +0.000 OA
BRANCH   5  12
ATOM     11  C   UNL     1       1.044  13.270  18.680  0.00  0.00    +0.000 C 
ATOM     12  C   UNL     1       0.695  11.784  18.709  0.00  0.00    +0.000 C 
ATOM     13  C   UNL     1       1.831  10.945  18.124  0.00  0.00    +0.000 C 
ENDBRANCH   5  12
ENDBRANCH   1   7
BRANCH   3  14
ATOM     14  C   UNL     1       1.566   6.629  20.806  0.00  0.00    +0.000 C 
BRANCH  14  15
ATOM     15  C   UNL     1       2.509   6.422  19.649  0.00  0.00    +0.000 A 
ATOM     16  C   UNL     1       3.271   5.246  19.567  0.00  0.00    +0.000 A 
ATOM     17  C   UNL     1       4.143   5.031  18.499  0.00  0.00    +0.000 A 
ATOM     18  C   UNL     1       4.252   6.000  17.499  0.00  0.00    +0.000 A 
ATOM     19  C   UNL     1       3.533   7.197  17.587  0.00  0.00    +0.000 A 
ATOM     20  C   UNL     1       2.658   7.403  18.655  0.00  0.00    +0.000 A 
BRANCH  18  21
ATOM     21  S   UNL     1       5.368   5.743  16.133  0.00  0.00    +0.000 S 
ATOM     22  O   UNL     1       5.195   4.374  15.693  0.00  0.00    +0.000 OA
ATOM     23  O   UNL     1       5.196   6.848  15.214  0.00  0.00    +0.000 OA
BRANCH  21  24
ATOM     24  N   UNL     1       6.904   5.878  16.857  0.00  0.00    +0.000 NA
ATOM     25  C   UNL     1       7.175   7.104  17.625  0.00  0.00    +0.000 C 
ATOM     26  C   UNL     1       7.443   4.662  17.490  0.00  0.00    +0.000 C 
ENDBRANCH  21  24
ENDBRANCH  18  21
ENDBRANCH  14  15
ENDBRANCH   3  14
TORSDOF 6
ENDMDL
MODEL 4
REMARK VINA RESULT:      -7.3      2.440      4.293
REMARK  Name = 
REMARK  10 active torsions:
REMARK  status: ('A' for Active; 'I' for Inactive)
REMARK    1  A    between atoms: C_1  and  C_2
REMARK    2  A    between atoms: C_2  and  C_3
REMARK    3  A    between atoms: C_2  and  N_4
REMARK    4  A    between atoms: C_6  and  C_7
REMARK    5  A    between atoms: N_9  and  C_10
REMARK    6  A    between atoms: C_10  and  C_11
REMARK    7  A    between atoms: C_14  and  S_15
REMARK    8  A    between atoms: S_15  and  N_18
REMARK    9  A    between atoms: N_18  and  C_19
REMARK   10  A    between atoms: N_18  and  C_20
REMARK                            x       y       z     vdW  Elec       q    Type
REMARK                         _______ _______ _______ _____ _____    ______ ____
ROOT
ATOM      1  C   UNL     1       4.017   5.081  17.256  0.00  0.00    +0.000 C 
ATOM      2  O   UNL     1       3.326   4.074  17.390  0.00  0.00    +0.000 OA
ATOM      3  N   UNL     1       3.965   6.144  18.127  0.00  0.00    +0.000 N 
ATOM      4  H   UNL     1       4.435   7.008  17.887  0.00  0.00    +0.000 HD
ENDROOT
BRANCH   1   7
ATOM      5  N   UNL     1       6.970   6.072  16.962  0.00  0.00    +0.000 N 
ATOM      6  C   UNL     1       5.821   6.480  16.181  0.00  0.00    +0.000 C 
ATOM      7  C   UNL     1       4.998   5.211  16.092  0.00  0.00    +0.000 C 
ATOM      8  C   UNL     1       6.044   4.096  16.093  0.00  0.00    +0.000 C 
ATOM      9  C   UNL     1       7.182   4.700  16.886  0.00  0.00    +0.000 C 
ATOM     10  O   UNL     1       8.094   4.073  17.397  0.00  0.00    +0.000 OA
BRANCH   5  12
ATOM     11  C   UNL     1       7.327   8.445  17.580  0.00  0.00    +0.000 C 
ATOM     12  C   UNL     1       7.855   7.015  17.648  0.00  0.00    +0.000 C 
ATOM     13  C   UNL     1       8.092   6.589  19.097  0.00  0.00    +0.000 C 
ENDBRANCH   5  12
ENDBRANCH   1   7
BRANCH   3  14
ATOM     14  C   UNL     1       3.102   6.173  19.283  0.00  0.00    +0.000 C 
BRANCH  14  15
ATOM     15  C   UNL     1       2.271   7.429  19.329  0.00  0.00    +0.000 A 
ATOM     16  C   UNL     1       2.074   8.183  18.161  0.00  0.00    +0.000 A 
ATOM     17  C   UNL     1       1.300   9.344  18.180  0.00  0.00    +0.000 A 
ATOM     18  C   UNL     1       0.713   9.755  19.380  0.00  0.00    +0.000 A 
ATOM     19  C   UNL     1       0.935   9.040  20.561  0.00  0.00    +0.000 A 
ATOM     20  C   UNL     1       1.705   7.876  20.534  0.00  0.00    +0.000 A 
BRANCH  18  21
ATOM     21  S   UNL     1      -0.271  11.241  19.421  0.00  0.00    +0.000 S 
ATOM     22  O   UNL     1      -0.889  11.379  18.118  0.00  0.00    +0.000 OA
ATOM     23  O   UNL     1      -1.072  11.201  20.626  0.00  0.00    +0.000 OA
BRANCH  21  24
ATOM     24  N   UNL     1       0.894  12.473  19.588  0.00  0.00    +0.000 NA
ATOM     25  C   UNL     1       1.379  12.754  20.950  0.00  0.00    +0.000 C 
ATOM     26  C   UNL     1       1.959  12.515  18.571  0.00  0.00    +0.000 C 
ENDBRANCH  21  24
ENDBRANCH  18  21
ENDBRANCH  14  15
ENDBRANCH   3  14
TORSDOF 6
ENDMDL
MODEL 5
REMARK VINA RESULT:      -7.3      2.651      7.553
REMARK  Name = 
REMARK  10 active torsions:
REMARK  status: ('A' for Active; 'I' for Inactive)
REMARK    1  A    between atoms: C_1  and  C_2
REMARK    2  A    between atoms: C_2  and  C_3
REMARK    3  A    between atoms: C_2  and  N_4
REMARK    4  A    between atoms: C_6  and  C_7
REMARK    5  A    between atoms: N_9  and  C_10
REMARK    6  A    between atoms: C_10  and  C_11
REMARK    7  A    between atoms: C_14  and  S_15
REMARK    8  A    between atoms: S_15  and  N_18
REMARK    9  A    between atoms: N_18  and  C_19
REMARK   10  A    between atoms: N_18  and  C_20
REMARK                            x       y       z     vdW  Elec       q    Type
REMARK                         _______ _______ _______ _____ _____    ______ ____
ROOT
ATOM      1  C   UNL     1       1.563  10.431  18.167  0.00  0.00    +0.000 C 
ATOM      2  O   UNL     1       2.472  11.188  17.833  0.00  0.00    +0.000 OA
ATOM      3  N   UNL     1       1.674   9.061  18.113  0.00  0.00    +0.000 N 
ATOM      4  H   UNL     1       0.850   8.489  18.249  0.00  0.00    +0.000 HD
ENDROOT
BRANCH   1   7
ATOM      5  N   UNL     1       0.172  10.592  20.964  0.00  0.00    +0.000 N 
ATOM      6  C   UNL     1      -0.387  10.082  19.730  0.00  0.00    +0.000 C 
ATOM      7  C   UNL     1       0.232  10.979  18.677  0.00  0.00    +0.000 C 
ATOM      8  C   UNL     1       0.397  12.320  19.391  0.00  0.00    +0.000 C 
ATOM      9  C   UNL     1       0.579  11.915  20.837  0.00  0.00    +0.000 C 
ATOM     10  O   UNL     1       1.043  12.624  21.713  0.00  0.00    +0.000 OA
BRANCH   5  12
ATOM     11  C   UNL     1      -0.758   8.639  22.174  0.00  0.00    +0.000 C 
ATOM     12  C   UNL     1       0.194   9.831  22.215  0.00  0.00    +0.000 C 
ATOM     13  C   UNL     1       1.614   9.384  22.561  0.00  0.00    +0.000 C 
ENDBRANCH   5  12
ENDBRANCH   1   7
BRANCH   3  14
ATOM     14  C   UNL     1       2.869   8.385  17.668  0.00  0.00    +0.000 C 
BRANCH  14  15
ATOM     15  C   UNL     1       3.011   7.025  18.301  0.00  0.00    +0.000 A 
ATOM     16  C   UNL     1       3.775   6.032  17.667  0.00  0.00    +0.000 A 
ATOM     17  C   UNL     1       3.927   4.770  18.241  0.00  0.00    +0.000 A 
ATOM     18  C   UNL     1       3.311   4.496  19.465  0.00  0.00    +0.000 A 
ATOM     19  C   UNL     1       2.511   5.459  20.089  0.00  0.00    +0.000 A 
ATOM     20  C   UNL     1       2.368   6.722  19.513  0.00  0.00    +0.000 A 
BRANCH  18  21
ATOM     21  S   UNL     1       3.489   2.885  20.206  0.00  0.00    +0.000 S 
ATOM     22  O   UNL     1       4.898   2.548  20.162  0.00  0.00    +0.000 OA
ATOM     23  O   UNL     1       2.765   2.897  21.459  0.00  0.00    +0.000 OA
BRANCH  21  24
ATOM     24  N   UNL     1       2.667   1.864  19.117  0.00  0.00    +0.000 NA
ATOM     25  C   UNL     1       1.271   2.212  18.801  0.00  0.00    +0.000 C 
ATOM     26  C   UNL     1       3.431   1.396  17.948  0.00  0.00    +0.000 C 
ENDBRANCH  21  24
ENDBRANCH  18  21
ENDBRANCH  14  15
ENDBRANCH   3  14
TORSDOF 6
ENDMDL
MODEL 6
REMARK VINA RESULT:      -7.2      2.577      7.719
REMARK  Name = 
REMARK  10 active torsions:
REMARK  status: ('A' for Active; 'I' for Inactive)
REMARK    1  A    between atoms: C_1  and  C_2
REMARK    2  A    between atoms: C_2  and  C_3
REMARK    3  A    between atoms: C_2  and  N_4
REMARK    4  A    between atoms: C_6  and  C_7
REMARK    5  A    between atoms: N_9  and  C_10
REMARK    6  A    between atoms: C_10  and  C_11
REMARK    7  A    between atoms: C_14  and  S_15
REMARK    8  A    between atoms: S_15  and  N_18
REMARK    9  A    between atoms: N_18  and  C_19
REMARK   10  A    between atoms: N_18  and  C_20
REMARK                            x       y       z     vdW  Elec       q    Type
REMARK                         _______ _______ _______ _____ _____    ______ ____
ROOT
ATOM      1  C   UNL     1       1.340  10.938  18.270  0.00  0.00    +0.000 C 
ATOM      2  O   UNL     1       2.278  11.727  18.179  0.00  0.00    +0.000 OA
ATOM      3  N   UNL     1       1.453   9.605  17.955  0.00  0.00    +0.000 N 
ATOM      4  H   UNL     1       0.619   9.034  17.898  0.00  0.00    +0.000 HD
ENDROOT
BRANCH   1   7
ATOM      5  N   UNL     1      -0.141  10.936  21.025  0.00  0.00    +0.000 N 
ATOM      6  C   UNL     1      -0.636  10.441  19.758  0.00  0.00    +0.000 C 
ATOM      7  C   UNL     1      -0.031  11.403  18.755  0.00  0.00    +0.000 C 
ATOM      8  C   UNL     1       0.043  12.725  19.516  0.00  0.00    +0.000 C 
ATOM      9  C   UNL     1       0.202  12.281  20.954  0.00  0.00    +0.000 C 
ATOM     10  O   UNL     1       0.603  12.982  21.866  0.00  0.00    +0.000 OA
BRANCH   5  12
ATOM     11  C   UNL     1      -1.185  10.586  23.246  0.00  0.00    +0.000 C 
ATOM     12  C   UNL     1      -0.118  10.135  22.252  0.00  0.00    +0.000 C 
ATOM     13  C   UNL     1      -0.260   8.646  21.937  0.00  0.00    +0.000 C 
ENDBRANCH   5  12
ENDBRANCH   1   7
BRANCH   3  14
ATOM     14  C   UNL     1       2.683   9.005  17.496  0.00  0.00    +0.000 C 
BRANCH  14  15
ATOM     15  C   UNL     1       2.890   7.632  18.082  0.00  0.00    +0.000 A 
ATOM     16  C   UNL     1       3.769   6.730  17.462  0.00  0.00    +0.000 A 
ATOM     17  C   UNL     1       3.982   5.458  17.993  0.00  0.00    +0.000 A 
ATOM     18  C   UNL     1       3.310   5.083  19.160  0.00  0.00    +0.000 A 
ATOM     19  C   UNL     1       2.398   5.953  19.766  0.00  0.00    +0.000 A 
ATOM     20  C   UNL     1       2.195   7.226  19.233  0.00  0.00    +0.000 A 
BRANCH  18  21
ATOM     21  S   UNL     1       3.565   3.457  19.845  0.00  0.00    +0.000 S 
ATOM     22  O   UNL     1       4.993   3.215  19.849  0.00  0.00    +0.000 OA
ATOM     23  O   UNL     1       2.792   3.371  21.066  0.00  0.00    +0.000 OA
BRANCH  21  24
ATOM     24  N   UNL     1       2.856   2.432  18.684  0.00  0.00    +0.000 NA
ATOM     25  C   UNL     1       3.576   1.188  18.363  0.00  0.00    +0.000 C 
ATOM     26  C   UNL     1       1.396   2.256  18.765  0.00  0.00    +0.000 C 
ENDBRANCH  21  24
ENDBRANCH  18  21
ENDBRANCH  14  15
ENDBRANCH   3  14
TORSDOF 6
ENDMDL
MODEL 7
REMARK VINA RESULT:      -7.2      1.311      1.597
REMARK  Name = 
REMARK  10 active torsions:
REMARK  status: ('A' for Active; 'I' for Inactive)
REMARK    1  A    between atoms: C_1  and  C_2
REMARK    2  A    between atoms: C_2  and  C_3
REMARK    3  A    between atoms: C_2  and  N_4
REMARK    4  A    between atoms: C_6  and  C_7
REMARK    5  A    between atoms: N_9  and  C_10
REMARK    6  A    between atoms: C_10  and  C_11
REMARK    7  A    between atoms: C_14  and  S_15
REMARK    8  A    between atoms: S_15  and  N_18
REMARK    9  A    between atoms: N_18  and  C_19
REMARK   10  A    between atoms: N_18  and  C_20
REMARK                            x       y       z     vdW  Elec       q    Type
REMARK                         _______ _______ _______ _____ _____    ______ ____
ROOT
ATOM      1  C   UNL     1       4.813   4.713  18.361  0.00  0.00    +0.000 C 
ATOM      2  O   UNL     1       5.761   5.173  18.995  0.00  0.00    +0.000 OA
ATOM      3  N   UNL     1       3.979   5.494  17.595  0.00  0.00    +0.000 N 
ATOM      4  H   UNL     1       3.128   5.094  17.222  0.00  0.00    +0.000 HD
ENDROOT
BRANCH   1   7
ATOM      5  N   UNL     1       2.473   2.960  19.472  0.00  0.00    +0.000 N 
ATOM      6  C   UNL     1       3.893   2.782  19.697  0.00  0.00    +0.000 C 
ATOM      7  C   UNL     1       4.506   3.218  18.382  0.00  0.00    +0.000 C 
ATOM      8  C   UNL     1       3.455   2.830  17.343  0.00  0.00    +0.000 C 
ATOM      9  C   UNL     1       2.159   2.926  18.118  0.00  0.00    +0.000 C 
ATOM     10  O   UNL     1       1.048   3.001  17.624  0.00  0.00    +0.000 OA
BRANCH   5  12
ATOM     11  C   UNL     1       2.079   2.629  21.897  0.00  0.00    +0.000 C 
ATOM     12  C   UNL     1       1.489   3.050  20.553  0.00  0.00    +0.000 C 
ATOM     13  C   UNL     1       0.891   4.454  20.634  0.00  0.00    +0.000 C 
ENDBRANCH   5  12
ENDBRANCH   1   7
BRANCH   3  14
ATOM     14  C   UNL     1       4.141   6.921  17.459  0.00  0.00    +0.000 C 
BRANCH  14  15
ATOM     15  C   UNL     1       3.045   7.679  18.162  0.00  0.00    +0.000 A 
ATOM     16  C   UNL     1       2.695   7.344  19.480  0.00  0.00    +0.000 A 
ATOM     17  C   UNL     1       1.689   8.039  20.152  0.00  0.00    +0.000 A 
ATOM     18  C   UNL     1       1.027   9.084  19.501  0.00  0.00    +0.000 A 
ATOM     19  C   UNL     1       1.333   9.402  18.174  0.00  0.00    +0.000 A 
ATOM     20  C   UNL     1       2.345   8.707  17.510  0.00  0.00    +0.000 A 
BRANCH  18  21
ATOM     21  S   UNL     1      -0.266   9.975  20.344  0.00  0.00    +0.000 S 
ATOM     22  O   UNL     1      -1.252  10.340  19.348  0.00  0.00    +0.000 OA
ATOM     23  O   UNL     1      -0.636   9.207  21.513  0.00  0.00    +0.000 OA
BRANCH  21  24
ATOM     24  N   UNL     1       0.517  11.398  20.860  0.00  0.00    +0.000 NA
ATOM     25  C   UNL     1       1.139  12.233  19.819  0.00  0.00    +0.000 C 
ATOM     26  C   UNL     1      -0.162  12.181  21.906  0.00  0.00    +0.000 C 
ENDBRANCH  21  24
ENDBRANCH  18  21
ENDBRANCH  14  15
ENDBRANCH   3  14
TORSDOF 6
ENDMDL
MODEL 8
REMARK VINA RESULT:      -7.2      2.381      3.629
REMARK  Name = 
REMARK  10 active torsions:
REMARK  status: ('A' for Active; 'I' for Inactive)
REMARK    1  A    between atoms: C_1  and  C_2
REMARK    2  A    between atoms: C_2  and  C_3
REMARK    3  A    between atoms: C_2  and  N_4
REMARK    4  A    between atoms: C_6  and  C_7
REMARK    5  A    between atoms: N_9  and  C_10
REMARK    6  A    between atoms: C_10  and  C_11
REMARK    7  A    between atoms: C_14  and  S_15
REMARK    8  A    between atoms: S_15  and  N_18
REMARK    9  A    between atoms: N_18  and  C_19
REMARK   10  A    between atoms: N_18  and  C_20
REMARK                            x       y       z     vdW  Elec       q    Type
REMARK                         _______ _______ _______ _____ _____    ______ ____
ROOT
ATOM      1  C   UNL     1       1.860   5.201  19.735  0.00  0.00    +0.000 C 
ATOM      2  O   UNL     1       1.227   4.913  20.749  0.00  0.00    +0.000 OA
ATOM      3  N   UNL     1       2.378   6.454  19.509  0.00  0.00    +0.000 N 
ATOM      4  H   UNL     1       2.753   6.680  18.596  0.00  0.00    +0.000 HD
ENDROOT
BRANCH   1   7
ATOM      5  N   UNL     1       4.421   3.954  18.441  0.00  0.00    +0.000 N 
ATOM      6  C   UNL     1       3.285   4.540  17.761  0.00  0.00    +0.000 C 
ATOM      7  C   UNL     1       2.119   4.158  18.649  0.00  0.00    +0.000 C 
ATOM      8  C   UNL     1       2.531   2.807  19.233  0.00  0.00    +0.000 C 
ATOM      9  C   UNL     1       4.041   2.895  19.258  0.00  0.00    +0.000 C 
ATOM     10  O   UNL     1       4.776   2.181  19.917  0.00  0.00    +0.000 OA
BRANCH   5  12
ATOM     11  C   UNL     1       6.008   4.879  16.778  0.00  0.00    +0.000 C 
ATOM     12  C   UNL     1       5.806   4.364  18.200  0.00  0.00    +0.000 C 
ATOM     13  C   UNL     1       6.256   5.403  19.227  0.00  0.00    +0.000 C 
ENDBRANCH   5  12
ENDBRANCH   1   7
BRANCH   3  14
ATOM     14  C   UNL     1       2.235   7.546  20.441  0.00  0.00    +0.000 C 
BRANCH  14  15
ATOM     15  C   UNL     1       1.247   8.574  19.951  0.00  0.00    +0.000 A 
ATOM     16  C   UNL     1       0.284   9.096  20.830  0.00  0.00    +0.000 A 
ATOM     17  C   UNL     1      -0.632  10.055  20.399  0.00  0.00    +0.000 A 
ATOM     18  C   UNL     1      -0.585  10.502  19.076  0.00  0.00    +0.000 A 
ATOM     19  C   UNL     1       0.340   9.961  18.176  0.00  0.00    +0.000 A 
ATOM     20  C   UNL     1       1.258   9.006  18.615  0.00  0.00    +0.000 A 
BRANCH  18  21
ATOM     21  S   UNL     1      -1.755  11.720  18.509  0.00  0.00    +0.000 S 
ATOM     22  O   UNL     1      -2.519  12.147  19.663  0.00  0.00    +0.000 OA
ATOM     23  O   UNL     1      -1.032  12.677  17.698  0.00  0.00    +0.000 OA
BRANCH  21  24
ATOM     24  N   UNL     1      -2.787  10.823  17.492  0.00  0.00    +0.000 NA
ATOM     25  C   UNL     1      -4.194  10.699  17.910  0.00  0.00    +0.000 C 
ATOM     26  C   UNL     1      -2.625  11.029  16.042  0.00  0.00    +0.000 C 
ENDBRANCH  21  24
ENDBRANCH  18  21
ENDBRANCH  14  15
ENDBRANCH   3  14
TORSDOF 6
ENDMDL
MODEL 9
REMARK VINA RESULT:      -7.2      2.500      4.244
REMARK  Name = 
REMARK  10 active torsions:
REMARK  status: ('A' for Active; 'I' for Inactive)
REMARK    1  A    between atoms: C_1  and  C_2
REMARK    2  A    between atoms: C_2  and  C_3
REMARK    3  A    between atoms: C_2  and  N_4
REMARK    4  A    between atoms: C_6  and  C_7
REMARK    5  A    between atoms: N_9  and  C_10
REMARK    6  A    between atoms: C_10  and  C_11
REMARK    7  A    between atoms: C_14  and  S_15
REMARK    8  A    between atoms: S_15  and  N_18
REMARK    9  A    between atoms: N_18  and  C_19
REMARK   10  A    between atoms: N_18  and  C_20
REMARK                            x       y       z     vdW  Elec       q    Type
REMARK                         _______ _______ _______ _____ _____    ______ ____
ROOT
ATOM      1  C   UNL     1       4.092   5.092  17.542  0.00  0.00    +0.000 C 
ATOM      2  O   UNL     1       3.702   4.000  17.951  0.00  0.00    +0.000 OA
ATOM      3  N   UNL     1       3.738   6.281  18.135  0.00  0.00    +0.000 N 
ATOM      4  H   UNL     1       3.956   7.154  17.671  0.00  0.00    +0.000 HD
ENDROOT
BRANCH   1   7
ATOM      5  N   UNL     1       7.031   6.060  17.084  0.00  0.00    +0.000 N 
ATOM      6  C   UNL     1       5.847   6.458  16.352  0.00  0.00    +0.000 C 
ATOM      7  C   UNL     1       5.016   5.192  16.330  0.00  0.00    +0.000 C 
ATOM      8  C   UNL     1       6.055   4.072  16.303  0.00  0.00    +0.000 C 
ATOM      9  C   UNL     1       7.234   4.686  17.027  0.00  0.00    +0.000 C 
ATOM     10  O   UNL     1       8.166   4.065  17.506  0.00  0.00    +0.000 OA
BRANCH   5  12
ATOM     11  C   UNL     1       7.468   8.452  17.563  0.00  0.00    +0.000 C 
ATOM     12  C   UNL     1       7.953   7.012  17.707  0.00  0.00    +0.000 C 
ATOM     13  C   UNL     1       8.195   6.661  19.175  0.00  0.00    +0.000 C 
ENDBRANCH   5  12
ENDBRANCH   1   7
BRANCH   3  14
ATOM     14  C   UNL     1       2.885   6.359  19.296  0.00  0.00    +0.000 C 
BRANCH  14  15
ATOM     15  C   UNL     1       2.099   7.644  19.328  0.00  0.00    +0.000 A 
ATOM     16  C   UNL     1       1.534   8.092  20.533  0.00  0.00    +0.000 A 
ATOM     17  C   UNL     1       0.811   9.283  20.586  0.00  0.00    +0.000 A 
ATOM     18  C   UNL     1       0.653  10.040  19.422  0.00  0.00    +0.000 A 
ATOM     19  C   UNL     1       1.171   9.587  18.204  0.00  0.00    +0.000 A 
ATOM     20  C   UNL     1       1.898   8.397  18.159  0.00  0.00    +0.000 A 
BRANCH  18  21
ATOM     21  S   UNL     1      -0.276  11.560  19.472  0.00  0.00    +0.000 S 
ATOM     22  O   UNL     1      -0.985  11.670  18.213  0.00  0.00    +0.000 OA
ATOM     23  O   UNL     1      -0.987  11.597  20.732  0.00  0.00    +0.000 OA
BRANCH  21  24
ATOM     24  N   UNL     1       0.938  12.755  19.502  0.00  0.00    +0.000 NA
ATOM     25  C   UNL     1       1.745  12.857  20.730  0.00  0.00    +0.000 C 
ATOM     26  C   UNL     1       1.727  12.923  18.270  0.00  0.00    +0.000 C 
ENDBRANCH  21  24
ENDBRANCH  18  21
ENDBRANCH  14  15
ENDBRANCH   3  14
TORSDOF 6
ENDMDL
