MODEL 1
REMARK VINA RESULT:      -8.2      0.000      0.000
REMARK  Name = 
REMARK  3 active torsions:
REMARK  status: ('A' for Active; 'I' for Inactive)
REMARK    1  A    between atoms: C_4  and  C_5
REMARK    2  A    between atoms: C_5  and  C_6
REMARK    3  A    between atoms: C_5  and  C_12
REMARK                            x       y       z     vdW  Elec       q    Type
REMARK                         _______ _______ _______ _____ _____    ______ ____
ROOT
ATOM      1  C   UNL     1       3.641   5.607  18.528  0.00  0.00    +0.000 C 
ENDROOT
BRANCH   1   2
ATOM      2  C   UNL     1       2.951   4.560  17.579  0.00  0.00    +0.000 C 
ATOM      3  C   UNL     1       1.471   4.292  17.931  0.00  0.00    +0.000 C 
ATOM      4  C   UNL     1       1.211   2.969  18.642  0.00  0.00    +0.000 C 
ATOM      5  N   UNL     1       1.812   1.845  17.928  0.00  0.00    +0.000 NA
ATOM      6  C   UNL     1       3.261   1.990  17.902  0.00  0.00    +0.000 C 
ATOM      7  C   UNL     1       3.706   3.270  17.197  0.00  0.00    +0.000 C 
ATOM      8  H   UNL     1       1.459   1.821  16.972  0.00  0.00    +0.000 HD
ENDBRANCH   1   2
BRANCH   1  12
ATOM      9  C   UNL     1       7.897   6.467  18.267  0.00  0.00    +0.000 A 
ATOM     10  C   UNL     1       7.392   5.671  19.290  0.00  0.00    +0.000 A 
ATOM     11  C   UNL     1       6.023   5.399  19.349  0.00  0.00    +0.000 A 
ATOM     12  C   UNL     1       5.129   5.915  18.388  0.00  0.00    +0.000 A 
ATOM     13  C   UNL     1       5.657   6.747  17.397  0.00  0.00    +0.000 A 
ATOM     14  C   UNL     1       7.028   7.008  17.325  0.00  0.00    +0.000 A 
ENDBRANCH   1  12
BRANCH   1  15
ATOM     15  C   UNL     1       2.784   6.859  18.753  0.00  0.00    +0.000 A 
ATOM     16  C   UNL     1       2.219   7.171  19.996  0.00  0.00    +0.000 A 
ATOM     17  C   UNL     1       1.471   8.339  20.175  0.00  0.00    +0.000 A 
ATOM     18  C   UNL     1       1.261   9.207  19.106  0.00  0.00    +0.000 A 
ATOM     19  C   UNL     1       1.802   8.906  17.859  0.00  0.00    +0.000 A 
ATOM     20  C   UNL     1       2.558   7.745  17.684  0.00  0.00    +0.000 A 
ENDBRANCH   1  15
TORSDOF 3
ENDMDL
MODEL 2
REMARK VINA RESULT:      -8.1      0.594      1.257
REMARK  Name = 
REMARK  3 active torsions:
REMARK  status: ('A' for Active; 'I' for Inactive)
REMARK    1  A    between atoms: C_4  and  C_5
REMARK    2  A    between atoms: C_5  and  C_6
REMARK    3  A    between atoms: C_5  and  C_12
REMARK                            x       y       z     vdW  Elec       q    Type
REMARK                         _______ _______ _______ _____ _____    ______ ____
ROOT
ATOM      1  C   UNL     1       3.229   5.723  18.807  0.00  0.00    +0.000 C 
ENDROOT
BRANCH   1   2
ATOM      2  C   UNL     1       2.359   4.617  18.103  0.00  0.00    +0.000 C 
ATOM      3  C   UNL     1       1.312   3.970  19.037  0.00  0.00    +0.000 C 
ATOM      4  C   UNL     1       1.670   2.573  19.529  0.00  0.00    +0.000 C 
ATOM      5  N   UNL     1       2.033   1.688  18.424  0.00  0.00    +0.000 NA
ATOM      6  C   UNL     1       3.234   2.183  17.764  0.00  0.00    +0.000 C 
ATOM      7  C   UNL     1       3.046   3.584  17.186  0.00  0.00    +0.000 C 
ATOM      8  H   UNL     1       1.268   1.654  17.750  0.00  0.00    +0.000 HD
ENDBRANCH   1   2
BRANCH   1  12
ATOM      9  C   UNL     1       7.455   6.210  17.900  0.00  0.00    +0.000 A 
ATOM     10  C   UNL     1       7.044   5.490  19.017  0.00  0.00    +0.000 A 
ATOM     11  C   UNL     1       5.681   5.337  19.283  0.00  0.00    +0.000 A 
ATOM     12  C   UNL     1       4.699   5.899  18.441  0.00  0.00    +0.000 A 
ATOM     13  C   UNL     1       5.140   6.654  17.352  0.00  0.00    +0.000 A 
ATOM     14  C   UNL     1       6.503   6.796  17.072  0.00  0.00    +0.000 A 
ENDBRANCH   1  12
BRANCH   1  15
ATOM     15  C   UNL     1       2.482   7.054  18.963  0.00  0.00    +0.000 A 
ATOM     16  C   UNL     1       2.253   7.920  17.885  0.00  0.00    +0.000 A 
ATOM     17  C   UNL     1       1.538   9.108  18.056  0.00  0.00    +0.000 A 
ATOM     18  C   UNL     1       1.053   9.460  19.313  0.00  0.00    +0.000 A 
ATOM     19  C   UNL     1       1.283   8.620  20.399  0.00  0.00    +0.000 A 
ATOM     20  C   UNL     1       1.989   7.428  20.226  0.00  0.00    +0.000 A 
ENDBRANCH   1  15
TORSDOF 3
ENDMDL
MODEL 3
REMARK VINA RESULT:      -8.1      0.262      1.131
REMARK  Name = 
REMARK  3 active torsions:
REMARK  status: ('A' for Active; 'I' for Inactive)
REMARK    1  A    between atoms: C_4  and  C_5
REMARK    2  A    between atoms: C_5  and  C_6
REMARK    3  A    between atoms: C_5  and  C_12
REMARK                            x       y       z     vdW  Elec       q    Type
REMARK                         _______ _______ _______ _____ _____    ______ ____
ROOT
ATOM      1  C   UNL     1       3.471   5.621  18.693  0.00  0.00    +0.000 C 
ENDROOT
BRANCH   1   2
ATOM      2  C   UNL     1       2.741   4.549  17.802  0.00  0.00    +0.000 C 
ATOM      3  C   UNL     1       1.369   4.114  18.362  0.00  0.00    +0.000 C 
ATOM      4  C   UNL     1       1.354   2.743  19.028  0.00  0.00    +0.000 C 
ATOM      5  N   UNL     1       1.937   1.719  18.165  0.00  0.00    +0.000 NA
ATOM      6  C   UNL     1       3.343   2.013  17.924  0.00  0.00    +0.000 C 
ATOM      7  C   UNL     1       3.546   3.362  17.234  0.00  0.00    +0.000 C 
ATOM      8  H   UNL     1       1.440   1.698  17.275  0.00  0.00    +0.000 HD
ENDBRANCH   1   2
BRANCH   1  12
ATOM      9  C   UNL     1       7.696   6.411  18.030  0.00  0.00    +0.000 A 
ATOM     10  C   UNL     1       6.733   6.906  17.157  0.00  0.00    +0.000 A 
ATOM     11  C   UNL     1       5.381   6.649  17.395  0.00  0.00    +0.000 A 
ATOM     12  C   UNL     1       4.960   5.893  18.509  0.00  0.00    +0.000 A 
ATOM     13  C   UNL     1       5.951   5.372  19.345  0.00  0.00    +0.000 A 
ATOM     14  C   UNL     1       7.305   5.640  19.120  0.00  0.00    +0.000 A 
ENDBRANCH   1  12
BRANCH   1  15
ATOM     15  C   UNL     1       2.642   6.898  18.882  0.00  0.00    +0.000 A 
ATOM     16  C   UNL     1       2.112   7.274  20.123  0.00  0.00    +0.000 A 
ATOM     17  C   UNL     1       1.391   8.462  20.267  0.00  0.00    +0.000 A 
ATOM     18  C   UNL     1       1.171   9.287  19.167  0.00  0.00    +0.000 A 
ATOM     19  C   UNL     1       1.676   8.922  17.922  0.00  0.00    +0.000 A 
ATOM     20  C   UNL     1       2.406   7.740  17.781  0.00  0.00    +0.000 A 
ENDBRANCH   1  15
TORSDOF 3
ENDMDL
MODEL 4
REMARK VINA RESULT:      -8.1      0.402      1.609
REMARK  Name = 
REMARK  3 active torsions:
REMARK  status: ('A' for Active; 'I' for Inactive)
REMARK    1  A    between atoms: C_4  and  C_5
REMARK    2  A    between atoms: C_5  and  C_6
REMARK    3  A    between atoms: C_5  and  C_12
REMARK                            x       y       z     vdW  Elec       q    Type
REMARK                         _______ _______ _______ _____ _____    ______ ____
ROOT
ATOM      1  C   UNL     1       3.361   5.689  18.726  0.00  0.00    +0.000 C 
ENDROOT
BRANCH   1   2
ATOM      2  C   UNL     1       2.574   4.605  17.900  0.00  0.00    +0.000 C 
ATOM      3  C   UNL     1       1.319   4.070  18.625  0.00  0.00    +0.000 C 
ATOM      4  C   UNL     1       1.472   2.679  19.229  0.00  0.00    +0.000 C 
ATOM      5  N   UNL     1       1.985   1.721  18.253  0.00  0.00    +0.000 NA
ATOM      6  C   UNL     1       3.326   2.108  17.834  0.00  0.00    +0.000 C 
ATOM      7  C   UNL     1       3.356   3.488  17.179  0.00  0.00    +0.000 C 
ATOM      8  H   UNL     1       1.371   1.701  17.440  0.00  0.00    +0.000 HD
ENDBRANCH   1   2
BRANCH   1  12
ATOM      9  C   UNL     1       7.595   6.301  17.943  0.00  0.00    +0.000 A 
ATOM     10  C   UNL     1       6.629   6.832  17.095  0.00  0.00    +0.000 A 
ATOM     11  C   UNL     1       5.274   6.633  17.371  0.00  0.00    +0.000 A 
ATOM     12  C   UNL     1       4.855   5.899  18.500  0.00  0.00    +0.000 A 
ATOM     13  C   UNL     1       5.846   5.339  19.310  0.00  0.00    +0.000 A 
ATOM     14  C   UNL     1       7.203   5.551  19.046  0.00  0.00    +0.000 A 
ENDBRANCH   1  12
BRANCH   1  15
ATOM     15  C   UNL     1       2.581   7.002  18.874  0.00  0.00    +0.000 A 
ATOM     16  C   UNL     1       2.323   7.850  17.788  0.00  0.00    +0.000 A 
ATOM     17  C   UNL     1       1.580   9.022  17.951  0.00  0.00    +0.000 A 
ATOM     18  C   UNL     1       1.095   9.375  19.209  0.00  0.00    +0.000 A 
ATOM     19  C   UNL     1       1.353   8.553  20.302  0.00  0.00    +0.000 A 
ATOM     20  C   UNL     1       2.088   7.377  20.136  0.00  0.00    +0.000 A 
ENDBRANCH   1  15
TORSDOF 3
ENDMDL
MODEL 5
REMARK VINA RESULT:      -7.9      2.060      4.275
REMARK  Name = 
REMARK  3 active torsions:
REMARK  status: ('A' for Active; 'I' for Inactive)
REMARK    1  A    between atoms: C_4  and  C_5
REMARK    2  A    between atoms: C_5  and  C_6
REMARK    3  A    between atoms: C_5  and  C_12
REMARK                            x       y       z     vdW  Elec       q    Type
REMARK                         _______ _______ _______ _____ _____    ______ ____
ROOT
ATOM      1  C   UNL     1       3.765   5.674  17.356  0.00  0.00    +0.000 C 
ENDROOT
BRANCH   1   2
ATOM      2  C   UNL     1       5.205   6.112  16.895  0.00  0.00    +0.000 C 
ATOM      3  C   UNL     1       5.627   5.510  15.537  0.00  0.00    +0.000 C 
ATOM      4  C   UNL     1       6.623   4.360  15.626  0.00  0.00    +0.000 C 
ATOM      5  N   UNL     1       7.779   4.710  16.447  0.00  0.00    +0.000 NA
ATOM      6  C   UNL     1       7.357   4.962  17.819  0.00  0.00    +0.000 C 
ATOM      7  C   UNL     1       6.359   6.114  17.920  0.00  0.00    +0.000 C 
ATOM      8  H   UNL     1       8.222   5.548  16.072  0.00  0.00    +0.000 HD
ENDBRANCH   1   2
BRANCH   1  12
ATOM      9  C   UNL     1       2.956   1.717  18.970  0.00  0.00    +0.000 A 
ATOM     10  C   UNL     1       2.184   2.237  17.937  0.00  0.00    +0.000 A 
ATOM     11  C   UNL     1       2.468   3.506  17.426  0.00  0.00    +0.000 A 
ATOM     12  C   UNL     1       3.529   4.283  17.935  0.00  0.00    +0.000 A 
ATOM     13  C   UNL     1       4.260   3.755  19.002  0.00  0.00    +0.000 A 
ATOM     14  C   UNL     1       3.989   2.478  19.505  0.00  0.00    +0.000 A 
ENDBRANCH   1  12
BRANCH   1  15
ATOM     15  C   UNL     1       3.026   6.780  18.118  0.00  0.00    +0.000 A 
ATOM     16  C   UNL     1       2.710   8.014  17.535  0.00  0.00    +0.000 A 
ATOM     17  C   UNL     1       2.004   8.987  18.247  0.00  0.00    +0.000 A 
ATOM     18  C   UNL     1       1.616   8.749  19.564  0.00  0.00    +0.000 A 
ATOM     19  C   UNL     1       1.934   7.535  20.165  0.00  0.00    +0.000 A 
ATOM     20  C   UNL     1       2.630   6.558  19.449  0.00  0.00    +0.000 A 
ENDBRANCH   1  15
TORSDOF 3
ENDMDL
MODEL 6
REMARK VINA RESULT:      -7.9      2.044      4.105
REMARK  Name = 
REMARK  3 active torsions:
REMARK  status: ('A' for Active; 'I' for Inactive)
REMARK    1  A    between atoms: C_4  and  C_5
REMARK    2  A    between atoms: C_5  and  C_6
REMARK    3  A    between atoms: C_5  and  C_12
REMARK                            x       y       z     vdW  Elec       q    Type
REMARK                         _______ _______ _______ _____ _____    ______ ____
ROOT
ATOM      1  C   UNL     1       3.621   5.891  17.456  0.00  0.00    +0.000 C 
ENDROOT
BRANCH   1   2
ATOM      2  C   UNL     1       4.984   6.494  16.952  0.00  0.00    +0.000 C 
ATOM      3  C   UNL     1       5.227   6.290  15.441  0.00  0.00    +0.000 C 
ATOM      4  C   UNL     1       6.234   5.200  15.095  0.00  0.00    +0.000 C 
ATOM      5  N   UNL     1       7.486   5.370  15.828  0.00  0.00    +0.000 NA
ATOM      6  C   UNL     1       7.247   5.233  17.259  0.00  0.00    +0.000 C 
ATOM      7  C   UNL     1       6.262   6.275  17.788  0.00  0.00    +0.000 C 
ATOM      8  H   UNL     1       7.870   6.295  15.638  0.00  0.00    +0.000 HD
ENDBRANCH   1   2
BRANCH   1  12
ATOM      9  C   UNL     1       3.290   1.784  18.848  0.00  0.00    +0.000 A 
ATOM     10  C   UNL     1       2.504   2.245  17.798  0.00  0.00    +0.000 A 
ATOM     11  C   UNL     1       2.634   3.565  17.360  0.00  0.00    +0.000 A 
ATOM     12  C   UNL     1       3.551   4.453  17.960  0.00  0.00    +0.000 A 
ATOM     13  C   UNL     1       4.296   3.975  19.041  0.00  0.00    +0.000 A 
ATOM     14  C   UNL     1       4.181   2.650  19.473  0.00  0.00    +0.000 A 
ENDBRANCH   1  12
BRANCH   1  15
ATOM     15  C   UNL     1       2.821   6.873  18.321  0.00  0.00    +0.000 A 
ATOM     16  C   UNL     1       2.468   6.593  19.647  0.00  0.00    +0.000 A 
ATOM     17  C   UNL     1       1.770   7.526  20.419  0.00  0.00    +0.000 A 
ATOM     18  C   UNL     1       1.396   8.750  19.870  0.00  0.00    +0.000 A 
ATOM     19  C   UNL     1       1.725   9.041  18.549  0.00  0.00    +0.000 A 
ATOM     20  C   UNL     1       2.433   8.113  17.782  0.00  0.00    +0.000 A 
ENDBRANCH   1  15
TORSDOF 3
ENDMDL
MODEL 7
REMARK VINA RESULT:      -7.9      1.935      4.977
REMARK  Name = 
REMARK  3 active torsions:
REMARK  status: ('A' for Active; 'I' for Inactive)
REMARK    1  A    between atoms: C_4  and  C_5
REMARK    2  A    between atoms: C_5  and  C_6
REMARK    3  A    between atoms: C_5  and  C_12
REMARK                            x       y       z     vdW  Elec       q    Type
REMARK                         _______ _______ _______ _____ _____    ______ ____
ROOT
ATOM      1  C   UNL     1       3.690   6.168  18.330  0.00  0.00    +0.000 C 
ENDROOT
BRANCH   1   2
ATOM      2  C   UNL     1       4.592   6.172  17.041  0.00  0.00    +0.000 C 
ATOM      3  C   UNL     1       4.865   4.760  16.477  0.00  0.00    +0.000 C 
ATOM      4  C   UNL     1       6.260   4.215  16.763  0.00  0.00    +0.000 C 
ATOM      5  N   UNL     1       7.300   5.165  16.376  0.00  0.00    +0.000 NA
ATOM      6  C   UNL     1       7.190   6.377  17.177  0.00  0.00    +0.000 C 
ATOM      7  C   UNL     1       5.842   7.074  16.995  0.00  0.00    +0.000 C 
ATOM      8  H   UNL     1       7.195   5.402  15.390  0.00  0.00    +0.000 HD
ENDBRANCH   1   2
BRANCH   1  12
ATOM      9  C   UNL     1       0.997   9.447  19.288  0.00  0.00    +0.000 A 
ATOM     10  C   UNL     1       1.313   8.483  20.239  0.00  0.00    +0.000 A 
ATOM     11  C   UNL     1       2.188   7.444  19.913  0.00  0.00    +0.000 A 
ATOM     12  C   UNL     1       2.768   7.346  18.631  0.00  0.00    +0.000 A 
ATOM     13  C   UNL     1       2.399   8.302  17.682  0.00  0.00    +0.000 A 
ATOM     14  C   UNL     1       1.536   9.353  18.008  0.00  0.00    +0.000 A 
ENDBRANCH   1  12
BRANCH   1  15
ATOM     15  C   UNL     1       3.035   4.806  18.591  0.00  0.00    +0.000 A 
ATOM     16  C   UNL     1       3.573   3.872  19.486  0.00  0.00    +0.000 A 
ATOM     17  C   UNL     1       2.932   2.653  19.727  0.00  0.00    +0.000 A 
ATOM     18  C   UNL     1       1.749   2.341  19.062  0.00  0.00    +0.000 A 
ATOM     19  C   UNL     1       1.207   3.250  18.158  0.00  0.00    +0.000 A 
ATOM     20  C   UNL     1       1.842   4.472  17.926  0.00  0.00    +0.000 A 
ENDBRANCH   1  15
TORSDOF 3
ENDMDL
MODEL 8
REMARK VINA RESULT:      -7.8      1.918      5.103
REMARK  Name = 
REMARK  3 active torsions:
REMARK  status: ('A' for Active; 'I' for Inactive)
REMARK    1  A    between atoms: C_4  and  C_5
REMARK    2  A    between atoms: C_5  and  C_6
REMARK    3  A    between atoms: C_5  and  C_12
REMARK                            x       y       z     vdW  Elec       q    Type
REMARK                         _______ _______ _______ _____ _____    ______ ____
ROOT
ATOM      1  C   UNL     1       3.706   6.113  18.343  0.00  0.00    +0.000 C 
ENDROOT
BRANCH   1   2
ATOM      2  C   UNL     1       4.600   6.167  17.049  0.00  0.00    +0.000 C 
ATOM      3  C   UNL     1       4.847   4.781  16.414  0.00  0.00    +0.000 C 
ATOM      4  C   UNL     1       6.235   4.201  16.662  0.00  0.00    +0.000 C 
ATOM      5  N   UNL     1       7.287   5.152  16.315  0.00  0.00    +0.000 NA
ATOM      6  C   UNL     1       7.202   6.324  17.176  0.00  0.00    +0.000 C 
ATOM      7  C   UNL     1       5.864   7.051  17.040  0.00  0.00    +0.000 C 
ATOM      8  H   UNL     1       7.180   5.440  15.343  0.00  0.00    +0.000 HD
ENDBRANCH   1   2
BRANCH   1  12
ATOM      9  C   UNL     1       1.065   9.463  19.192  0.00  0.00    +0.000 A 
ATOM     10  C   UNL     1       1.666   9.327  17.945  0.00  0.00    +0.000 A 
ATOM     11  C   UNL     1       2.502   8.238  17.691  0.00  0.00    +0.000 A 
ATOM     12  C   UNL     1       2.757   7.260  18.675  0.00  0.00    +0.000 A 
ATOM     13  C   UNL     1       2.176   7.445  19.932  0.00  0.00    +0.000 A 
ATOM     14  C   UNL     1       1.325   8.525  20.186  0.00  0.00    +0.000 A 
ENDBRANCH   1  12
BRANCH   1  15
ATOM     15  C   UNL     1       3.088   4.729  18.578  0.00  0.00    +0.000 A 
ATOM     16  C   UNL     1       3.691   3.765  19.396  0.00  0.00    +0.000 A 
ATOM     17  C   UNL     1       3.083   2.526  19.617  0.00  0.00    +0.000 A 
ATOM     18  C   UNL     1       1.867   2.224  19.008  0.00  0.00    +0.000 A 
ATOM     19  C   UNL     1       1.259   3.164  18.181  0.00  0.00    +0.000 A 
ATOM     20  C   UNL     1       1.862   4.405  17.969  0.00  0.00    +0.000 A 
ENDBRANCH   1  15
TORSDOF 3
ENDMDL
MODEL 9
REMARK VINA RESULT:      -7.8      1.908      5.170
REMARK  Name = 
REMARK  3 active torsions:
REMARK  status: ('A' for Active; 'I' for Inactive)
REMARK    1  A    between atoms: C_4  and  C_5
REMARK    2  A    between atoms: C_5  and  C_6
REMARK    3  A    between atoms: C_5  and  C_12
REMARK                            x       y       z     vdW  Elec       q    Type
REMARK                         _______ _______ _______ _____ _____    ______ ____
ROOT
ATOM      1  C   UNL     1       3.666   6.169  18.362  0.00  0.00    +0.000 C 
ENDROOT
BRANCH   1   2
ATOM      2  C   UNL     1       4.576   6.207  17.079  0.00  0.00    +0.000 C 
ATOM      3  C   UNL     1       4.815   4.815  16.452  0.00  0.00    +0.000 C 
ATOM      4  C   UNL     1       6.193   4.221  16.719  0.00  0.00    +0.000 C 
ATOM      5  N   UNL     1       7.260   5.159  16.381  0.00  0.00    +0.000 NA
ATOM      6  C   UNL     1       7.177   6.336  17.236  0.00  0.00    +0.000 C 
ATOM      7  C   UNL     1       5.850   7.077  17.080  0.00  0.00    +0.000 C 
ATOM      8  H   UNL     1       7.168   5.444  15.406  0.00  0.00    +0.000 HD
ENDBRANCH   1   2
BRANCH   1  12
ATOM      9  C   UNL     1       1.044   9.547  19.158  0.00  0.00    +0.000 A 
ATOM     10  C   UNL     1       1.660   9.399  17.920  0.00  0.00    +0.000 A 
ATOM     11  C   UNL     1       2.490   8.301  17.682  0.00  0.00    +0.000 A 
ATOM     12  C   UNL     1       2.723   7.326  18.675  0.00  0.00    +0.000 A 
ATOM     13  C   UNL     1       2.127   7.523  19.923  0.00  0.00    +0.000 A 
ATOM     14  C   UNL     1       1.283   8.612  20.161  0.00  0.00    +0.000 A 
ENDBRANCH   1  12
BRANCH   1  15
ATOM     15  C   UNL     1       3.033   4.792  18.598  0.00  0.00    +0.000 A 
ATOM     16  C   UNL     1       1.843   4.394  17.975  0.00  0.00    +0.000 A 
ATOM     17  C   UNL     1       1.312   3.119  18.185  0.00  0.00    +0.000 A 
ATOM     18  C   UNL     1       1.954   2.224  19.038  0.00  0.00    +0.000 A 
ATOM     19  C   UNL     1       3.129   2.607  19.678  0.00  0.00    +0.000 A 
ATOM     20  C   UNL     1       3.665   3.877  19.459  0.00  0.00    +0.000 A 
ENDBRANCH   1  15
TORSDOF 3
ENDMDL
