MODEL 1
REMARK VINA RESULT:      -7.8      0.000      0.000
REMARK  Name = 
REMARK  8 active torsions:
REMARK  status: ('A' for Active; 'I' for Inactive)
REMARK    1  A    between atoms: C_1  and  C_2
REMARK    2  A    between atoms: C_3  and  N_4
REMARK    3  A    between atoms: C_5  and  C_7
REMARK    4  A    between atoms: C_7  and  O_8
REMARK    5  A    between atoms: O_8  and  C_9
REMARK    6  A    between atoms: C_9  and  C_11
REMARK    7  A    between atoms: N_20  and  C_21
REMARK    8  A    between atoms: N_27  and  C_28
REMARK                            x       y       z     vdW  Elec       q    Type
REMARK                         _______ _______ _______ _____ _____    ______ ____
ROOT
ATOM      1  N   UNL     1       2.259   6.240  20.747  0.00  0.00    +0.000 N 
ATOM      2  C   UNL     1       1.879   4.961  20.363  0.00  0.00    +0.000 C 
ATOM      3  O   UNL     1       1.105   4.699  19.444  0.00  0.00    +0.000 OA
ATOM      4  H   UNL     1       2.589   6.336  21.705  0.00  0.00    +0.000 HD
ENDROOT
BRANCH   1   7
ATOM      5  C   UNL     1       3.107   7.415  17.848  0.00  0.00    +0.000 C 
ATOM      6  C   UNL     1       2.181   7.930  18.907  0.00  0.00    +0.000 A 
ATOM      7  C   UNL     1       1.938   7.418  20.129  0.00  0.00    +0.000 A 
ATOM      8  C   UNL     1       1.231   8.515  20.883  0.00  0.00    +0.000 A 
ATOM      9  O   UNL     1       0.887   8.404  22.052  0.00  0.00    +0.000 OA
ATOM     10  N   UNL     1       1.049   9.562  19.977  0.00  0.00    +0.000 N 
ATOM     11  N   UNL     1       1.542   9.165  18.717  0.00  0.00    +0.000 N 
ATOM     12  C   UNL     1       2.096  10.193  17.833  0.00  0.00    +0.000 C 
BRANCH  10  13
ATOM     13  C   UNL     1       0.196  10.673  20.138  0.00  0.00    +0.000 A 
ATOM     14  C   UNL     1      -1.024  10.727  19.456  0.00  0.00    +0.000 A 
ATOM     15  C   UNL     1      -1.952  11.730  19.759  0.00  0.00    +0.000 A 
ATOM     16  C   UNL     1      -1.649  12.709  20.705  0.00  0.00    +0.000 A 
ATOM     17  C   UNL     1      -0.410  12.700  21.341  0.00  0.00    +0.000 A 
ATOM     18  C   UNL     1       0.505  11.685  21.058  0.00  0.00    +0.000 A 
ENDBRANCH  10  13
ENDBRANCH   1   7
BRANCH   2  19
ATOM     19  C   UNL     1       2.408   3.861  21.283  0.00  0.00    +0.000 C 
BRANCH  19  20
ATOM     20  O   UNL     1       2.807   2.688  20.572  0.00  0.00    +0.000 OA
BRANCH  20  21
ATOM     21  C   UNL     1       4.136   2.598  20.327  0.00  0.00    +0.000 C 
ATOM     22  O   UNL     1       4.935   1.924  20.952  0.00  0.00    +0.000 OA
BRANCH  21  23
ATOM     23  C   UNL     1       4.480   3.306  19.074  0.00  0.00    +0.000 A 
ATOM     24  C   UNL     1       5.503   4.265  19.169  0.00  0.00    +0.000 A 
ATOM     25  C   UNL     1       5.922   4.971  18.040  0.00  0.00    +0.000 A 
ATOM     26  C   UNL     1       5.319   4.729  16.810  0.00  0.00    +0.000 A 
ATOM     27  C   UNL     1       4.287   3.793  16.709  0.00  0.00    +0.000 A 
ATOM     28  C   UNL     1       3.855   3.085  17.839  0.00  0.00    +0.000 A 
ATOM     29 CL   UNL     1       2.517   2.014  17.615  0.00  0.00    +0.000 Cl
ENDBRANCH  21  23
ENDBRANCH  20  21
ENDBRANCH  19  20
ENDBRANCH   2  19
TORSDOF 6
ENDMDL
MODEL 2
REMARK VINA RESULT:      -7.6      2.321      3.988
REMARK  Name = 
REMARK  8 active torsions:
REMARK  status: ('A' for Active; 'I' for Inactive)
REMARK    1  A    between atoms: C_1  and  C_2
REMARK    2  A    between atoms: C_3  and  N_4
REMARK    3  A    between atoms: C_5  and  C_7
REMARK    4  A    between atoms: C_7  and  O_8
REMARK    5  A    between atoms: O_8  and  C_9
REMARK    6  A    between atoms: C_9  and  C_11
REMARK    7  A    between atoms: N_20  and  C_21
REMARK    8  A    between atoms: N_27  and  C_28
REMARK                            x       y       z     vdW  Elec       q    Type
REMARK                         _______ _______ _______ _____ _____    ______ ____
ROOT
ATOM      1  N   UNL     1       1.014   9.022  19.344  0.00  0.00    +0.000 N 
ATOM      2  C   UNL     1       1.935   9.066  18.307  0.00  0.00    +0.000 C 
ATOM      3  O   UNL     1       2.003   9.953  17.457  0.00  0.00    +0.000 OA
ATOM      4  H   UNL     1       0.828   8.101  19.734  0.00  0.00    +0.000 HD
ENDROOT
BRANCH   1   7
ATOM      5  C   UNL     1      -1.513  10.204  17.693  0.00  0.00    +0.000 C 
ATOM      6  C   UNL     1      -1.016  10.457  19.083  0.00  0.00    +0.000 A 
ATOM      7  C   UNL     1       0.096   9.981  19.675  0.00  0.00    +0.000 A 
ATOM      8  C   UNL     1       0.284  10.835  20.904  0.00  0.00    +0.000 A 
ATOM      9  O   UNL     1       1.229  10.698  21.670  0.00  0.00    +0.000 OA
ATOM     10  N   UNL     1      -0.813  11.696  20.958  0.00  0.00    +0.000 N 
ATOM     11  N   UNL     1      -1.681  11.396  19.887  0.00  0.00    +0.000 N 
ATOM     12  C   UNL     1      -2.472  12.484  19.309  0.00  0.00    +0.000 C 
BRANCH  10  13
ATOM     13  C   UNL     1      -1.219  12.472  22.063  0.00  0.00    +0.000 A 
ATOM     14  C   UNL     1      -0.515  13.632  22.403  0.00  0.00    +0.000 A 
ATOM     15  C   UNL     1      -1.026  14.501  23.373  0.00  0.00    +0.000 A 
ATOM     16  C   UNL     1      -2.211  14.194  24.042  0.00  0.00    +0.000 A 
ATOM     17  C   UNL     1      -2.883  13.009  23.756  0.00  0.00    +0.000 A 
ATOM     18  C   UNL     1      -2.388  12.155  22.769  0.00  0.00    +0.000 A 
ENDBRANCH  10  13
ENDBRANCH   1   7
BRANCH   2  19
ATOM     19  C   UNL     1       2.813   7.818  18.211  0.00  0.00    +0.000 C 
BRANCH  19  20
ATOM     20  O   UNL     1       2.451   6.812  19.159  0.00  0.00    +0.000 OA
BRANCH  20  21
ATOM     21  C   UNL     1       3.304   5.763  19.226  0.00  0.00    +0.000 C 
ATOM     22  O   UNL     1       4.486   5.818  19.517  0.00  0.00    +0.000 OA
BRANCH  21  23
ATOM     23  C   UNL     1       2.570   4.489  19.061  0.00  0.00    +0.000 A 
ATOM     24  C   UNL     1       1.566   4.229  20.010  0.00  0.00    +0.000 A 
ATOM     25  C   UNL     1       0.797   3.068  19.930  0.00  0.00    +0.000 A 
ATOM     26  C   UNL     1       1.026   2.156  18.905  0.00  0.00    +0.000 A 
ATOM     27  C   UNL     1       2.034   2.395  17.969  0.00  0.00    +0.000 A 
ATOM     28  C   UNL     1       2.817   3.554  18.046  0.00  0.00    +0.000 A 
ATOM     29 CL   UNL     1       4.089   3.706  16.886  0.00  0.00    +0.000 Cl
ENDBRANCH  21  23
ENDBRANCH  20  21
ENDBRANCH  19  20
ENDBRANCH   2  19
TORSDOF 6
ENDMDL
MODEL 3
REMARK VINA RESULT:      -7.5      6.058      8.850
REMARK  Name = 
REMARK  8 active torsions:
REMARK  status: ('A' for Active; 'I' for Inactive)
REMARK    1  A    between atoms: C_1  and  C_2
REMARK    2  A    between atoms: C_3  and  N_4
REMARK    3  A    between atoms: C_5  and  C_7
REMARK    4  A    between atoms: C_7  and  O_8
REMARK    5  A    between atoms: O_8  and  C_9
REMARK    6  A    between atoms: C_9  and  C_11
REMARK    7  A    between atoms: N_20  and  C_21
REMARK    8  A    between atoms: N_27  and  C_28
REMARK                            x       y       z     vdW  Elec       q    Type
REMARK                         _______ _______ _______ _____ _____    ______ ____
ROOT
ATOM      1  N   UNL     1       6.657   7.577  17.081  0.00  0.00    +0.000 N 
ATOM      2  C   UNL     1       7.757   7.919  17.856  0.00  0.00    +0.000 C 
ATOM      3  O   UNL     1       8.327   7.170  18.647  0.00  0.00    +0.000 OA
ATOM      4  H   UNL     1       6.078   8.351  16.765  0.00  0.00    +0.000 HD
ENDROOT
BRANCH   1   7
ATOM      5  C   UNL     1       7.407   5.035  15.214  0.00  0.00    +0.000 C 
ATOM      6  C   UNL     1       6.381   5.222  16.289  0.00  0.00    +0.000 A 
ATOM      7  C   UNL     1       6.076   6.342  16.971  0.00  0.00    +0.000 A 
ATOM      8  C   UNL     1       4.756   6.051  17.638  0.00  0.00    +0.000 A 
ATOM      9  O   UNL     1       4.161   6.873  18.323  0.00  0.00    +0.000 OA
ATOM     10  N   UNL     1       4.449   4.722  17.342  0.00  0.00    +0.000 N 
ATOM     11  N   UNL     1       5.505   4.167  16.590  0.00  0.00    +0.000 N 
ATOM     12  C   UNL     1       5.189   3.123  15.613  0.00  0.00    +0.000 C 
BRANCH  10  13
ATOM     13  C   UNL     1       3.470   3.925  17.970  0.00  0.00    +0.000 A 
ATOM     14  C   UNL     1       3.823   3.084  19.030  0.00  0.00    +0.000 A 
ATOM     15  C   UNL     1       2.828   2.441  19.775  0.00  0.00    +0.000 A 
ATOM     16  C   UNL     1       1.484   2.595  19.437  0.00  0.00    +0.000 A 
ATOM     17  C   UNL     1       1.128   3.379  18.343  0.00  0.00    +0.000 A 
ATOM     18  C   UNL     1       2.118   4.042  17.616  0.00  0.00    +0.000 A 
ENDBRANCH  10  13
ENDBRANCH   1   7
BRANCH   2  19
ATOM     19  C   UNL     1       8.146   9.394  17.752  0.00  0.00    +0.000 C 
BRANCH  19  20
ATOM     20  O   UNL     1       8.926   9.841  18.861  0.00  0.00    +0.000 OA
BRANCH  20  21
ATOM     21  C   UNL     1       9.675  10.944  18.621  0.00  0.00    +0.000 C 
ATOM     22  O   UNL     1      10.390  11.127  17.652  0.00  0.00    +0.000 OA
BRANCH  21  23
ATOM     23  C   UNL     1       9.381  11.995  19.620  0.00  0.00    +0.000 A 
ATOM     24  C   UNL     1       9.782  11.720  20.939  0.00  0.00    +0.000 A 
ATOM     25  C   UNL     1       9.576  12.656  21.953  0.00  0.00    +0.000 A 
ATOM     26  C   UNL     1       8.964  13.870  21.660  0.00  0.00    +0.000 A 
ATOM     27  C   UNL     1       8.543  14.145  20.358  0.00  0.00    +0.000 A 
ATOM     28  C   UNL     1       8.739  13.208  19.334  0.00  0.00    +0.000 A 
ATOM     29 CL   UNL     1       8.104  13.618  17.779  0.00  0.00    +0.000 Cl
ENDBRANCH  21  23
ENDBRANCH  20  21
ENDBRANCH  19  20
ENDBRANCH   2  19
TORSDOF 6
ENDMDL
MODEL 4
REMARK VINA RESULT:      -7.5      6.260      8.895
REMARK  Name = 
REMARK  8 active torsions:
REMARK  status: ('A' for Active; 'I' for Inactive)
REMARK    1  A    between atoms: C_1  and  C_2
REMARK    2  A    between atoms: C_3  and  N_4
REMARK    3  A    between atoms: C_5  and  C_7
REMARK    4  A    between atoms: C_7  and  O_8
REMARK    5  A    between atoms: O_8  and  C_9
REMARK    6  A    between atoms: C_9  and  C_11
REMARK    7  A    between atoms: N_20  and  C_21
REMARK    8  A    between atoms: N_27  and  C_28
REMARK                            x       y       z     vdW  Elec       q    Type
REMARK                         _______ _______ _______ _____ _____    ______ ____
ROOT
ATOM      1  N   UNL     1       6.649   7.735  17.111  0.00  0.00    +0.000 N 
ATOM      2  C   UNL     1       7.758   8.076  17.874  0.00  0.00    +0.000 C 
ATOM      3  O   UNL     1       8.332   7.327  18.663  0.00  0.00    +0.000 OA
ATOM      4  H   UNL     1       6.070   8.511  16.798  0.00  0.00    +0.000 HD
ENDROOT
BRANCH   1   7
ATOM      5  C   UNL     1       7.402   5.164  15.287  0.00  0.00    +0.000 C 
ATOM      6  C   UNL     1       6.365   5.372  16.348  0.00  0.00    +0.000 A 
ATOM      7  C   UNL     1       6.061   6.503  17.012  0.00  0.00    +0.000 A 
ATOM      8  C   UNL     1       4.732   6.230  17.669  0.00  0.00    +0.000 A 
ATOM      9  O   UNL     1       4.135   7.065  18.336  0.00  0.00    +0.000 OA
ATOM     10  N   UNL     1       4.419   4.899  17.387  0.00  0.00    +0.000 N 
ATOM     11  N   UNL     1       5.480   4.326  16.655  0.00  0.00    +0.000 N 
ATOM     12  C   UNL     1       5.167   3.271  15.689  0.00  0.00    +0.000 C 
BRANCH  10  13
ATOM     13  C   UNL     1       3.429   4.117  18.016  0.00  0.00    +0.000 A 
ATOM     14  C   UNL     1       2.087   4.255  17.648  0.00  0.00    +0.000 A 
ATOM     15  C   UNL     1       1.132   3.351  18.130  0.00  0.00    +0.000 A 
ATOM     16  C   UNL     1       1.503   2.341  19.017  0.00  0.00    +0.000 A 
ATOM     17  C   UNL     1       2.825   2.237  19.439  0.00  0.00    +0.000 A 
ATOM     18  C   UNL     1       3.782   3.121  18.938  0.00  0.00    +0.000 A 
ENDBRANCH  10  13
ENDBRANCH   1   7
BRANCH   2  19
ATOM     19  C   UNL     1       8.153   9.548  17.760  0.00  0.00    +0.000 C 
BRANCH  19  20
ATOM     20  O   UNL     1       9.425   9.828  18.346  0.00  0.00    +0.000 OA
BRANCH  20  21
ATOM     21  C   UNL     1       9.444  10.896  19.178  0.00  0.00    +0.000 C 
ATOM     22  O   UNL     1       9.166  10.885  20.364  0.00  0.00    +0.000 OA
BRANCH  21  23
ATOM     23  C   UNL     1      10.017  12.075  18.492  0.00  0.00    +0.000 A 
ATOM     24  C   UNL     1      11.180  11.844  17.737  0.00  0.00    +0.000 A 
ATOM     25  C   UNL     1      11.786  12.883  17.030  0.00  0.00    +0.000 A 
ATOM     26  C   UNL     1      11.238  14.161  17.073  0.00  0.00    +0.000 A 
ATOM     27  C   UNL     1      10.095  14.406  17.836  0.00  0.00    +0.000 A 
ATOM     28  C   UNL     1       9.484  13.370  18.557  0.00  0.00    +0.000 A 
ATOM     29 CL   UNL     1       8.125  13.804  19.532  0.00  0.00    +0.000 Cl
ENDBRANCH  21  23
ENDBRANCH  20  21
ENDBRANCH  19  20
ENDBRANCH   2  19
TORSDOF 6
ENDMDL
MODEL 5
REMARK VINA RESULT:      -7.4      6.331      9.028
REMARK  Name = 
REMARK  8 active torsions:
REMARK  status: ('A' for Active; 'I' for Inactive)
REMARK    1  A    between atoms: C_1  and  C_2
REMARK    2  A    between atoms: C_3  and  N_4
REMARK    3  A    between atoms: C_5  and  C_7
REMARK    4  A    between atoms: C_7  and  O_8
REMARK    5  A    between atoms: O_8  and  C_9
REMARK    6  A    between atoms: C_9  and  C_11
REMARK    7  A    between atoms: N_20  and  C_21
REMARK    8  A    between atoms: N_27  and  C_28
REMARK                            x       y       z     vdW  Elec       q    Type
REMARK                         _______ _______ _______ _____ _____    ______ ____
ROOT
ATOM      1  N   UNL     1       7.571   6.648  18.093  0.00  0.00    +0.000 N 
ATOM      2  C   UNL     1       7.643   8.008  17.820  0.00  0.00    +0.000 C 
ATOM      3  O   UNL     1       6.984   8.594  16.963  0.00  0.00    +0.000 OA
ATOM      4  H   UNL     1       8.389   6.241  18.539  0.00  0.00    +0.000 HD
ENDROOT
BRANCH   1   7
ATOM      5  C   UNL     1       7.591   5.150  15.218  0.00  0.00    +0.000 C 
ATOM      6  C   UNL     1       6.692   5.023  16.410  0.00  0.00    +0.000 A 
ATOM      7  C   UNL     1       6.702   5.742  17.548  0.00  0.00    +0.000 A 
ATOM      8  C   UNL     1       5.383   5.444  18.214  0.00  0.00    +0.000 A 
ATOM      9  O   UNL     1       5.039   5.961  19.269  0.00  0.00    +0.000 OA
ATOM     10  N   UNL     1       4.748   4.487  17.421  0.00  0.00    +0.000 N 
ATOM     11  N   UNL     1       5.601   4.141  16.353  0.00  0.00    +0.000 N 
ATOM     12  C   UNL     1       4.995   3.744  15.080  0.00  0.00    +0.000 C 
BRANCH  10  13
ATOM     13  C   UNL     1       3.634   3.701  17.782  0.00  0.00    +0.000 A 
ATOM     14  C   UNL     1       3.820   2.421  18.314  0.00  0.00    +0.000 A 
ATOM     15  C   UNL     1       2.733   1.720  18.848  0.00  0.00    +0.000 A 
ATOM     16  C   UNL     1       1.452   2.269  18.808  0.00  0.00    +0.000 A 
ATOM     17  C   UNL     1       1.248   3.515  18.221  0.00  0.00    +0.000 A 
ATOM     18  C   UNL     1       2.335   4.226  17.713  0.00  0.00    +0.000 A 
ENDBRANCH  10  13
ENDBRANCH   1   7
BRANCH   2  19
ATOM     19  C   UNL     1       8.738   8.733  18.603  0.00  0.00    +0.000 C 
BRANCH  19  20
ATOM     20  O   UNL     1       8.850  10.113  18.249  0.00  0.00    +0.000 OA
BRANCH  20  21
ATOM     21  C   UNL     1       9.408  10.899  19.201  0.00  0.00    +0.000 C 
ATOM     22  O   UNL     1       9.489  10.638  20.388  0.00  0.00    +0.000 OA
BRANCH  21  23
ATOM     23  C   UNL     1      10.073  12.067  18.581  0.00  0.00    +0.000 A 
ATOM     24  C   UNL     1      11.257  11.798  17.872  0.00  0.00    +0.000 A 
ATOM     25  C   UNL     1      11.947  12.825  17.228  0.00  0.00    +0.000 A 
ATOM     26  C   UNL     1      11.464  14.128  17.289  0.00  0.00    +0.000 A 
ATOM     27  C   UNL     1      10.300  14.409  18.008  0.00  0.00    +0.000 A 
ATOM     28  C   UNL     1       9.605  13.385  18.664  0.00  0.00    +0.000 A 
ATOM     29 CL   UNL     1       8.225  13.859  19.591  0.00  0.00    +0.000 Cl
ENDBRANCH  21  23
ENDBRANCH  20  21
ENDBRANCH  19  20
ENDBRANCH   2  19
TORSDOF 6
ENDMDL
MODEL 6
REMARK VINA RESULT:      -7.3      5.881      8.853
REMARK  Name = 
REMARK  8 active torsions:
REMARK  status: ('A' for Active; 'I' for Inactive)
REMARK    1  A    between atoms: C_1  and  C_2
REMARK    2  A    between atoms: C_3  and  N_4
REMARK    3  A    between atoms: C_5  and  C_7
REMARK    4  A    between atoms: C_7  and  O_8
REMARK    5  A    between atoms: O_8  and  C_9
REMARK    6  A    between atoms: C_9  and  C_11
REMARK    7  A    between atoms: N_20  and  C_21
REMARK    8  A    between atoms: N_27  and  C_28
REMARK                            x       y       z     vdW  Elec       q    Type
REMARK                         _______ _______ _______ _____ _____    ______ ____
ROOT
ATOM      1  N   UNL     1       6.632   7.678  17.057  0.00  0.00    +0.000 N 
ATOM      2  C   UNL     1       7.734   8.071  17.805  0.00  0.00    +0.000 C 
ATOM      3  O   UNL     1       8.325   7.365  18.620  0.00  0.00    +0.000 OA
ATOM      4  H   UNL     1       6.036   8.428  16.716  0.00  0.00    +0.000 HD
ENDROOT
BRANCH   1   7
ATOM      5  C   UNL     1       7.443   5.052  15.338  0.00  0.00    +0.000 C 
ATOM      6  C   UNL     1       6.400   5.281  16.389  0.00  0.00    +0.000 A 
ATOM      7  C   UNL     1       6.071   6.430  17.007  0.00  0.00    +0.000 A 
ATOM      8  C   UNL     1       4.747   6.155  17.673  0.00  0.00    +0.000 A 
ATOM      9  O   UNL     1       4.131   7.003  18.306  0.00  0.00    +0.000 OA
ATOM     10  N   UNL     1       4.463   4.808  17.444  0.00  0.00    +0.000 N 
ATOM     11  N   UNL     1       5.537   4.229  16.736  0.00  0.00    +0.000 N 
ATOM     12  C   UNL     1       5.248   3.130  15.813  0.00  0.00    +0.000 C 
BRANCH  10  13
ATOM     13  C   UNL     1       3.488   4.030  18.103  0.00  0.00    +0.000 A 
ATOM     14  C   UNL     1       3.824   3.308  19.252  0.00  0.00    +0.000 A 
ATOM     15  C   UNL     1       2.821   2.695  20.012  0.00  0.00    +0.000 A 
ATOM     16  C   UNL     1       1.489   2.756  19.603  0.00  0.00    +0.000 A 
ATOM     17  C   UNL     1       1.154   3.418  18.424  0.00  0.00    +0.000 A 
ATOM     18  C   UNL     1       2.150   4.053  17.681  0.00  0.00    +0.000 A 
ENDBRANCH  10  13
ENDBRANCH   1   7
BRANCH   2  19
ATOM     19  C   UNL     1       8.097   9.546  17.633  0.00  0.00    +0.000 C 
BRANCH  19  20
ATOM     20  O   UNL     1       9.019  10.009  18.622  0.00  0.00    +0.000 OA
BRANCH  20  21
ATOM     21  C   UNL     1       9.745  11.092  18.257  0.00  0.00    +0.000 C 
ATOM     22  O   UNL     1      10.744  11.083  17.560  0.00  0.00    +0.000 OA
BRANCH  21  23
ATOM     23  C   UNL     1       9.066  12.336  18.683  0.00  0.00    +0.000 A 
ATOM     24  C   UNL     1       8.350  13.020  17.685  0.00  0.00    +0.000 A 
ATOM     25  C   UNL     1       7.652  14.189  17.988  0.00  0.00    +0.000 A 
ATOM     26  C   UNL     1       7.666  14.687  19.286  0.00  0.00    +0.000 A 
ATOM     27  C   UNL     1       8.390  14.027  20.280  0.00  0.00    +0.000 A 
ATOM     28  C   UNL     1       9.101  12.856  19.984  0.00  0.00    +0.000 A 
ATOM     29 CL   UNL     1      10.029  12.169  21.271  0.00  0.00    +0.000 Cl
ENDBRANCH  21  23
ENDBRANCH  20  21
ENDBRANCH  19  20
ENDBRANCH   2  19
TORSDOF 6
ENDMDL
MODEL 7
REMARK VINA RESULT:      -7.2      6.072      8.553
REMARK  Name = 
REMARK  8 active torsions:
REMARK  status: ('A' for Active; 'I' for Inactive)
REMARK    1  A    between atoms: C_1  and  C_2
REMARK    2  A    between atoms: C_3  and  N_4
REMARK    3  A    between atoms: C_5  and  C_7
REMARK    4  A    between atoms: C_7  and  O_8
REMARK    5  A    between atoms: O_8  and  C_9
REMARK    6  A    between atoms: C_9  and  C_11
REMARK    7  A    between atoms: N_20  and  C_21
REMARK    8  A    between atoms: N_27  and  C_28
REMARK                            x       y       z     vdW  Elec       q    Type
REMARK                         _______ _______ _______ _____ _____    ______ ____
ROOT
ATOM      1  N   UNL     1       6.507   7.477  17.238  0.00  0.00    +0.000 N 
ATOM      2  C   UNL     1       7.702   7.814  17.858  0.00  0.00    +0.000 C 
ATOM      3  O   UNL     1       8.265   7.143  18.722  0.00  0.00    +0.000 OA
ATOM      4  H   UNL     1       5.981   8.251  16.838  0.00  0.00    +0.000 HD
ENDROOT
BRANCH   1   7
ATOM      5  C   UNL     1       7.141   4.459  16.241  0.00  0.00    +0.000 C 
ATOM      6  C   UNL     1       6.036   5.028  17.077  0.00  0.00    +0.000 A 
ATOM      7  C   UNL     1       5.797   6.316  17.386  0.00  0.00    +0.000 A 
ATOM      8  C   UNL     1       4.388   6.339  17.922  0.00  0.00    +0.000 A 
ATOM      9  O   UNL     1       3.827   7.368  18.273  0.00  0.00    +0.000 OA
ATOM     10  N   UNL     1       3.958   5.011  17.954  0.00  0.00    +0.000 N 
ATOM     11  N   UNL     1       5.014   4.179  17.530  0.00  0.00    +0.000 N 
ATOM     12  C   UNL     1       4.681   2.933  16.835  0.00  0.00    +0.000 C 
BRANCH  10  13
ATOM     13  C   UNL     1       2.829   4.510  18.635  0.00  0.00    +0.000 A 
ATOM     14  C   UNL     1       1.790   3.904  17.921  0.00  0.00    +0.000 A 
ATOM     15  C   UNL     1       0.766   3.239  18.606  0.00  0.00    +0.000 A 
ATOM     16  C   UNL     1       0.747   3.218  20.000  0.00  0.00    +0.000 A 
ATOM     17  C   UNL     1       1.743   3.875  20.718  0.00  0.00    +0.000 A 
ATOM     18  C   UNL     1       2.778   4.515  20.036  0.00  0.00    +0.000 A 
ENDBRANCH  10  13
ENDBRANCH   1   7
BRANCH   2  19
ATOM     19  C   UNL     1       8.226   9.197  17.473  0.00  0.00    +0.000 C 
BRANCH  19  20
ATOM     20  O   UNL     1       8.402  10.057  18.600  0.00  0.00    +0.000 OA
BRANCH  20  21
ATOM     21  C   UNL     1       9.463  10.895  18.514  0.00  0.00    +0.000 C 
ATOM     22  O   UNL     1      10.274  10.933  17.606  0.00  0.00    +0.000 OA
BRANCH  21  23
ATOM     23  C   UNL     1       9.419  11.896  19.604  0.00  0.00    +0.000 A 
ATOM     24  C   UNL     1       9.404  11.382  20.912  0.00  0.00    +0.000 A 
ATOM     25  C   UNL     1       9.390  12.240  22.012  0.00  0.00    +0.000 A 
ATOM     26  C   UNL     1       9.386  13.617  21.815  0.00  0.00    +0.000 A 
ATOM     27  C   UNL     1       9.381  14.138  20.519  0.00  0.00    +0.000 A 
ATOM     28  C   UNL     1       9.387  13.283  19.409  0.00  0.00    +0.000 A 
ATOM     29 CL   UNL     1       9.295  14.035  17.855  0.00  0.00    +0.000 Cl
ENDBRANCH  21  23
ENDBRANCH  20  21
ENDBRANCH  19  20
ENDBRANCH   2  19
TORSDOF 6
ENDMDL
MODEL 8
REMARK VINA RESULT:      -7.2      3.042      8.738
REMARK  Name = 
REMARK  8 active torsions:
REMARK  status: ('A' for Active; 'I' for Inactive)
REMARK    1  A    between atoms: C_1  and  C_2
REMARK    2  A    between atoms: C_3  and  N_4
REMARK    3  A    between atoms: C_5  and  C_7
REMARK    4  A    between atoms: C_7  and  O_8
REMARK    5  A    between atoms: O_8  and  C_9
REMARK    6  A    between atoms: C_9  and  C_11
REMARK    7  A    between atoms: N_20  and  C_21
REMARK    8  A    between atoms: N_27  and  C_28
REMARK                            x       y       z     vdW  Elec       q    Type
REMARK                         _______ _______ _______ _____ _____    ______ ____
ROOT
ATOM      1  N   UNL     1       2.040   6.544  20.577  0.00  0.00    +0.000 N 
ATOM      2  C   UNL     1       1.634   7.841  20.293  0.00  0.00    +0.000 C 
ATOM      3  O   UNL     1       1.724   8.386  19.194  0.00  0.00    +0.000 OA
ATOM      4  H   UNL     1       2.250   6.348  21.553  0.00  0.00    +0.000 HD
ENDROOT
BRANCH   1   7
ATOM      5  C   UNL     1       0.896   3.620  19.770  0.00  0.00    +0.000 C 
ATOM      6  C   UNL     1       2.044   4.428  19.247  0.00  0.00    +0.000 A 
ATOM      7  C   UNL     1       2.508   5.611  19.691  0.00  0.00    +0.000 A 
ATOM      8  C   UNL     1       3.866   5.767  19.055  0.00  0.00    +0.000 A 
ATOM      9  O   UNL     1       4.594   6.727  19.269  0.00  0.00    +0.000 OA
ATOM     10  N   UNL     1       4.034   4.668  18.211  0.00  0.00    +0.000 N 
ATOM     11  N   UNL     1       2.862   3.884  18.243  0.00  0.00    +0.000 N 
ATOM     12  C   UNL     1       2.988   2.438  18.049  0.00  0.00    +0.000 C 
BRANCH  10  13
ATOM     13  C   UNL     1       5.010   4.524  17.204  0.00  0.00    +0.000 A 
ATOM     14  C   UNL     1       4.639   4.555  15.856  0.00  0.00    +0.000 A 
ATOM     15  C   UNL     1       5.622   4.605  14.860  0.00  0.00    +0.000 A 
ATOM     16  C   UNL     1       6.974   4.573  15.201  0.00  0.00    +0.000 A 
ATOM     17  C   UNL     1       7.351   4.476  16.538  0.00  0.00    +0.000 A 
ATOM     18  C   UNL     1       6.372   4.453  17.532  0.00  0.00    +0.000 A 
ENDBRANCH  10  13
ENDBRANCH   1   7
BRANCH   2  19
ATOM     19  C   UNL     1       1.170   8.622  21.522  0.00  0.00    +0.000 C 
BRANCH  19  20
ATOM     20  O   UNL     1       0.019   9.428  21.264  0.00  0.00    +0.000 OA
BRANCH  20  21
ATOM     21  C   UNL     1       0.228  10.763  21.357  0.00  0.00    +0.000 C 
ATOM     22  O   UNL     1       1.276  11.341  21.128  0.00  0.00    +0.000 OA
BRANCH  21  23
ATOM     23  C   UNL     1      -1.046  11.468  21.617  0.00  0.00    +0.000 A 
ATOM     24  C   UNL     1      -1.532  11.398  22.934  0.00  0.00    +0.000 A 
ATOM     25  C   UNL     1      -2.712  12.051  23.291  0.00  0.00    +0.000 A 
ATOM     26  C   UNL     1      -3.419  12.774  22.336  0.00  0.00    +0.000 A 
ATOM     27  C   UNL     1      -2.956  12.832  21.020  0.00  0.00    +0.000 A 
ATOM     28  C   UNL     1      -1.776  12.174  20.650  0.00  0.00    +0.000 A 
ATOM     29 CL   UNL     1      -1.342  12.244  18.979  0.00  0.00    +0.000 Cl
ENDBRANCH  21  23
ENDBRANCH  20  21
ENDBRANCH  19  20
ENDBRANCH   2  19
TORSDOF 6
ENDMDL
MODEL 9
REMARK VINA RESULT:      -7.2      2.216      3.989
REMARK  Name = 
REMARK  8 active torsions:
REMARK  status: ('A' for Active; 'I' for Inactive)
REMARK    1  A    between atoms: C_1  and  C_2
REMARK    2  A    between atoms: C_3  and  N_4
REMARK    3  A    between atoms: C_5  and  C_7
REMARK    4  A    between atoms: C_7  and  O_8
REMARK    5  A    between atoms: O_8  and  C_9
REMARK    6  A    between atoms: C_9  and  C_11
REMARK    7  A    between atoms: N_20  and  C_21
REMARK    8  A    between atoms: N_27  and  C_28
REMARK                            x       y       z     vdW  Elec       q    Type
REMARK                         _______ _______ _______ _____ _____    ______ ____
ROOT
ATOM      1  N   UNL     1       1.094   9.073  19.134  0.00  0.00    +0.000 N 
ATOM      2  C   UNL     1       2.053   9.145  18.132  0.00  0.00    +0.000 C 
ATOM      3  O   UNL     1       2.127  10.034  17.286  0.00  0.00    +0.000 OA
ATOM      4  H   UNL     1       0.921   8.146  19.516  0.00  0.00    +0.000 HD
ENDROOT
BRANCH   1   7
ATOM      5  C   UNL     1      -1.536  10.012  17.489  0.00  0.00    +0.000 C 
ATOM      6  C   UNL     1      -1.014  10.383  18.844  0.00  0.00    +0.000 A 
ATOM      7  C   UNL     1       0.137  10.005  19.431  0.00  0.00    +0.000 A 
ATOM      8  C   UNL     1       0.315  10.947  20.594  0.00  0.00    +0.000 A 
ATOM      9  O   UNL     1       1.287  10.911  21.337  0.00  0.00    +0.000 OA
ATOM     10  N   UNL     1      -0.824  11.754  20.626  0.00  0.00    +0.000 N 
ATOM     11  N   UNL     1      -1.704  11.340  19.605  0.00  0.00    +0.000 N 
ATOM     12  C   UNL     1      -2.568  12.345  18.982  0.00  0.00    +0.000 C 
BRANCH  10  13
ATOM     13  C   UNL     1      -1.238  12.581  21.690  0.00  0.00    +0.000 A 
ATOM     14  C   UNL     1      -2.264  12.166  22.544  0.00  0.00    +0.000 A 
ATOM     15  C   UNL     1      -2.545  12.893  23.707  0.00  0.00    +0.000 A 
ATOM     16  C   UNL     1      -1.839  14.061  23.996  0.00  0.00    +0.000 A 
ATOM     17  C   UNL     1      -0.860  14.516  23.117  0.00  0.00    +0.000 A 
ATOM     18  C   UNL     1      -0.562  13.777  21.971  0.00  0.00    +0.000 A 
ENDBRANCH  10  13
ENDBRANCH   1   7
BRANCH   2  19
ATOM     19  C   UNL     1       2.970   7.924  18.070  0.00  0.00    +0.000 C 
BRANCH  19  20
ATOM     20  O   UNL     1       2.369   6.751  18.624  0.00  0.00    +0.000 OA
BRANCH  20  21
ATOM     21  C   UNL     1       3.029   5.598  18.361  0.00  0.00    +0.000 C 
ATOM     22  O   UNL     1       3.979   5.472  17.609  0.00  0.00    +0.000 OA
BRANCH  21  23
ATOM     23  C   UNL     1       2.547   4.515  19.246  0.00  0.00    +0.000 A 
ATOM     24  C   UNL     1       2.407   4.846  20.605  0.00  0.00    +0.000 A 
ATOM     25  C   UNL     1       1.935   3.905  21.521  0.00  0.00    +0.000 A 
ATOM     26  C   UNL     1       1.604   2.625  21.088  0.00  0.00    +0.000 A 
ATOM     27  C   UNL     1       1.759   2.279  19.745  0.00  0.00    +0.000 A 
ATOM     28  C   UNL     1       2.240   3.215  18.820  0.00  0.00    +0.000 A 
ATOM     29 CL   UNL     1       2.470   2.655  17.201  0.00  0.00    +0.000 Cl
ENDBRANCH  21  23
ENDBRANCH  20  21
ENDBRANCH  19  20
ENDBRANCH   2  19
TORSDOF 6
ENDMDL
