MODEL 1
REMARK VINA RESULT:      -5.9      0.000      0.000
REMARK  Name = 
REMARK  6 active torsions:
REMARK  status: ('A' for Active; 'I' for Inactive)
REMARK    1  A    between atoms: C_6  and  O_7
REMARK    2  A    between atoms: O_7  and  C_8
REMARK    3  A    between atoms: C_8  and  C_9
REMARK    4  A    between atoms: C_9  and  C_10
REMARK    5  A    between atoms: C_10  and  N_11
REMARK    6  A    between atoms: N_11  and  C_12
REMARK                            x       y       z     vdW  Elec       q    Type
REMARK                         _______ _______ _______ _____ _____    ______ ____
ROOT
ATOM      1  C   UNL     1       2.368   6.412  19.687  0.00  0.00    +0.000 C 
ENDROOT
BRANCH   1   2
ATOM      2  O   UNL     1       2.643   5.569  18.564  0.00  0.00    +0.000 OA
BRANCH   2   8
ATOM      3 BR   UNL     1       6.402   4.395  15.011  0.00  0.00    +0.000 Br
ATOM      4  C   UNL     1       5.783   4.834  16.744  0.00  0.00    +0.000 A 
ATOM      5  C   UNL     1       6.690   4.944  17.795  0.00  0.00    +0.000 A 
ATOM      6  C   UNL     1       6.228   5.271  19.068  0.00  0.00    +0.000 A 
ATOM      7  C   UNL     1       4.864   5.492  19.279  0.00  0.00    +0.000 A 
ATOM      8  C   UNL     1       3.955   5.387  18.222  0.00  0.00    +0.000 A 
ATOM      9  C   UNL     1       4.417   5.041  16.953  0.00  0.00    +0.000 A 
ENDBRANCH   2   8
ENDBRANCH   1   2
BRANCH   1  10
ATOM     10  C   UNL     1       1.718   5.614  20.814  0.00  0.00    +0.000 C 
BRANCH  10  11
ATOM     11  C   UNL     1       0.776   4.567  20.232  0.00  0.00    +0.000 C 
BRANCH  11  12
ATOM     12  N   UNL     1       1.003   3.266  20.859  0.00  0.00    +0.000 NA
ATOM     13  H   UNL     1       0.110   2.855  21.136  0.00  0.00    +0.000 HD
BRANCH  12  14
ATOM     14  C   UNL     1       1.703   2.346  19.968  0.00  0.00    +0.000 C 
ATOM     15  C   UNL     1       1.548   2.666  18.482  0.00  0.00    +0.000 C 
ATOM     16  C   UNL     1       2.670   1.873  17.831  0.00  0.00    +0.000 C 
ATOM     17  C   UNL     1       3.787   1.807  18.872  0.00  0.00    +0.000 C 
ATOM     18  C   UNL     1       3.218   2.424  20.150  0.00  0.00    +0.000 C 
ENDBRANCH  12  14
ENDBRANCH  11  12
ENDBRANCH  10  11
ENDBRANCH   1  10
TORSDOF 6
ENDMDL
MODEL 2
REMARK VINA RESULT:      -5.8      3.570      6.003
REMARK  Name = 
REMARK  6 active torsions:
REMARK  status: ('A' for Active; 'I' for Inactive)
REMARK    1  A    between atoms: C_6  and  O_7
REMARK    2  A    between atoms: O_7  and  C_8
REMARK    3  A    between atoms: C_8  and  C_9
REMARK    4  A    between atoms: C_9  and  C_10
REMARK    5  A    between atoms: C_10  and  N_11
REMARK    6  A    between atoms: N_11  and  C_12
REMARK                            x       y       z     vdW  Elec       q    Type
REMARK                         _______ _______ _______ _____ _____    ______ ____
ROOT
ATOM      1  C   UNL     1       5.772   5.768  18.004  0.00  0.00    +0.000 C 
ENDROOT
BRANCH   1   2
ATOM      2  O   UNL     1       4.565   5.412  17.324  0.00  0.00    +0.000 OA
BRANCH   2   8
ATOM      3 BR   UNL     1       2.069   3.439  21.569  0.00  0.00    +0.000 Br
ATOM      4  C   UNL     1       2.603   3.422  19.754  0.00  0.00    +0.000 A 
ATOM      5  C   UNL     1       2.216   2.368  18.930  0.00  0.00    +0.000 A 
ATOM      6  C   UNL     1       2.610   2.362  17.593  0.00  0.00    +0.000 A 
ATOM      7  C   UNL     1       3.381   3.413  17.090  0.00  0.00    +0.000 A 
ATOM      8  C   UNL     1       3.764   4.474  17.917  0.00  0.00    +0.000 A 
ATOM      9  C   UNL     1       3.385   4.467  19.258  0.00  0.00    +0.000 A 
ENDBRANCH   2   8
ENDBRANCH   1   2
BRANCH   1  10
ATOM     10  C   UNL     1       6.762   4.607  17.988  0.00  0.00    +0.000 C 
BRANCH  10  11
ATOM     11  C   UNL     1       7.313   4.413  16.580  0.00  0.00    +0.000 C 
BRANCH  11  12
ATOM     12  N   UNL     1       7.076   5.604  15.767  0.00  0.00    +0.000 NA
ATOM     13  H   UNL     1       7.929   6.163  15.716  0.00  0.00    +0.000 HD
BRANCH  12  14
ATOM     14  C   UNL     1       6.638   5.265  14.416  0.00  0.00    +0.000 C 
ATOM     15  C   UNL     1       7.770   5.143  13.398  0.00  0.00    +0.000 C 
ATOM     16  C   UNL     1       7.128   4.390  12.244  0.00  0.00    +0.000 C 
ATOM     17  C   UNL     1       6.063   3.494  12.877  0.00  0.00    +0.000 C 
ATOM     18  C   UNL     1       6.011   3.872  14.357  0.00  0.00    +0.000 C 
ENDBRANCH  12  14
ENDBRANCH  11  12
ENDBRANCH  10  11
ENDBRANCH   1  10
TORSDOF 6
ENDMDL
MODEL 3
REMARK VINA RESULT:      -5.8      1.639      1.938
REMARK  Name = 
REMARK  6 active torsions:
REMARK  status: ('A' for Active; 'I' for Inactive)
REMARK    1  A    between atoms: C_6  and  O_7
REMARK    2  A    between atoms: O_7  and  C_8
REMARK    3  A    between atoms: C_8  and  C_9
REMARK    4  A    between atoms: C_9  and  C_10
REMARK    5  A    between atoms: C_10  and  N_11
REMARK    6  A    between atoms: N_11  and  C_12
REMARK                            x       y       z     vdW  Elec       q    Type
REMARK                         _______ _______ _______ _____ _____    ______ ____
ROOT
ATOM      1  C   UNL     1       3.127   6.979  17.754  0.00  0.00    +0.000 C 
ENDROOT
BRANCH   1   2
ATOM      2  O   UNL     1       4.509   7.350  17.737  0.00  0.00    +0.000 OA
BRANCH   2   8
ATOM      3 BR   UNL     1       6.117   4.012  13.940  0.00  0.00    +0.000 Br
ATOM      4  C   UNL     1       6.246   4.845  15.634  0.00  0.00    +0.000 A 
ATOM      5  C   UNL     1       7.282   4.497  16.497  0.00  0.00    +0.000 A 
ATOM      6  C   UNL     1       7.374   5.117  17.742  0.00  0.00    +0.000 A 
ATOM      7  C   UNL     1       6.434   6.082  18.111  0.00  0.00    +0.000 A 
ATOM      8  C   UNL     1       5.398   6.435  17.241  0.00  0.00    +0.000 A 
ATOM      9  C   UNL     1       5.297   5.800  16.004  0.00  0.00    +0.000 A 
ENDBRANCH   2   8
ENDBRANCH   1   2
BRANCH   1  10
ATOM     10  C   UNL     1       2.475   7.393  19.070  0.00  0.00    +0.000 C 
BRANCH  10  11
ATOM     11  C   UNL     1       2.231   6.165  19.939  0.00  0.00    +0.000 C 
BRANCH  11  12
ATOM     12  N   UNL     1       3.425   5.323  19.986  0.00  0.00    +0.000 NA
ATOM     13  H   UNL     1       3.851   5.380  20.911  0.00  0.00    +0.000 HD
BRANCH  12  14
ATOM     14  C   UNL     1       3.122   3.929  19.677  0.00  0.00    +0.000 C 
ATOM     15  C   UNL     1       1.890   3.731  18.797  0.00  0.00    +0.000 C 
ATOM     16  C   UNL     1       2.045   2.307  18.287  0.00  0.00    +0.000 C 
ATOM     17  C   UNL     1       3.551   2.057  18.212  0.00  0.00    +0.000 C 
ATOM     18  C   UNL     1       4.219   3.284  18.832  0.00  0.00    +0.000 C 
ENDBRANCH  12  14
ENDBRANCH  11  12
ENDBRANCH  10  11
ENDBRANCH   1  10
TORSDOF 6
ENDMDL
MODEL 4
REMARK VINA RESULT:      -5.8      3.183      4.832
REMARK  Name = 
REMARK  6 active torsions:
REMARK  status: ('A' for Active; 'I' for Inactive)
REMARK    1  A    between atoms: C_6  and  O_7
REMARK    2  A    between atoms: O_7  and  C_8
REMARK    3  A    between atoms: C_8  and  C_9
REMARK    4  A    between atoms: C_9  and  C_10
REMARK    5  A    between atoms: C_10  and  N_11
REMARK    6  A    between atoms: N_11  and  C_12
REMARK                            x       y       z     vdW  Elec       q    Type
REMARK                         _______ _______ _______ _____ _____    ______ ____
ROOT
ATOM      1  C   UNL     1       4.367   6.365  17.419  0.00  0.00    +0.000 C 
ENDROOT
BRANCH   1   2
ATOM      2  O   UNL     1       3.109   6.216  18.083  0.00  0.00    +0.000 OA
BRANCH   2   8
ATOM      3 BR   UNL     1       0.798   9.002  21.962  0.00  0.00    +0.000 Br
ATOM      4  C   UNL     1       1.397   8.738  20.186  0.00  0.00    +0.000 A 
ATOM      5  C   UNL     1       1.188   9.731  19.232  0.00  0.00    +0.000 A 
ATOM      6  C   UNL     1       1.634   9.533  17.927  0.00  0.00    +0.000 A 
ATOM      7  C   UNL     1       2.291   8.347  17.588  0.00  0.00    +0.000 A 
ATOM      8  C   UNL     1       2.506   7.354  18.548  0.00  0.00    +0.000 A 
ATOM      9  C   UNL     1       2.042   7.546  19.849  0.00  0.00    +0.000 A 
ENDBRANCH   2   8
ENDBRANCH   1   2
BRANCH   1  10
ATOM     10  C   UNL     1       4.755   5.073  16.704  0.00  0.00    +0.000 C 
BRANCH  10  11
ATOM     11  C   UNL     1       3.880   3.925  17.194  0.00  0.00    +0.000 C 
BRANCH  11  12
ATOM     12  N   UNL     1       4.239   3.552  18.561  0.00  0.00    +0.000 NA
ATOM     13  H   UNL     1       4.581   4.371  19.064  0.00  0.00    +0.000 HD
BRANCH  12  14
ATOM     14  C   UNL     1       3.108   2.976  19.283  0.00  0.00    +0.000 C 
ATOM     15  C   UNL     1       2.687   3.762  20.524  0.00  0.00    +0.000 C 
ATOM     16  C   UNL     1       1.294   3.231  20.822  0.00  0.00    +0.000 C 
ATOM     17  C   UNL     1       0.704   2.836  19.468  0.00  0.00    +0.000 C 
ATOM     18  C   UNL     1       1.830   2.999  18.447  0.00  0.00    +0.000 C 
ENDBRANCH  12  14
ENDBRANCH  11  12
ENDBRANCH  10  11
ENDBRANCH   1  10
TORSDOF 6
ENDMDL
MODEL 5
REMARK VINA RESULT:      -5.8      1.457      2.194
REMARK  Name = 
REMARK  6 active torsions:
REMARK  status: ('A' for Active; 'I' for Inactive)
REMARK    1  A    between atoms: C_6  and  O_7
REMARK    2  A    between atoms: O_7  and  C_8
REMARK    3  A    between atoms: C_8  and  C_9
REMARK    4  A    between atoms: C_9  and  C_10
REMARK    5  A    between atoms: C_10  and  N_11
REMARK    6  A    between atoms: N_11  and  C_12
REMARK                            x       y       z     vdW  Elec       q    Type
REMARK                         _______ _______ _______ _____ _____    ______ ____
ROOT
ATOM      1  C   UNL     1       3.122   5.973  18.719  0.00  0.00    +0.000 C 
ENDROOT
BRANCH   1   2
ATOM      2  O   UNL     1       4.049   6.701  17.907  0.00  0.00    +0.000 OA
BRANCH   2   8
ATOM      3 BR   UNL     1       6.380   4.126  13.898  0.00  0.00    +0.000 Br
ATOM      4  C   UNL     1       6.284   4.768  15.675  0.00  0.00    +0.000 A 
ATOM      5  C   UNL     1       7.319   4.495  16.565  0.00  0.00    +0.000 A 
ATOM      6  C   UNL     1       7.244   4.973  17.872  0.00  0.00    +0.000 A 
ATOM      7  C   UNL     1       6.138   5.725  18.276  0.00  0.00    +0.000 A 
ATOM      8  C   UNL     1       5.102   6.005  17.379  0.00  0.00    +0.000 A 
ATOM      9  C   UNL     1       5.170   5.509  16.078  0.00  0.00    +0.000 A 
ENDBRANCH   2   8
ENDBRANCH   1   2
BRANCH   1  10
ATOM     10  C   UNL     1       1.988   5.408  17.868  0.00  0.00    +0.000 C 
BRANCH  10  11
ATOM     11  C   UNL     1       2.231   3.929  17.594  0.00  0.00    +0.000 C 
BRANCH  11  12
ATOM     12  N   UNL     1       1.143   3.120  18.140  0.00  0.00    +0.000 NA
ATOM     13  H   UNL     1       0.935   2.347  17.506  0.00  0.00    +0.000 HD
BRANCH  12  14
ATOM     14  C   UNL     1       1.469   2.588  19.460  0.00  0.00    +0.000 C 
ATOM     15  C   UNL     1       2.965   2.503  19.755  0.00  0.00    +0.000 C 
ATOM     16  C   UNL     1       3.019   2.347  21.266  0.00  0.00    +0.000 C 
ATOM     17  C   UNL     1       1.793   3.085  21.801  0.00  0.00    +0.000 C 
ATOM     18  C   UNL     1       0.980   3.508  20.578  0.00  0.00    +0.000 C 
ENDBRANCH  12  14
ENDBRANCH  11  12
ENDBRANCH  10  11
ENDBRANCH   1  10
TORSDOF 6
ENDMDL
MODEL 6
REMARK VINA RESULT:      -5.8      3.417      5.727
REMARK  Name = 
REMARK  6 active torsions:
REMARK  status: ('A' for Active; 'I' for Inactive)
REMARK    1  A    between atoms: C_6  and  O_7
REMARK    2  A    between atoms: O_7  and  C_8
REMARK    3  A    between atoms: C_8  and  C_9
REMARK    4  A    between atoms: C_9  and  C_10
REMARK    5  A    between atoms: C_10  and  N_11
REMARK    6  A    between atoms: N_11  and  C_12
REMARK                            x       y       z     vdW  Elec       q    Type
REMARK                         _______ _______ _______ _____ _____    ______ ____
ROOT
ATOM      1  C   UNL     1       6.628   5.313  19.342  0.00  0.00    +0.000 C 
ENDROOT
BRANCH   1   2
ATOM      2  O   UNL     1       5.807   4.207  18.955  0.00  0.00    +0.000 OA
BRANCH   2   8
ATOM      3 BR   UNL     1       0.901   2.190  18.872  0.00  0.00    +0.000 Br
ATOM      4  C   UNL     1       2.165   3.569  19.157  0.00  0.00    +0.000 A 
ATOM      5  C   UNL     1       1.733   4.826  19.573  0.00  0.00    +0.000 A 
ATOM      6  C   UNL     1       2.669   5.837  19.784  0.00  0.00    +0.000 A 
ATOM      7  C   UNL     1       4.028   5.582  19.584  0.00  0.00    +0.000 A 
ATOM      8  C   UNL     1       4.461   4.318  19.172  0.00  0.00    +0.000 A 
ATOM      9  C   UNL     1       3.521   3.314  18.942  0.00  0.00    +0.000 A 
ENDBRANCH   2   8
ENDBRANCH   1   2
BRANCH   1  10
ATOM     10  C   UNL     1       7.583   5.696  18.214  0.00  0.00    +0.000 C 
BRANCH  10  11
ATOM     11  C   UNL     1       6.792   6.188  17.008  0.00  0.00    +0.000 C 
BRANCH  11  12
ATOM     12  N   UNL     1       7.554   5.986  15.777  0.00  0.00    +0.000 NA
ATOM     13  H   UNL     1       8.540   5.845  16.000  0.00  0.00    +0.000 HD
BRANCH  12  14
ATOM     14  C   UNL     1       7.062   4.843  15.013  0.00  0.00    +0.000 C 
ATOM     15  C   UNL     1       5.541   4.769  14.896  0.00  0.00    +0.000 C 
ATOM     16  C   UNL     1       5.322   3.797  13.748  0.00  0.00    +0.000 C 
ATOM     17  C   UNL     1       6.528   3.969  12.826  0.00  0.00    +0.000 C 
ATOM     18  C   UNL     1       7.487   4.916  13.547  0.00  0.00    +0.000 C 
ENDBRANCH  12  14
ENDBRANCH  11  12
ENDBRANCH  10  11
ENDBRANCH   1  10
TORSDOF 6
ENDMDL
MODEL 7
REMARK VINA RESULT:      -5.7      3.505      5.892
REMARK  Name = 
REMARK  6 active torsions:
REMARK  status: ('A' for Active; 'I' for Inactive)
REMARK    1  A    between atoms: C_6  and  O_7
REMARK    2  A    between atoms: O_7  and  C_8
REMARK    3  A    between atoms: C_8  and  C_9
REMARK    4  A    between atoms: C_9  and  C_10
REMARK    5  A    between atoms: C_10  and  N_11
REMARK    6  A    between atoms: N_11  and  C_12
REMARK                            x       y       z     vdW  Elec       q    Type
REMARK                         _______ _______ _______ _____ _____    ______ ____
ROOT
ATOM      1  C   UNL     1       6.143   5.205  18.906  0.00  0.00    +0.000 C 
ENDROOT
BRANCH   1   2
ATOM      2  O   UNL     1       4.921   5.738  18.388  0.00  0.00    +0.000 OA
BRANCH   2   8
ATOM      3 BR   UNL     1       1.976   2.762  21.645  0.00  0.00    +0.000 Br
ATOM      4  C   UNL     1       2.316   3.677  20.024  0.00  0.00    +0.000 A 
ATOM      5  C   UNL     1       1.368   3.651  19.004  0.00  0.00    +0.000 A 
ATOM      6  C   UNL     1       1.623   4.329  17.814  0.00  0.00    +0.000 A 
ATOM      7  C   UNL     1       2.819   5.033  17.655  0.00  0.00    +0.000 A 
ATOM      8  C   UNL     1       3.767   5.064  18.683  0.00  0.00    +0.000 A 
ATOM      9  C   UNL     1       3.519   4.368  19.865  0.00  0.00    +0.000 A 
ENDBRANCH   2   8
ENDBRANCH   1   2
BRANCH   1  10
ATOM     10  C   UNL     1       7.054   4.744  17.772  0.00  0.00    +0.000 C 
BRANCH  10  11
ATOM     11  C   UNL     1       6.746   5.533  16.504  0.00  0.00    +0.000 C 
BRANCH  11  12
ATOM     12  N   UNL     1       5.732   4.846  15.706  0.00  0.00    +0.000 NA
ATOM     13  H   UNL     1       5.038   5.518  15.376  0.00  0.00    +0.000 HD
BRANCH  12  14
ATOM     14  C   UNL     1       6.317   4.153  14.561  0.00  0.00    +0.000 C 
ATOM     15  C   UNL     1       5.316   3.785  13.468  0.00  0.00    +0.000 C 
ATOM     16  C   UNL     1       6.198   3.490  12.265  0.00  0.00    +0.000 C 
ATOM     17  C   UNL     1       7.430   4.380  12.430  0.00  0.00    +0.000 C 
ATOM     18  C   UNL     1       7.299   5.043  13.801  0.00  0.00    +0.000 C 
ENDBRANCH  12  14
ENDBRANCH  11  12
ENDBRANCH  10  11
ENDBRANCH   1  10
TORSDOF 6
ENDMDL
MODEL 8
REMARK VINA RESULT:      -5.7      2.853      4.462
REMARK  Name = 
REMARK  6 active torsions:
REMARK  status: ('A' for Active; 'I' for Inactive)
REMARK    1  A    between atoms: C_6  and  O_7
REMARK    2  A    between atoms: O_7  and  C_8
REMARK    3  A    between atoms: C_8  and  C_9
REMARK    4  A    between atoms: C_9  and  C_10
REMARK    5  A    between atoms: C_10  and  N_11
REMARK    6  A    between atoms: N_11  and  C_12
REMARK                            x       y       z     vdW  Elec       q    Type
REMARK                         _______ _______ _______ _____ _____    ______ ____
ROOT
ATOM      1  C   UNL     1       4.732   5.698  17.879  0.00  0.00    +0.000 C 
ENDROOT
BRANCH   1   2
ATOM      2  O   UNL     1       3.690   6.521  17.348  0.00  0.00    +0.000 OA
BRANCH   2   8
ATOM      3 BR   UNL     1       0.733  10.685  18.781  0.00  0.00    +0.000 Br
ATOM      4  C   UNL     1       1.537   8.997  19.065  0.00  0.00    +0.000 A 
ATOM      5  C   UNL     1       1.361   8.344  20.283  0.00  0.00    +0.000 A 
ATOM      6  C   UNL     1       1.954   7.100  20.486  0.00  0.00    +0.000 A 
ATOM      7  C   UNL     1       2.711   6.514  19.468  0.00  0.00    +0.000 A 
ATOM      8  C   UNL     1       2.881   7.167  18.243  0.00  0.00    +0.000 A 
ATOM      9  C   UNL     1       2.304   8.422  18.050  0.00  0.00    +0.000 A 
ENDBRANCH   2   8
ENDBRANCH   1   2
BRANCH   1  10
ATOM     10  C   UNL     1       5.014   4.519  16.952  0.00  0.00    +0.000 C 
BRANCH  10  11
ATOM     11  C   UNL     1       4.086   3.358  17.293  0.00  0.00    +0.000 C 
BRANCH  11  12
ATOM     12  N   UNL     1       4.313   2.904  18.663  0.00  0.00    +0.000 NA
ATOM     13  H   UNL     1       4.742   3.652  19.209  0.00  0.00    +0.000 HD
BRANCH  12  14
ATOM     14  C   UNL     1       3.074   2.484  19.311  0.00  0.00    +0.000 C 
ATOM     15  C   UNL     1       2.929   2.949  20.758  0.00  0.00    +0.000 C 
ATOM     16  C   UNL     1       1.445   2.769  21.040  0.00  0.00    +0.000 C 
ATOM     17  C   UNL     1       0.742   2.980  19.699  0.00  0.00    +0.000 C 
ATOM     18  C   UNL     1       1.848   3.116  18.653  0.00  0.00    +0.000 C 
ENDBRANCH  12  14
ENDBRANCH  11  12
ENDBRANCH  10  11
ENDBRANCH   1  10
TORSDOF 6
ENDMDL
MODEL 9
REMARK VINA RESULT:      -5.7      2.061      4.074
REMARK  Name = 
REMARK  6 active torsions:
REMARK  status: ('A' for Active; 'I' for Inactive)
REMARK    1  A    between atoms: C_6  and  O_7
REMARK    2  A    between atoms: O_7  and  C_8
REMARK    3  A    between atoms: C_8  and  C_9
REMARK    4  A    between atoms: C_9  and  C_10
REMARK    5  A    between atoms: C_10  and  N_11
REMARK    6  A    between atoms: N_11  and  C_12
REMARK                            x       y       z     vdW  Elec       q    Type
REMARK                         _______ _______ _______ _____ _____    ______ ____
ROOT
ATOM      1  C   UNL     1       2.593   3.489  18.593  0.00  0.00    +0.000 C 
ENDROOT
BRANCH   1   2
ATOM      2  O   UNL     1       3.905   3.882  19.008  0.00  0.00    +0.000 OA
BRANCH   2   8
ATOM      3 BR   UNL     1       7.598   7.411  17.577  0.00  0.00    +0.000 Br
ATOM      4  C   UNL     1       6.354   6.026  17.241  0.00  0.00    +0.000 A 
ATOM      5  C   UNL     1       6.179   5.555  15.942  0.00  0.00    +0.000 A 
ATOM      6  C   UNL     1       5.263   4.533  15.702  0.00  0.00    +0.000 A 
ATOM      7  C   UNL     1       4.534   3.986  16.761  0.00  0.00    +0.000 A 
ATOM      8  C   UNL     1       4.716   4.456  18.066  0.00  0.00    +0.000 A 
ATOM      9  C   UNL     1       5.618   5.492  18.301  0.00  0.00    +0.000 A 
ENDBRANCH   2   8
ENDBRANCH   1   2
BRANCH   1  10
ATOM     10  C   UNL     1       1.530   4.275  19.355  0.00  0.00    +0.000 C 
BRANCH  10  11
ATOM     11  C   UNL     1       2.120   4.832  20.646  0.00  0.00    +0.000 C 
BRANCH  11  12
ATOM     12  N   UNL     1       2.793   6.106  20.395  0.00  0.00    +0.000 NA
ATOM     13  H   UNL     1       3.654   5.945  19.871  0.00  0.00    +0.000 HD
BRANCH  12  14
ATOM     14  C   UNL     1       1.943   7.035  19.656  0.00  0.00    +0.000 C 
ATOM     15  C   UNL     1       1.612   8.322  20.409  0.00  0.00    +0.000 C 
ATOM     16  C   UNL     1       1.116   9.254  19.315  0.00  0.00    +0.000 C 
ATOM     17  C   UNL     1       1.859   8.834  18.047  0.00  0.00    +0.000 C 
ATOM     18  C   UNL     1       2.641   7.572  18.408  0.00  0.00    +0.000 C 
ENDBRANCH  12  14
ENDBRANCH  11  12
ENDBRANCH  10  11
ENDBRANCH   1  10
TORSDOF 6
ENDMDL
