MODEL 1
REMARK VINA RESULT:      -8.6      0.000      0.000
REMARK  Name = 
REMARK  4 active torsions:
REMARK  status: ('A' for Active; 'I' for Inactive)
REMARK    1  A    between atoms: N_1  and  C_2
REMARK    2  A    between atoms: C_5  and  C_6
REMARK    3  A    between atoms: C_17  and  N_18
REMARK    4  A    between atoms: N_18  and  C_19
REMARK                            x       y       z     vdW  Elec       q    Type
REMARK                         _______ _______ _______ _____ _____    ______ ____
ROOT
ATOM      1  C   UNL     1       2.282   5.228  20.554  0.00  0.00    +0.000 A 
ATOM      2  O   UNL     1       1.672   6.403  20.837  0.00  0.00    +0.000 OA
ATOM      3  C   UNL     1       1.962   7.273  19.820  0.00  0.00    +0.000 A 
ATOM      4  C   UNL     1       1.510   8.590  19.677  0.00  0.00    +0.000 A 
ATOM      5  N   UNL     1       1.919   9.267  18.556  0.00  0.00    +0.000 NA
ATOM      6  C   UNL     1       2.703   8.659  17.641  0.00  0.00    +0.000 A 
ATOM      7  C   UNL     1       3.176   7.362  17.746  0.00  0.00    +0.000 A 
ATOM      8  C   UNL     1       2.800   6.650  18.894  0.00  0.00    +0.000 A 
ATOM      9  C   UNL     1       3.026   5.336  19.397  0.00  0.00    +0.000 A 
ENDROOT
BRANCH   4  10
ATOM     10  C   UNL     1       0.655   9.313  20.629  0.00  0.00    +0.000 A 
ATOM     11  C   UNL     1      -0.141  10.390  20.186  0.00  0.00    +0.000 A 
ATOM     12  C   UNL     1      -0.956  11.112  21.063  0.00  0.00    +0.000 A 
ATOM     13  C   UNL     1      -0.996  10.766  22.408  0.00  0.00    +0.000 A 
ATOM     14 CL   UNL     1      -1.987  11.659  23.494  0.00  0.00    +0.000 Cl
ATOM     15  C   UNL     1      -0.238   9.699  22.878  0.00  0.00    +0.000 A 
ATOM     16  C   UNL     1       0.575   8.978  21.993  0.00  0.00    +0.000 A 
ENDBRANCH   4  10
BRANCH   1  17
ATOM     17  N   UNL     1       2.074   4.230  21.428  0.00  0.00    +0.000 N 
ATOM     18  H   UNL     1       2.813   3.539  21.521  0.00  0.00    +0.000 HD
ATOM     19  H   UNL     1       1.146   3.839  21.532  0.00  0.00    +0.000 HD
ENDBRANCH   1  17
BRANCH   9  20
ATOM     20  N   UNL     1       3.744   4.337  18.823  0.00  0.00    +0.000 N 
ATOM     21  H   UNL     1       3.746   3.435  19.296  0.00  0.00    +0.000 HD
BRANCH  20  22
ATOM     22  C   UNL     1       4.785   4.424  17.873  0.00  0.00    +0.000 A 
ATOM     23  C   UNL     1       6.089   4.680  18.324  0.00  0.00    +0.000 A 
ATOM     24  C   UNL     1       7.160   4.740  17.427  0.00  0.00    +0.000 A 
ATOM     25  C   UNL     1       6.933   4.541  16.070  0.00  0.00    +0.000 A 
ATOM     26  F   UNL     1       7.971   4.611  15.225  0.00  0.00    +0.000 F 
ATOM     27  C   UNL     1       5.651   4.271  15.604  0.00  0.00    +0.000 A 
ATOM     28 CL   UNL     1       5.362   4.018  13.925  0.00  0.00    +0.000 Cl
ATOM     29  C   UNL     1       4.581   4.204  16.502  0.00  0.00    +0.000 A 
ENDBRANCH  20  22
ENDBRANCH   9  20
TORSDOF 4
ENDMDL
MODEL 2
REMARK VINA RESULT:      -8.3      2.599      3.860
REMARK  Name = 
REMARK  4 active torsions:
REMARK  status: ('A' for Active; 'I' for Inactive)
REMARK    1  A    between atoms: N_1  and  C_2
REMARK    2  A    between atoms: C_5  and  C_6
REMARK    3  A    between atoms: C_17  and  N_18
REMARK    4  A    between atoms: N_18  and  C_19
REMARK                            x       y       z     vdW  Elec       q    Type
REMARK                         _______ _______ _______ _____ _____    ______ ____
ROOT
ATOM      1  C   UNL     1       5.868   6.706  17.199  0.00  0.00    +0.000 A 
ATOM      2  O   UNL     1       4.792   7.189  17.864  0.00  0.00    +0.000 OA
ATOM      3  C   UNL     1       3.859   6.187  17.918  0.00  0.00    +0.000 A 
ATOM      4  C   UNL     1       2.608   6.229  18.545  0.00  0.00    +0.000 A 
ATOM      5  N   UNL     1       1.847   5.089  18.485  0.00  0.00    +0.000 NA
ATOM      6  C   UNL     1       2.318   3.987  17.862  0.00  0.00    +0.000 A 
ATOM      7  C   UNL     1       3.545   3.907  17.227  0.00  0.00    +0.000 A 
ATOM      8  C   UNL     1       4.337   5.063  17.244  0.00  0.00    +0.000 A 
ATOM      9  C   UNL     1       5.626   5.423  16.755  0.00  0.00    +0.000 A 
ENDROOT
BRANCH   4  10
ATOM     10  C   UNL     1       2.034   7.389  19.242  0.00  0.00    +0.000 A 
ATOM     11  C   UNL     1       1.752   8.573  18.531  0.00  0.00    +0.000 A 
ATOM     12  C   UNL     1       1.220   9.702  19.160  0.00  0.00    +0.000 A 
ATOM     13  C   UNL     1       0.952   9.667  20.523  0.00  0.00    +0.000 A 
ATOM     14 CL   UNL     1       0.309  11.057  21.307  0.00  0.00    +0.000 Cl
ATOM     15  C   UNL     1       1.200   8.511  21.255  0.00  0.00    +0.000 A 
ATOM     16  C   UNL     1       1.732   7.383  20.616  0.00  0.00    +0.000 A 
ENDBRANCH   4  10
BRANCH   1  17
ATOM     17  N   UNL     1       6.912   7.542  17.082  0.00  0.00    +0.000 N 
ATOM     18  H   UNL     1       6.701   8.530  16.976  0.00  0.00    +0.000 HD
ATOM     19  H   UNL     1       7.733   7.251  16.564  0.00  0.00    +0.000 HD
ENDBRANCH   1  17
BRANCH   9  20
ATOM     20  N   UNL     1       6.504   4.644  16.071  0.00  0.00    +0.000 N 
ATOM     21  H   UNL     1       7.304   4.282  16.587  0.00  0.00    +0.000 HD
BRANCH  20  22
ATOM     22  C   UNL     1       6.697   4.538  14.677  0.00  0.00    +0.000 A 
ATOM     23  C   UNL     1       7.652   5.364  14.064  0.00  0.00    +0.000 A 
ATOM     24  C   UNL     1       7.908   5.272  12.693  0.00  0.00    +0.000 A 
ATOM     25  C   UNL     1       7.208   4.348  11.924  0.00  0.00    +0.000 A 
ATOM     26  F   UNL     1       7.461   4.281  10.609  0.00  0.00    +0.000 F 
ATOM     27  C   UNL     1       6.269   3.510  12.513  0.00  0.00    +0.000 A 
ATOM     28 CL   UNL     1       5.403   2.360  11.568  0.00  0.00    +0.000 Cl
ATOM     29  C   UNL     1       6.019   3.597  13.886  0.00  0.00    +0.000 A 
ENDBRANCH  20  22
ENDBRANCH   9  20
TORSDOF 4
ENDMDL
MODEL 3
REMARK VINA RESULT:      -8.1      4.349      9.254
REMARK  Name = 
REMARK  4 active torsions:
REMARK  status: ('A' for Active; 'I' for Inactive)
REMARK    1  A    between atoms: N_1  and  C_2
REMARK    2  A    between atoms: C_5  and  C_6
REMARK    3  A    between atoms: C_17  and  N_18
REMARK    4  A    between atoms: N_18  and  C_19
REMARK                            x       y       z     vdW  Elec       q    Type
REMARK                         _______ _______ _______ _____ _____    ______ ____
ROOT
ATOM      1  C   UNL     1       0.368   9.554  22.244  0.00  0.00    +0.000 A 
ATOM      2  O   UNL     1       0.954   8.477  21.667  0.00  0.00    +0.000 OA
ATOM      3  C   UNL     1       1.264   8.819  20.378  0.00  0.00    +0.000 A 
ATOM      4  C   UNL     1       1.916   8.027  19.426  0.00  0.00    +0.000 A 
ATOM      5  N   UNL     1       2.139   8.594  18.196  0.00  0.00    +0.000 NA
ATOM      6  C   UNL     1       1.754   9.865  17.952  0.00  0.00    +0.000 A 
ATOM      7  C   UNL     1       1.103  10.679  18.863  0.00  0.00    +0.000 A 
ATOM      8  C   UNL     1       0.835  10.122  20.122  0.00  0.00    +0.000 A 
ATOM      9  C   UNL     1       0.227  10.575  21.328  0.00  0.00    +0.000 A 
ENDROOT
BRANCH   4  10
ATOM     10  C   UNL     1       2.364   6.641  19.622  0.00  0.00    +0.000 A 
ATOM     11  C   UNL     1       3.417   6.122  18.840  0.00  0.00    +0.000 A 
ATOM     12  C   UNL     1       3.862   4.804  18.986  0.00  0.00    +0.000 A 
ATOM     13  C   UNL     1       3.263   3.976  19.926  0.00  0.00    +0.000 A 
ATOM     14 CL   UNL     1       3.796   2.350  20.101  0.00  0.00    +0.000 Cl
ATOM     15  C   UNL     1       2.233   4.459  20.727  0.00  0.00    +0.000 A 
ATOM     16  C   UNL     1       1.794   5.780  20.577  0.00  0.00    +0.000 A 
ENDBRANCH   4  10
BRANCH   1  17
ATOM     17  N   UNL     1       0.029   9.419  23.536  0.00  0.00    +0.000 N 
ATOM     18  H   UNL     1      -0.052  10.272  24.082  0.00  0.00    +0.000 HD
ATOM     19  H   UNL     1       0.385   8.636  24.070  0.00  0.00    +0.000 HD
ENDBRANCH   1  17
BRANCH   9  20
ATOM     20  N   UNL     1      -0.304  11.799  21.584  0.00  0.00    +0.000 N 
ATOM     21  H   UNL     1       0.328  12.514  21.938  0.00  0.00    +0.000 HD
BRANCH  20  22
ATOM     22  C   UNL     1      -1.655  12.156  21.785  0.00  0.00    +0.000 A 
ATOM     23  C   UNL     1      -2.429  12.516  20.672  0.00  0.00    +0.000 A 
ATOM     24  C   UNL     1      -3.781  12.842  20.813  0.00  0.00    +0.000 A 
ATOM     25  C   UNL     1      -4.369  12.808  22.072  0.00  0.00    +0.000 A 
ATOM     26  F   UNL     1      -5.665  13.132  22.188  0.00  0.00    +0.000 F 
ATOM     27  C   UNL     1      -3.624  12.439  23.186  0.00  0.00    +0.000 A 
ATOM     28 CL   UNL     1      -4.346  12.388  24.749  0.00  0.00    +0.000 Cl
ATOM     29  C   UNL     1      -2.273  12.106  23.044  0.00  0.00    +0.000 A 
ENDBRANCH  20  22
ENDBRANCH   9  20
TORSDOF 4
ENDMDL
MODEL 4
REMARK VINA RESULT:      -8.1      1.212      1.478
REMARK  Name = 
REMARK  4 active torsions:
REMARK  status: ('A' for Active; 'I' for Inactive)
REMARK    1  A    between atoms: N_1  and  C_2
REMARK    2  A    between atoms: C_5  and  C_6
REMARK    3  A    between atoms: C_17  and  N_18
REMARK    4  A    between atoms: N_18  and  C_19
REMARK                            x       y       z     vdW  Elec       q    Type
REMARK                         _______ _______ _______ _____ _____    ______ ____
ROOT
ATOM      1  C   UNL     1       2.037   5.655  20.469  0.00  0.00    +0.000 A 
ATOM      2  O   UNL     1       1.422   6.815  20.806  0.00  0.00    +0.000 OA
ATOM      3  C   UNL     1       1.668   7.716  19.805  0.00  0.00    +0.000 A 
ATOM      4  C   UNL     1       1.196   9.030  19.714  0.00  0.00    +0.000 A 
ATOM      5  N   UNL     1       1.560   9.744  18.600  0.00  0.00    +0.000 NA
ATOM      6  C   UNL     1       2.322   9.172  17.643  0.00  0.00    +0.000 A 
ATOM      7  C   UNL     1       2.813   7.879  17.697  0.00  0.00    +0.000 A 
ATOM      8  C   UNL     1       2.483   7.130  18.835  0.00  0.00    +0.000 A 
ATOM      9  C   UNL     1       2.741   5.806  19.293  0.00  0.00    +0.000 A 
ENDROOT
BRANCH   4  10
ATOM     10  C   UNL     1       0.363   9.715  20.713  0.00  0.00    +0.000 A 
ATOM     11  C   UNL     1      -0.415  10.830  20.339  0.00  0.00    +0.000 A 
ATOM     12  C   UNL     1      -1.209  11.518  21.262  0.00  0.00    +0.000 A 
ATOM     13  C   UNL     1      -1.244  11.098  22.585  0.00  0.00    +0.000 A 
ATOM     14 CL   UNL     1      -2.208  11.947  23.729  0.00  0.00    +0.000 Cl
ATOM     15  C   UNL     1      -0.504   9.991  22.988  0.00  0.00    +0.000 A 
ATOM     16  C   UNL     1       0.288   9.306  22.056  0.00  0.00    +0.000 A 
ENDBRANCH   4  10
BRANCH   1  17
ATOM     17  N   UNL     1       1.870   4.631  21.321  0.00  0.00    +0.000 N 
ATOM     18  H   UNL     1       2.466   4.615  22.144  0.00  0.00    +0.000 HD
ATOM     19  H   UNL     1       1.662   3.707  20.961  0.00  0.00    +0.000 HD
ENDBRANCH   1  17
BRANCH   9  20
ATOM     20  N   UNL     1       3.453   4.832  18.668  0.00  0.00    +0.000 N 
ATOM     21  H   UNL     1       3.398   3.893  19.058  0.00  0.00    +0.000 HD
BRANCH  20  22
ATOM     22  C   UNL     1       4.545   4.961  17.782  0.00  0.00    +0.000 A 
ATOM     23  C   UNL     1       4.599   4.129  16.654  0.00  0.00    +0.000 A 
ATOM     24  C   UNL     1       5.639   4.242  15.727  0.00  0.00    +0.000 A 
ATOM     25  C   UNL     1       6.634   5.193  15.923  0.00  0.00    +0.000 A 
ATOM     26  F   UNL     1       7.628   5.281  15.027  0.00  0.00    +0.000 F 
ATOM     27  C   UNL     1       6.591   6.039  17.025  0.00  0.00    +0.000 A 
ATOM     28 CL   UNL     1       7.817   7.223  17.272  0.00  0.00    +0.000 Cl
ATOM     29  C   UNL     1       5.547   5.930  17.949  0.00  0.00    +0.000 A 
ENDBRANCH  20  22
ENDBRANCH   9  20
TORSDOF 4
ENDMDL
MODEL 5
REMARK VINA RESULT:      -7.9      3.619      8.653
REMARK  Name = 
REMARK  4 active torsions:
REMARK  status: ('A' for Active; 'I' for Inactive)
REMARK    1  A    between atoms: N_1  and  C_2
REMARK    2  A    between atoms: C_5  and  C_6
REMARK    3  A    between atoms: C_17  and  N_18
REMARK    4  A    between atoms: N_18  and  C_19
REMARK                            x       y       z     vdW  Elec       q    Type
REMARK                         _______ _______ _______ _____ _____    ______ ____
ROOT
ATOM      1  C   UNL     1       1.997   9.520  18.288  0.00  0.00    +0.000 A 
ATOM      2  O   UNL     1       2.702   8.456  17.836  0.00  0.00    +0.000 OA
ATOM      3  C   UNL     1       2.507   7.428  18.719  0.00  0.00    +0.000 A 
ATOM      4  C   UNL     1       3.013   6.126  18.629  0.00  0.00    +0.000 A 
ATOM      5  N   UNL     1       2.665   5.254  19.629  0.00  0.00    +0.000 NA
ATOM      6  C   UNL     1       1.852   5.656  20.630  0.00  0.00    +0.000 A 
ATOM      7  C   UNL     1       1.335   6.933  20.759  0.00  0.00    +0.000 A 
ATOM      8  C   UNL     1       1.694   7.858  19.768  0.00  0.00    +0.000 A 
ATOM      9  C   UNL     1       1.397   9.224  19.494  0.00  0.00    +0.000 A 
ENDROOT
BRANCH   4  10
ATOM     10  C   UNL     1       3.898   5.620  17.569  0.00  0.00    +0.000 A 
ATOM     11  C   UNL     1       4.678   6.517  16.810  0.00  0.00    +0.000 A 
ATOM     12  C   UNL     1       5.520   6.076  15.785  0.00  0.00    +0.000 A 
ATOM     13  C   UNL     1       5.603   4.719  15.500  0.00  0.00    +0.000 A 
ATOM     14 CL   UNL     1       6.627   4.171  14.231  0.00  0.00    +0.000 Cl
ATOM     15  C   UNL     1       4.862   3.803  16.239  0.00  0.00    +0.000 A 
ATOM     16  C   UNL     1       4.022   4.252  17.266  0.00  0.00    +0.000 A 
ENDBRANCH   4  10
BRANCH   1  17
ATOM     17  N   UNL     1       2.034  10.621  17.521  0.00  0.00    +0.000 N 
ATOM     18  H   UNL     1       2.425  11.460  17.940  0.00  0.00    +0.000 HD
ATOM     19  H   UNL     1       1.274  10.812  16.879  0.00  0.00    +0.000 HD
ENDBRANCH   1  17
BRANCH   9  20
ATOM     20  N   UNL     1       0.602  10.063  20.209  0.00  0.00    +0.000 N 
ATOM     21  H   UNL     1       0.747  10.094  21.216  0.00  0.00    +0.000 HD
BRANCH  20  22
ATOM     22  C   UNL     1      -0.635  10.638  19.846  0.00  0.00    +0.000 A 
ATOM     23  C   UNL     1      -1.122  11.719  20.597  0.00  0.00    +0.000 A 
ATOM     24  C   UNL     1      -2.324  12.347  20.256  0.00  0.00    +0.000 A 
ATOM     25  C   UNL     1      -3.047  11.897  19.157  0.00  0.00    +0.000 A 
ATOM     26  F   UNL     1      -4.201  12.506  18.851  0.00  0.00    +0.000 F 
ATOM     27  C   UNL     1      -2.575  10.838  18.390  0.00  0.00    +0.000 A 
ATOM     28 CL   UNL     1      -3.462  10.279  17.024  0.00  0.00    +0.000 Cl
ATOM     29  C   UNL     1      -1.369  10.214  18.727  0.00  0.00    +0.000 A 
ENDBRANCH  20  22
ENDBRANCH   9  20
TORSDOF 4
ENDMDL
MODEL 6
REMARK VINA RESULT:      -7.9      4.934     10.198
REMARK  Name = 
REMARK  4 active torsions:
REMARK  status: ('A' for Active; 'I' for Inactive)
REMARK    1  A    between atoms: N_1  and  C_2
REMARK    2  A    between atoms: C_5  and  C_6
REMARK    3  A    between atoms: C_17  and  N_18
REMARK    4  A    between atoms: N_18  and  C_19
REMARK                            x       y       z     vdW  Elec       q    Type
REMARK                         _______ _______ _______ _____ _____    ______ ____
ROOT
ATOM      1  C   UNL     1      -1.450  11.429  18.246  0.00  0.00    +0.000 A 
ATOM      2  O   UNL     1      -0.484  10.486  18.352  0.00  0.00    +0.000 OA
ATOM      3  C   UNL     1      -0.221  10.314  19.685  0.00  0.00    +0.000 A 
ATOM      4  C   UNL     1       0.679   9.411  20.261  0.00  0.00    +0.000 A 
ATOM      5  N   UNL     1       0.759   9.404  21.631  0.00  0.00    +0.000 NA
ATOM      6  C   UNL     1      -0.022  10.227  22.363  0.00  0.00    +0.000 A 
ATOM      7  C   UNL     1      -0.920  11.137  21.833  0.00  0.00    +0.000 A 
ATOM      8  C   UNL     1      -1.007  11.190  20.435  0.00  0.00    +0.000 A 
ATOM      9  C   UNL     1      -1.775  11.930  19.489  0.00  0.00    +0.000 A 
ENDROOT
BRANCH   4  10
ATOM     10  C   UNL     1       1.557   8.487  19.529  0.00  0.00    +0.000 A 
ATOM     11  C   UNL     1       1.880   7.231  20.083  0.00  0.00    +0.000 A 
ATOM     12  C   UNL     1       2.722   6.330  19.424  0.00  0.00    +0.000 A 
ATOM     13  C   UNL     1       3.258   6.667  18.188  0.00  0.00    +0.000 A 
ATOM     14 CL   UNL     1       4.306   5.569  17.379  0.00  0.00    +0.000 Cl
ATOM     15  C   UNL     1       2.948   7.890  17.602  0.00  0.00    +0.000 A 
ATOM     16  C   UNL     1       2.102   8.787  18.267  0.00  0.00    +0.000 A 
ENDBRANCH   4  10
BRANCH   1  17
ATOM     17  N   UNL     1      -1.871  11.704  17.001  0.00  0.00    +0.000 N 
ATOM     18  H   UNL     1      -2.332  12.598  16.858  0.00  0.00    +0.000 HD
ATOM     19  H   UNL     1      -2.251  10.963  16.424  0.00  0.00    +0.000 HD
ENDBRANCH   1  17
BRANCH   9  20
ATOM     20  N   UNL     1      -2.718  12.874  19.739  0.00  0.00    +0.000 N 
ATOM     21  H   UNL     1      -2.397  13.834  19.849  0.00  0.00    +0.000 HD
BRANCH  20  22
ATOM     22  C   UNL     1      -4.032  12.709  20.231  0.00  0.00    +0.000 A 
ATOM     23  C   UNL     1      -5.027  12.254  19.353  0.00  0.00    +0.000 A 
ATOM     24  C   UNL     1      -6.334  12.039  19.798  0.00  0.00    +0.000 A 
ATOM     25  C   UNL     1      -6.654  12.276  21.130  0.00  0.00    +0.000 A 
ATOM     26  F   UNL     1      -7.916  12.071  21.537  0.00  0.00    +0.000 F 
ATOM     27  C   UNL     1      -5.680  12.711  22.021  0.00  0.00    +0.000 A 
ATOM     28 CL   UNL     1      -6.067  13.001  23.674  0.00  0.00    +0.000 Cl
ATOM     29  C   UNL     1      -4.370  12.920  21.576  0.00  0.00    +0.000 A 
ENDBRANCH  20  22
ENDBRANCH   9  20
TORSDOF 4
ENDMDL
MODEL 7
REMARK VINA RESULT:      -7.8      4.457      9.132
REMARK  Name = 
REMARK  4 active torsions:
REMARK  status: ('A' for Active; 'I' for Inactive)
REMARK    1  A    between atoms: N_1  and  C_2
REMARK    2  A    between atoms: C_5  and  C_6
REMARK    3  A    between atoms: C_17  and  N_18
REMARK    4  A    between atoms: N_18  and  C_19
REMARK                            x       y       z     vdW  Elec       q    Type
REMARK                         _______ _______ _______ _____ _____    ______ ____
ROOT
ATOM      1  C   UNL     1       0.398   9.510  22.285  0.00  0.00    +0.000 A 
ATOM      2  O   UNL     1       0.992   8.431  21.722  0.00  0.00    +0.000 OA
ATOM      3  C   UNL     1       1.268   8.748  20.418  0.00  0.00    +0.000 A 
ATOM      4  C   UNL     1       1.915   7.946  19.471  0.00  0.00    +0.000 A 
ATOM      5  N   UNL     1       2.100   8.488  18.224  0.00  0.00    +0.000 NA
ATOM      6  C   UNL     1       1.686   9.745  17.959  0.00  0.00    +0.000 A 
ATOM      7  C   UNL     1       1.039  10.568  18.864  0.00  0.00    +0.000 A 
ATOM      8  C   UNL     1       0.808  10.036  20.141  0.00  0.00    +0.000 A 
ATOM      9  C   UNL     1       0.217  10.506  21.349  0.00  0.00    +0.000 A 
ENDROOT
BRANCH   4  10
ATOM     10  C   UNL     1       2.394   6.574  19.690  0.00  0.00    +0.000 A 
ATOM     11  C   UNL     1       3.578   6.131  19.065  0.00  0.00    +0.000 A 
ATOM     12  C   UNL     1       4.059   4.829  19.236  0.00  0.00    +0.000 A 
ATOM     13  C   UNL     1       3.362   3.940  20.044  0.00  0.00    +0.000 A 
ATOM     14 CL   UNL     1       3.940   2.333  20.248  0.00  0.00    +0.000 Cl
ATOM     15  C   UNL     1       2.199   4.346  20.690  0.00  0.00    +0.000 A 
ATOM     16  C   UNL     1       1.725   5.653  20.516  0.00  0.00    +0.000 A 
ENDBRANCH   4  10
BRANCH   1  17
ATOM     17  N   UNL     1       0.088   9.400  23.587  0.00  0.00    +0.000 N 
ATOM     18  H   UNL     1       0.768   9.756  24.253  0.00  0.00    +0.000 HD
ATOM     19  H   UNL     1      -0.403   8.578  23.919  0.00  0.00    +0.000 HD
ENDBRANCH   1  17
BRANCH   9  20
ATOM     20  N   UNL     1      -0.331  11.726  21.588  0.00  0.00    +0.000 N 
ATOM     21  H   UNL     1       0.298  12.467  21.890  0.00  0.00    +0.000 HD
BRANCH  20  22
ATOM     22  C   UNL     1      -1.681  12.059  21.836  0.00  0.00    +0.000 A 
ATOM     23  C   UNL     1      -2.137  12.078  23.164  0.00  0.00    +0.000 A 
ATOM     24  C   UNL     1      -3.453  12.437  23.466  0.00  0.00    +0.000 A 
ATOM     25  C   UNL     1      -4.325  12.782  22.439  0.00  0.00    +0.000 A 
ATOM     26  F   UNL     1      -5.586  13.115  22.748  0.00  0.00    +0.000 F 
ATOM     27  C   UNL     1      -3.889  12.785  21.118  0.00  0.00    +0.000 A 
ATOM     28 CL   UNL     1      -4.961  13.216  19.841  0.00  0.00    +0.000 Cl
ATOM     29  C   UNL     1      -2.570  12.432  20.817  0.00  0.00    +0.000 A 
ENDBRANCH  20  22
ENDBRANCH   9  20
TORSDOF 4
ENDMDL
MODEL 8
REMARK VINA RESULT:      -7.8      5.034     10.018
REMARK  Name = 
REMARK  4 active torsions:
REMARK  status: ('A' for Active; 'I' for Inactive)
REMARK    1  A    between atoms: N_1  and  C_2
REMARK    2  A    between atoms: C_5  and  C_6
REMARK    3  A    between atoms: C_17  and  N_18
REMARK    4  A    between atoms: N_18  and  C_19
REMARK                            x       y       z     vdW  Elec       q    Type
REMARK                         _______ _______ _______ _____ _____    ______ ____
ROOT
ATOM      1  C   UNL     1      -1.976  10.329  17.295  0.00  0.00    +0.000 A 
ATOM      2  O   UNL     1      -0.839   9.657  17.593  0.00  0.00    +0.000 OA
ATOM      3  C   UNL     1      -0.397  10.113  18.806  0.00  0.00    +0.000 A 
ATOM      4  C   UNL     1       0.723   9.672  19.520  0.00  0.00    +0.000 A 
ATOM      5  N   UNL     1       0.958  10.268  20.733  0.00  0.00    +0.000 NA
ATOM      6  C   UNL     1       0.120  11.218  21.200  0.00  0.00    +0.000 A 
ATOM      7  C   UNL     1      -0.994  11.686  20.524  0.00  0.00    +0.000 A 
ATOM      8  C   UNL     1      -1.249  11.118  19.268  0.00  0.00    +0.000 A 
ATOM      9  C   UNL     1      -2.249  11.270  18.265  0.00  0.00    +0.000 A 
ENDROOT
BRANCH   4  10
ATOM     10  C   UNL     1       1.675   8.644  19.076  0.00  0.00    +0.000 A 
ATOM     11  C   UNL     1       1.900   7.500  19.870  0.00  0.00    +0.000 A 
ATOM     12  C   UNL     1       2.808   6.507  19.490  0.00  0.00    +0.000 A 
ATOM     13  C   UNL     1       3.510   6.636  18.299  0.00  0.00    +0.000 A 
ATOM     14 CL   UNL     1       4.639   5.425  17.832  0.00  0.00    +0.000 Cl
ATOM     15  C   UNL     1       3.302   7.743  17.481  0.00  0.00    +0.000 A 
ATOM     16  C   UNL     1       2.388   8.732  17.867  0.00  0.00    +0.000 A 
ENDBRANCH   4  10
BRANCH   1  17
ATOM     17  N   UNL     1      -2.583   9.982  16.149  0.00  0.00    +0.000 N 
ATOM     18  H   UNL     1      -1.984   9.799  15.348  0.00  0.00    +0.000 HD
ATOM     19  H   UNL     1      -3.465  10.411  15.897  0.00  0.00    +0.000 HD
ENDBRANCH   1  17
BRANCH   9  20
ATOM     20  N   UNL     1      -3.325  12.100  18.281  0.00  0.00    +0.000 N 
ATOM     21  H   UNL     1      -3.204  13.025  17.873  0.00  0.00    +0.000 HD
BRANCH  20  22
ATOM     22  C   UNL     1      -4.482  12.037  19.087  0.00  0.00    +0.000 A 
ATOM     23  C   UNL     1      -5.559  11.245  18.659  0.00  0.00    +0.000 A 
ATOM     24  C   UNL     1      -6.713  11.119  19.438  0.00  0.00    +0.000 A 
ATOM     25  C   UNL     1      -6.796  11.786  20.655  0.00  0.00    +0.000 A 
ATOM     26  F   UNL     1      -7.914  11.660  21.384  0.00  0.00    +0.000 F 
ATOM     27  C   UNL     1      -5.735  12.563  21.106  0.00  0.00    +0.000 A 
ATOM     28 CL   UNL     1      -5.828  13.387  22.615  0.00  0.00    +0.000 Cl
ATOM     29  C   UNL     1      -4.578  12.683  20.329  0.00  0.00    +0.000 A 
ENDBRANCH  20  22
ENDBRANCH   9  20
TORSDOF 4
ENDMDL
MODEL 9
REMARK VINA RESULT:      -7.8      3.430      8.917
REMARK  Name = 
REMARK  4 active torsions:
REMARK  status: ('A' for Active; 'I' for Inactive)
REMARK    1  A    between atoms: N_1  and  C_2
REMARK    2  A    between atoms: C_5  and  C_6
REMARK    3  A    between atoms: C_17  and  N_18
REMARK    4  A    between atoms: N_18  and  C_19
REMARK                            x       y       z     vdW  Elec       q    Type
REMARK                         _______ _______ _______ _____ _____    ______ ____
ROOT
ATOM      1  C   UNL     1       1.938   9.592  18.348  0.00  0.00    +0.000 A 
ATOM      2  O   UNL     1       2.657   8.543  17.882  0.00  0.00    +0.000 OA
ATOM      3  C   UNL     1       2.474   7.501  18.752  0.00  0.00    +0.000 A 
ATOM      4  C   UNL     1       2.997   6.207  18.645  0.00  0.00    +0.000 A 
ATOM      5  N   UNL     1       2.658   5.318  19.634  0.00  0.00    +0.000 NA
ATOM      6  C   UNL     1       1.840   5.697  20.639  0.00  0.00    +0.000 A 
ATOM      7  C   UNL     1       1.306   6.965  20.785  0.00  0.00    +0.000 A 
ATOM      8  C   UNL     1       1.654   7.907  19.806  0.00  0.00    +0.000 A 
ATOM      9  C   UNL     1       1.341   9.273  19.549  0.00  0.00    +0.000 A 
ENDROOT
BRANCH   4  10
ATOM     10  C   UNL     1       3.888   5.725  17.580  0.00  0.00    +0.000 A 
ATOM     11  C   UNL     1       3.964   4.347  17.292  0.00  0.00    +0.000 A 
ATOM     12  C   UNL     1       4.810   3.848  16.297  0.00  0.00    +0.000 A 
ATOM     13  C   UNL     1       5.600   4.724  15.563  0.00  0.00    +0.000 A 
ATOM     14 CL   UNL     1       6.654   4.116  14.347  0.00  0.00    +0.000 Cl
ATOM     15  C   UNL     1       5.539   6.092  15.808  0.00  0.00    +0.000 A 
ATOM     16  C   UNL     1       4.687   6.585  16.804  0.00  0.00    +0.000 A 
ENDBRANCH   4  10
BRANCH   1  17
ATOM     17  N   UNL     1       1.962  10.703  17.595  0.00  0.00    +0.000 N 
ATOM     18  H   UNL     1       2.053  11.589  18.085  0.00  0.00    +0.000 HD
ATOM     19  H   UNL     1       1.381  10.763  16.768  0.00  0.00    +0.000 HD
ENDBRANCH   1  17
BRANCH   9  20
ATOM     20  N   UNL     1       0.535  10.093  20.274  0.00  0.00    +0.000 N 
ATOM     21  H   UNL     1       0.625  10.055  21.288  0.00  0.00    +0.000 HD
BRANCH  20  22
ATOM     22  C   UNL     1      -0.661  10.733  19.884  0.00  0.00    +0.000 A 
ATOM     23  C   UNL     1      -1.361  10.236  18.774  0.00  0.00    +0.000 A 
ATOM     24  C   UNL     1      -2.569  10.811  18.370  0.00  0.00    +0.000 A 
ATOM     25  C   UNL     1      -3.087  11.890  19.077  0.00  0.00    +0.000 A 
ATOM     26  F   UNL     1      -4.243  12.434  18.669  0.00  0.00    +0.000 F 
ATOM     27  C   UNL     1      -2.418  12.388  20.189  0.00  0.00    +0.000 A 
ATOM     28 CL   UNL     1      -3.057  13.721  21.074  0.00  0.00    +0.000 Cl
ATOM     29  C   UNL     1      -1.213  11.808  20.598  0.00  0.00    +0.000 A 
ENDBRANCH  20  22
ENDBRANCH   9  20
TORSDOF 4
ENDMDL
