MODEL 1
REMARK VINA RESULT:      -7.4      0.000      0.000
REMARK  Name = 
REMARK  7 active torsions:
REMARK  status: ('A' for Active; 'I' for Inactive)
REMARK    1  A    between atoms: C_4  and  C_5
REMARK    2  A    between atoms: C_13  and  C_14
REMARK    3  A    between atoms: C_17  and  N_18
REMARK    4  A    between atoms: N_18  and  C_19
REMARK    5  A    between atoms: N_18  and  C_22
REMARK    6  A    between atoms: C_19  and  C_20
REMARK    7  A    between atoms: C_22  and  C_23
REMARK                            x       y       z     vdW  Elec       q    Type
REMARK                         _______ _______ _______ _____ _____    ______ ____
ROOT
ATOM      1  O   UNL     1       0.097  11.399  22.084  0.00  0.00    +0.000 OA
ATOM      2  C   UNL     1      -0.232  10.898  21.028  0.00  0.00    +0.000 C 
ATOM      3  O   UNL     1      -1.199  11.335  20.172  0.00  0.00    +0.000 OA
ATOM      4  C   UNL     1      -1.213  10.460  19.138  0.00  0.00    +0.000 C 
ATOM      5  N   UNL     1      -0.370   9.481  19.168  0.00  0.00    +0.000 NA
ATOM      6  C   UNL     1       0.296   9.687  20.346  0.00  0.00    +0.000 C 
ATOM      7  C   UNL     1       1.279   8.943  20.862  0.00  0.00    +0.000 C 
ENDROOT
BRANCH   4   8
ATOM      8  C   UNL     1      -2.221  10.709  18.096  0.00  0.00    +0.000 A 
ATOM      9  C   UNL     1      -3.352  11.495  18.340  0.00  0.00    +0.000 A 
ATOM     10  C   UNL     1      -4.304  11.672  17.333  0.00  0.00    +0.000 A 
ATOM     11  C   UNL     1      -4.128  11.068  16.087  0.00  0.00    +0.000 A 
ATOM     12  C   UNL     1      -2.994  10.297  15.838  0.00  0.00    +0.000 A 
ATOM     13  C   UNL     1      -2.039  10.120  16.839  0.00  0.00    +0.000 A 
ENDBRANCH   4   8
BRANCH   7  14
ATOM     14  C   UNL     1       1.809   7.761  20.181  0.00  0.00    +0.000 A 
ATOM     15  C   UNL     1       1.770   6.511  20.796  0.00  0.00    +0.000 A 
ATOM     16  C   UNL     1       2.312   5.384  20.157  0.00  0.00    +0.000 A 
ATOM     17  C   UNL     1       2.911   5.458  18.890  0.00  0.00    +0.000 A 
ATOM     18  C   UNL     1       2.916   6.733  18.291  0.00  0.00    +0.000 A 
ATOM     19  C   UNL     1       2.389   7.868  18.922  0.00  0.00    +0.000 A 
BRANCH  17  20
ATOM     20  N   UNL     1       3.498   4.352  18.281  0.00  0.00    +0.000 N 
BRANCH  20  21
ATOM     21  C   UNL     1       3.419   3.002  18.877  0.00  0.00    +0.000 C 
BRANCH  21  22
ATOM     22  C   UNL     1       2.402   2.070  18.206  0.00  0.00    +0.000 C 
ATOM     23 CL   UNL     1       0.726   2.388  18.725  0.00  0.00    +0.000 Cl
ENDBRANCH  21  22
ENDBRANCH  20  21
BRANCH  20  24
ATOM     24  C   UNL     1       4.010   4.430  16.895  0.00  0.00    +0.000 C 
BRANCH  24  25
ATOM     25  C   UNL     1       5.542   4.430  16.848  0.00  0.00    +0.000 C 
ATOM     26 CL   UNL     1       6.123   3.676  15.340  0.00  0.00    +0.000 Cl
ENDBRANCH  24  25
ENDBRANCH  20  24
ENDBRANCH  17  20
ENDBRANCH   7  14
TORSDOF 7
ENDMDL
MODEL 2
REMARK VINA RESULT:      -7.4      0.722      2.222
REMARK  Name = 
REMARK  7 active torsions:
REMARK  status: ('A' for Active; 'I' for Inactive)
REMARK    1  A    between atoms: C_4  and  C_5
REMARK    2  A    between atoms: C_13  and  C_14
REMARK    3  A    between atoms: C_17  and  N_18
REMARK    4  A    between atoms: N_18  and  C_19
REMARK    5  A    between atoms: N_18  and  C_22
REMARK    6  A    between atoms: C_19  and  C_20
REMARK    7  A    between atoms: C_22  and  C_23
REMARK                            x       y       z     vdW  Elec       q    Type
REMARK                         _______ _______ _______ _____ _____    ______ ____
ROOT
ATOM      1  O   UNL     1       0.043  11.472  22.048  0.00  0.00    +0.000 OA
ATOM      2  C   UNL     1      -0.301  10.986  20.989  0.00  0.00    +0.000 C 
ATOM      3  O   UNL     1      -1.290  11.426  20.161  0.00  0.00    +0.000 OA
ATOM      4  C   UNL     1      -1.314  10.570  19.111  0.00  0.00    +0.000 C 
ATOM      5  N   UNL     1      -0.458   9.602  19.106  0.00  0.00    +0.000 NA
ATOM      6  C   UNL     1       0.230   9.795  20.274  0.00  0.00    +0.000 C 
ATOM      7  C   UNL     1       1.232   9.054  20.757  0.00  0.00    +0.000 C 
ENDROOT
BRANCH   4   8
ATOM      8  C   UNL     1      -2.345  10.825  18.094  0.00  0.00    +0.000 A 
ATOM      9  C   UNL     1      -3.515  11.529  18.394  0.00  0.00    +0.000 A 
ATOM     10  C   UNL     1      -4.486  11.714  17.407  0.00  0.00    +0.000 A 
ATOM     11  C   UNL     1      -4.291  11.197  16.125  0.00  0.00    +0.000 A 
ATOM     12  C   UNL     1      -3.119  10.508  15.821  0.00  0.00    +0.000 A 
ATOM     13  C   UNL     1      -2.144  10.324  16.802  0.00  0.00    +0.000 A 
ENDBRANCH   4   8
BRANCH   7  14
ATOM     14  C   UNL     1       1.764   7.893  20.043  0.00  0.00    +0.000 A 
ATOM     15  C   UNL     1       1.762   6.633  20.639  0.00  0.00    +0.000 A 
ATOM     16  C   UNL     1       2.306   5.525  19.969  0.00  0.00    +0.000 A 
ATOM     17  C   UNL     1       2.870   5.630  18.687  0.00  0.00    +0.000 A 
ATOM     18  C   UNL     1       2.837   6.913  18.109  0.00  0.00    +0.000 A 
ATOM     19  C   UNL     1       2.308   8.029  18.772  0.00  0.00    +0.000 A 
BRANCH  17  20
ATOM     20  N   UNL     1       3.459   4.543  18.046  0.00  0.00    +0.000 N 
BRANCH  20  21
ATOM     21  C   UNL     1       4.854   4.139  18.320  0.00  0.00    +0.000 C 
BRANCH  21  22
ATOM     22  C   UNL     1       5.813   4.322  17.137  0.00  0.00    +0.000 C 
ATOM     23 CL   UNL     1       5.911   6.014  16.584  0.00  0.00    +0.000 Cl
ENDBRANCH  21  22
ENDBRANCH  20  21
BRANCH  20  24
ATOM     24  C   UNL     1       2.645   3.597  17.252  0.00  0.00    +0.000 C 
BRANCH  24  25
ATOM     25  C   UNL     1       2.341   2.309  18.025  0.00  0.00    +0.000 C 
ATOM     26 CL   UNL     1       0.737   2.405  18.798  0.00  0.00    +0.000 Cl
ENDBRANCH  24  25
ENDBRANCH  20  24
ENDBRANCH  17  20
ENDBRANCH   7  14
TORSDOF 7
ENDMDL
MODEL 3
REMARK VINA RESULT:      -7.2      0.783      2.485
REMARK  Name = 
REMARK  7 active torsions:
REMARK  status: ('A' for Active; 'I' for Inactive)
REMARK    1  A    between atoms: C_4  and  C_5
REMARK    2  A    between atoms: C_13  and  C_14
REMARK    3  A    between atoms: C_17  and  N_18
REMARK    4  A    between atoms: N_18  and  C_19
REMARK    5  A    between atoms: N_18  and  C_22
REMARK    6  A    between atoms: C_19  and  C_20
REMARK    7  A    between atoms: C_22  and  C_23
REMARK                            x       y       z     vdW  Elec       q    Type
REMARK                         _______ _______ _______ _____ _____    ______ ____
ROOT
ATOM      1  O   UNL     1      -0.105  11.419  22.116  0.00  0.00    +0.000 OA
ATOM      2  C   UNL     1      -0.378  10.927  21.040  0.00  0.00    +0.000 C 
ATOM      3  O   UNL     1      -1.337  11.339  20.162  0.00  0.00    +0.000 OA
ATOM      4  C   UNL     1      -1.278  10.487  19.111  0.00  0.00    +0.000 C 
ATOM      5  N   UNL     1      -0.393   9.546  19.147  0.00  0.00    +0.000 NA
ATOM      6  C   UNL     1       0.226   9.757  20.351  0.00  0.00    +0.000 C 
ATOM      7  C   UNL     1       1.226   9.046  20.882  0.00  0.00    +0.000 C 
ENDROOT
BRANCH   4   8
ATOM      8  C   UNL     1      -2.263  10.713  18.042  0.00  0.00    +0.000 A 
ATOM      9  C   UNL     1      -3.382  11.529  18.234  0.00  0.00    +0.000 A 
ATOM     10  C   UNL     1      -4.313  11.684  17.204  0.00  0.00    +0.000 A 
ATOM     11  C   UNL     1      -4.128  11.027  15.987  0.00  0.00    +0.000 A 
ATOM     12  C   UNL     1      -3.006  10.226  15.788  0.00  0.00    +0.000 A 
ATOM     13  C   UNL     1      -2.071  10.071  16.812  0.00  0.00    +0.000 A 
ENDBRANCH   4   8
BRANCH   7  14
ATOM     14  C   UNL     1       1.830   7.904  20.195  0.00  0.00    +0.000 A 
ATOM     15  C   UNL     1       2.372   8.050  18.919  0.00  0.00    +0.000 A 
ATOM     16  C   UNL     1       2.918   6.946  18.245  0.00  0.00    +0.000 A 
ATOM     17  C   UNL     1       2.945   5.662  18.812  0.00  0.00    +0.000 A 
ATOM     18  C   UNL     1       2.406   5.556  20.108  0.00  0.00    +0.000 A 
ATOM     19  C   UNL     1       1.847   6.647  20.788  0.00  0.00    +0.000 A 
BRANCH  17  20
ATOM     20  N   UNL     1       3.436   4.557  18.121  0.00  0.00    +0.000 N 
BRANCH  20  21
ATOM     21  C   UNL     1       4.387   4.700  16.998  0.00  0.00    +0.000 C 
BRANCH  21  22
ATOM     22  C   UNL     1       5.854   4.459  17.374  0.00  0.00    +0.000 C 
ATOM     23 CL   UNL     1       6.477   5.664  18.530  0.00  0.00    +0.000 Cl
ENDBRANCH  21  22
ENDBRANCH  20  21
BRANCH  20  24
ATOM     24  C   UNL     1       3.225   3.186  18.633  0.00  0.00    +0.000 C 
BRANCH  24  25
ATOM     25  C   UNL     1       2.041   2.492  17.951  0.00  0.00    +0.000 C 
ATOM     26 CL   UNL     1       0.621   2.468  19.029  0.00  0.00    +0.000 Cl
ENDBRANCH  24  25
ENDBRANCH  20  24
ENDBRANCH  17  20
ENDBRANCH   7  14
TORSDOF 7
ENDMDL
MODEL 4
REMARK VINA RESULT:      -7.2      1.067      2.546
REMARK  Name = 
REMARK  7 active torsions:
REMARK  status: ('A' for Active; 'I' for Inactive)
REMARK    1  A    between atoms: C_4  and  C_5
REMARK    2  A    between atoms: C_13  and  C_14
REMARK    3  A    between atoms: C_17  and  N_18
REMARK    4  A    between atoms: N_18  and  C_19
REMARK    5  A    between atoms: N_18  and  C_22
REMARK    6  A    between atoms: C_19  and  C_20
REMARK    7  A    between atoms: C_22  and  C_23
REMARK                            x       y       z     vdW  Elec       q    Type
REMARK                         _______ _______ _______ _____ _____    ______ ____
ROOT
ATOM      1  O   UNL     1       0.241  11.351  21.923  0.00  0.00    +0.000 OA
ATOM      2  C   UNL     1      -0.129  10.859  20.876  0.00  0.00    +0.000 C 
ATOM      3  O   UNL     1      -1.149  11.283  20.078  0.00  0.00    +0.000 OA
ATOM      4  C   UNL     1      -1.193  10.424  19.031  0.00  0.00    +0.000 C 
ATOM      5  N   UNL     1      -0.324   9.469  19.001  0.00  0.00    +0.000 NA
ATOM      6  C   UNL     1       0.396   9.673  20.147  0.00  0.00    +0.000 C 
ATOM      7  C   UNL     1       1.423   8.947  20.600  0.00  0.00    +0.000 C 
ENDROOT
BRANCH   4   8
ATOM      8  C   UNL     1      -2.258  10.663  18.045  0.00  0.00    +0.000 A 
ATOM      9  C   UNL     1      -2.190  10.144  16.749  0.00  0.00    +0.000 A 
ATOM     10  C   UNL     1      -3.205  10.430  15.833  0.00  0.00    +0.000 A 
ATOM     11  C   UNL     1      -4.285  11.230  16.209  0.00  0.00    +0.000 A 
ATOM     12  C   UNL     1      -4.362  11.736  17.506  0.00  0.00    +0.000 A 
ATOM     13  C   UNL     1      -3.352  11.450  18.425  0.00  0.00    +0.000 A 
ENDBRANCH   4   8
BRANCH   7  14
ATOM     14  C   UNL     1       1.948   7.791  19.872  0.00  0.00    +0.000 A 
ATOM     15  C   UNL     1       2.479   7.940  18.592  0.00  0.00    +0.000 A 
ATOM     16  C   UNL     1       2.949   6.825  17.880  0.00  0.00    +0.000 A 
ATOM     17  C   UNL     1       2.907   5.526  18.412  0.00  0.00    +0.000 A 
ATOM     18  C   UNL     1       2.382   5.416  19.714  0.00  0.00    +0.000 A 
ATOM     19  C   UNL     1       1.900   6.520  20.431  0.00  0.00    +0.000 A 
BRANCH  17  20
ATOM     20  N   UNL     1       3.321   4.414  17.684  0.00  0.00    +0.000 N 
BRANCH  20  21
ATOM     21  C   UNL     1       4.657   4.348  17.053  0.00  0.00    +0.000 C 
BRANCH  21  22
ATOM     22  C   UNL     1       5.815   4.747  17.976  0.00  0.00    +0.000 C 
ATOM     23 CL   UNL     1       6.590   6.277  17.489  0.00  0.00    +0.000 Cl
ENDBRANCH  21  22
ENDBRANCH  20  21
BRANCH  20  24
ATOM     24  C   UNL     1       2.547   3.153  17.716  0.00  0.00    +0.000 C 
BRANCH  24  25
ATOM     25  C   UNL     1       3.402   1.965  18.170  0.00  0.00    +0.000 C 
ATOM     26 CL   UNL     1       3.966   2.200  19.845  0.00  0.00    +0.000 Cl
ENDBRANCH  24  25
ENDBRANCH  20  24
ENDBRANCH  17  20
ENDBRANCH   7  14
TORSDOF 7
ENDMDL
MODEL 5
REMARK VINA RESULT:      -7.2      0.621      2.482
REMARK  Name = 
REMARK  7 active torsions:
REMARK  status: ('A' for Active; 'I' for Inactive)
REMARK    1  A    between atoms: C_4  and  C_5
REMARK    2  A    between atoms: C_13  and  C_14
REMARK    3  A    between atoms: C_17  and  N_18
REMARK    4  A    between atoms: N_18  and  C_19
REMARK    5  A    between atoms: N_18  and  C_22
REMARK    6  A    between atoms: C_19  and  C_20
REMARK    7  A    between atoms: C_22  and  C_23
REMARK                            x       y       z     vdW  Elec       q    Type
REMARK                         _______ _______ _______ _____ _____    ______ ____
ROOT
ATOM      1  O   UNL     1       0.163  11.281  21.920  0.00  0.00    +0.000 OA
ATOM      2  C   UNL     1      -0.193  10.809  20.860  0.00  0.00    +0.000 C 
ATOM      3  O   UNL     1      -1.210  11.243  20.061  0.00  0.00    +0.000 OA
ATOM      4  C   UNL     1      -1.238  10.407  18.996  0.00  0.00    +0.000 C 
ATOM      5  N   UNL     1      -0.362   9.459  18.953  0.00  0.00    +0.000 NA
ATOM      6  C   UNL     1       0.346   9.644  20.110  0.00  0.00    +0.000 C 
ATOM      7  C   UNL     1       1.375   8.916  20.555  0.00  0.00    +0.000 C 
ENDROOT
BRANCH   4   8
ATOM      8  C   UNL     1      -2.297  10.660  18.006  0.00  0.00    +0.000 A 
ATOM      9  C   UNL     1      -2.235  10.132  16.713  0.00  0.00    +0.000 A 
ATOM     10  C   UNL     1      -3.243  10.431  15.793  0.00  0.00    +0.000 A 
ATOM     11  C   UNL     1      -4.309  11.253  16.162  0.00  0.00    +0.000 A 
ATOM     12  C   UNL     1      -4.380  11.767  17.456  0.00  0.00    +0.000 A 
ATOM     13  C   UNL     1      -3.378  11.469  18.379  0.00  0.00    +0.000 A 
ENDBRANCH   4   8
BRANCH   7  14
ATOM     14  C   UNL     1       1.915   7.780  19.807  0.00  0.00    +0.000 A 
ATOM     15  C   UNL     1       1.895   6.498  20.353  0.00  0.00    +0.000 A 
ATOM     16  C   UNL     1       2.447   5.414  19.651  0.00  0.00    +0.000 A 
ATOM     17  C   UNL     1       3.037   5.565  18.386  0.00  0.00    +0.000 A 
ATOM     18  C   UNL     1       3.023   6.871  17.858  0.00  0.00    +0.000 A 
ATOM     19  C   UNL     1       2.486   7.963  18.553  0.00  0.00    +0.000 A 
BRANCH  17  20
ATOM     20  N   UNL     1       3.634   4.501  17.714  0.00  0.00    +0.000 N 
BRANCH  20  21
ATOM     21  C   UNL     1       5.100   4.312  17.701  0.00  0.00    +0.000 C 
BRANCH  21  22
ATOM     22  C   UNL     1       5.682   3.954  16.328  0.00  0.00    +0.000 C 
ATOM     23 CL   UNL     1       6.986   5.058  15.821  0.00  0.00    +0.000 Cl
ENDBRANCH  21  22
ENDBRANCH  20  21
BRANCH  20  24
ATOM     24  C   UNL     1       2.822   3.379  17.196  0.00  0.00    +0.000 C 
BRANCH  24  25
ATOM     25  C   UNL     1       2.852   2.166  18.133  0.00  0.00    +0.000 C 
ATOM     26 CL   UNL     1       1.335   2.052  19.062  0.00  0.00    +0.000 Cl
ENDBRANCH  24  25
ENDBRANCH  20  24
ENDBRANCH  17  20
ENDBRANCH   7  14
TORSDOF 7
ENDMDL
MODEL 6
REMARK VINA RESULT:      -7.1      0.782      1.235
REMARK  Name = 
REMARK  7 active torsions:
REMARK  status: ('A' for Active; 'I' for Inactive)
REMARK    1  A    between atoms: C_4  and  C_5
REMARK    2  A    between atoms: C_13  and  C_14
REMARK    3  A    between atoms: C_17  and  N_18
REMARK    4  A    between atoms: N_18  and  C_19
REMARK    5  A    between atoms: N_18  and  C_22
REMARK    6  A    between atoms: C_19  and  C_20
REMARK    7  A    between atoms: C_22  and  C_23
REMARK                            x       y       z     vdW  Elec       q    Type
REMARK                         _______ _______ _______ _____ _____    ______ ____
ROOT
ATOM      1  O   UNL     1       0.004  11.101  22.192  0.00  0.00    +0.000 OA
ATOM      2  C   UNL     1      -0.269  10.661  21.094  0.00  0.00    +0.000 C 
ATOM      3  O   UNL     1      -1.229  11.112  20.237  0.00  0.00    +0.000 OA
ATOM      4  C   UNL     1      -1.170  10.312  19.146  0.00  0.00    +0.000 C 
ATOM      5  N   UNL     1      -0.283   9.372  19.138  0.00  0.00    +0.000 NA
ATOM      6  C   UNL     1       0.336   9.525  20.349  0.00  0.00    +0.000 C 
ATOM      7  C   UNL     1       1.337   8.791  20.846  0.00  0.00    +0.000 C 
ENDROOT
BRANCH   4   8
ATOM      8  C   UNL     1      -2.156  10.588  18.090  0.00  0.00    +0.000 A 
ATOM      9  C   UNL     1      -3.247  11.435  18.306  0.00  0.00    +0.000 A 
ATOM     10  C   UNL     1      -4.181  11.638  17.287  0.00  0.00    +0.000 A 
ATOM     11  C   UNL     1      -4.026  10.997  16.057  0.00  0.00    +0.000 A 
ATOM     12  C   UNL     1      -2.931  10.165  15.835  0.00  0.00    +0.000 A 
ATOM     13  C   UNL     1      -1.994   9.962  16.848  0.00  0.00    +0.000 A 
ENDBRANCH   4   8
BRANCH   7  14
ATOM     14  C   UNL     1       1.942   7.684  20.104  0.00  0.00    +0.000 A 
ATOM     15  C   UNL     1       2.464   7.888  18.828  0.00  0.00    +0.000 A 
ATOM     16  C   UNL     1       3.012   6.818  18.101  0.00  0.00    +0.000 A 
ATOM     17  C   UNL     1       3.059   5.512  18.615  0.00  0.00    +0.000 A 
ATOM     18  C   UNL     1       2.539   5.347  19.914  0.00  0.00    +0.000 A 
ATOM     19  C   UNL     1       1.980   6.405  20.645  0.00  0.00    +0.000 A 
BRANCH  17  20
ATOM     20  N   UNL     1       3.550   4.441  17.873  0.00  0.00    +0.000 N 
BRANCH  20  21
ATOM     21  C   UNL     1       2.651   3.515  17.152  0.00  0.00    +0.000 C 
BRANCH  21  22
ATOM     22  C   UNL     1       2.228   2.282  17.961  0.00  0.00    +0.000 C 
ATOM     23 CL   UNL     1       3.601   1.221  18.372  0.00  0.00    +0.000 Cl
ENDBRANCH  21  22
ENDBRANCH  20  21
BRANCH  20  24
ATOM     24  C   UNL     1       4.993   4.327  17.568  0.00  0.00    +0.000 C 
BRANCH  24  25
ATOM     25  C   UNL     1       5.346   4.955  16.215  0.00  0.00    +0.000 C 
ATOM     26 CL   UNL     1       6.003   3.725  15.104  0.00  0.00    +0.000 Cl
ENDBRANCH  24  25
ENDBRANCH  20  24
ENDBRANCH  17  20
ENDBRANCH   7  14
TORSDOF 7
ENDMDL
MODEL 7
REMARK VINA RESULT:      -7.1      0.708      1.183
REMARK  Name = 
REMARK  7 active torsions:
REMARK  status: ('A' for Active; 'I' for Inactive)
REMARK    1  A    between atoms: C_4  and  C_5
REMARK    2  A    between atoms: C_13  and  C_14
REMARK    3  A    between atoms: C_17  and  N_18
REMARK    4  A    between atoms: N_18  and  C_19
REMARK    5  A    between atoms: N_18  and  C_22
REMARK    6  A    between atoms: C_19  and  C_20
REMARK    7  A    between atoms: C_22  and  C_23
REMARK                            x       y       z     vdW  Elec       q    Type
REMARK                         _______ _______ _______ _____ _____    ______ ____
ROOT
ATOM      1  O   UNL     1      -0.037  11.698  21.943  0.00  0.00    +0.000 OA
ATOM      2  C   UNL     1      -0.346  11.107  20.928  0.00  0.00    +0.000 C 
ATOM      3  O   UNL     1      -1.276  11.482  20.004  0.00  0.00    +0.000 OA
ATOM      4  C   UNL     1      -1.280  10.514  19.056  0.00  0.00    +0.000 C 
ATOM      5  N   UNL     1      -0.463   9.525  19.204  0.00  0.00    +0.000 NA
ATOM      6  C   UNL     1       0.173   9.826  20.379  0.00  0.00    +0.000 C 
ATOM      7  C   UNL     1       1.122   9.113  20.993  0.00  0.00    +0.000 C 
ENDROOT
BRANCH   4   8
ATOM      8  C   UNL     1      -2.250  10.686  17.964  0.00  0.00    +0.000 A 
ATOM      9  C   UNL     1      -3.378  11.501  18.103  0.00  0.00    +0.000 A 
ATOM     10  C   UNL     1      -4.293  11.603  17.053  0.00  0.00    +0.000 A 
ATOM     11  C   UNL     1      -4.084  10.896  15.868  0.00  0.00    +0.000 A 
ATOM     12  C   UNL     1      -2.953  10.096  15.722  0.00  0.00    +0.000 A 
ATOM     13  C   UNL     1      -2.033   9.993  16.766  0.00  0.00    +0.000 A 
ENDBRANCH   4   8
BRANCH   7  14
ATOM     14  C   UNL     1       1.643   7.861  20.443  0.00  0.00    +0.000 A 
ATOM     15  C   UNL     1       2.301   7.846  19.215  0.00  0.00    +0.000 A 
ATOM     16  C   UNL     1       2.769   6.639  18.670  0.00  0.00    +0.000 A 
ATOM     17  C   UNL     1       2.598   5.408  19.323  0.00  0.00    +0.000 A 
ATOM     18  C   UNL     1       1.945   5.464  20.569  0.00  0.00    +0.000 A 
ATOM     19  C   UNL     1       1.463   6.660  21.119  0.00  0.00    +0.000 A 
BRANCH  17  20
ATOM     20  N   UNL     1       3.011   4.205  18.756  0.00  0.00    +0.000 N 
BRANCH  20  21
ATOM     21  C   UNL     1       3.143   2.971  19.558  0.00  0.00    +0.000 C 
BRANCH  21  22
ATOM     22  C   UNL     1       1.809   2.347  19.988  0.00  0.00    +0.000 C 
ATOM     23 CL   UNL     1       0.595   2.345  18.683  0.00  0.00    +0.000 Cl
ENDBRANCH  21  22
ENDBRANCH  20  21
BRANCH  20  24
ATOM     24  C   UNL     1       3.097   4.047  17.288  0.00  0.00    +0.000 C 
BRANCH  24  25
ATOM     25  C   UNL     1       4.547   3.941  16.804  0.00  0.00    +0.000 C 
ATOM     26 CL   UNL     1       5.071   5.469  16.049  0.00  0.00    +0.000 Cl
ENDBRANCH  24  25
ENDBRANCH  20  24
ENDBRANCH  17  20
ENDBRANCH   7  14
TORSDOF 7
ENDMDL
MODEL 8
REMARK VINA RESULT:      -6.9      1.311      1.660
REMARK  Name = 
REMARK  7 active torsions:
REMARK  status: ('A' for Active; 'I' for Inactive)
REMARK    1  A    between atoms: C_4  and  C_5
REMARK    2  A    between atoms: C_13  and  C_14
REMARK    3  A    between atoms: C_17  and  N_18
REMARK    4  A    between atoms: N_18  and  C_19
REMARK    5  A    between atoms: N_18  and  C_22
REMARK    6  A    between atoms: C_19  and  C_20
REMARK    7  A    between atoms: C_22  and  C_23
REMARK                            x       y       z     vdW  Elec       q    Type
REMARK                         _______ _______ _______ _____ _____    ______ ____
ROOT
ATOM      1  O   UNL     1       0.680  12.388  21.233  0.00  0.00    +0.000 OA
ATOM      2  C   UNL     1       0.119  11.707  20.400  0.00  0.00    +0.000 C 
ATOM      3  O   UNL     1      -0.981  12.038  19.665  0.00  0.00    +0.000 OA
ATOM      4  C   UNL     1      -1.247  10.968  18.878  0.00  0.00    +0.000 C 
ATOM      5  N   UNL     1      -0.463   9.945  18.969  0.00  0.00    +0.000 NA
ATOM      6  C   UNL     1       0.439  10.335  19.922  0.00  0.00    +0.000 C 
ATOM      7  C   UNL     1       1.470   9.631  20.398  0.00  0.00    +0.000 C 
ENDROOT
BRANCH   4   8
ATOM      8  C   UNL     1      -2.433  11.082  18.015  0.00  0.00    +0.000 A 
ATOM      9  C   UNL     1      -3.640  11.605  18.490  0.00  0.00    +0.000 A 
ATOM     10  C   UNL     1      -4.753  11.657  17.647  0.00  0.00    +0.000 A 
ATOM     11  C   UNL     1      -4.662  11.188  16.336  0.00  0.00    +0.000 A 
ATOM     12  C   UNL     1      -3.457  10.680  15.857  0.00  0.00    +0.000 A 
ATOM     13  C   UNL     1      -2.341  10.629  16.693  0.00  0.00    +0.000 A 
ENDBRANCH   4   8
BRANCH   7  14
ATOM     14  C   UNL     1       1.793   8.288  19.915  0.00  0.00    +0.000 A 
ATOM     15  C   UNL     1       2.223   8.090  18.605  0.00  0.00    +0.000 A 
ATOM     16  C   UNL     1       2.498   6.797  18.131  0.00  0.00    +0.000 A 
ATOM     17  C   UNL     1       2.354   5.658  18.939  0.00  0.00    +0.000 A 
ATOM     18  C   UNL     1       1.936   5.897  20.262  0.00  0.00    +0.000 A 
ATOM     19  C   UNL     1       1.647   7.182  20.745  0.00  0.00    +0.000 A 
BRANCH  17  20
ATOM     20  N   UNL     1       2.572   4.372  18.453  0.00  0.00    +0.000 N 
BRANCH  20  21
ATOM     21  C   UNL     1       1.454   3.462  18.126  0.00  0.00    +0.000 C 
BRANCH  21  22
ATOM     22  C   UNL     1       0.811   2.783  19.342  0.00  0.00    +0.000 C 
ATOM     23 CL   UNL     1       2.006   2.292  20.570  0.00  0.00    +0.000 Cl
ENDBRANCH  21  22
ENDBRANCH  20  21
BRANCH  20  24
ATOM     24  C   UNL     1       3.917   3.946  18.007  0.00  0.00    +0.000 C 
BRANCH  24  25
ATOM     25  C   UNL     1       4.921   3.907  19.164  0.00  0.00    +0.000 C 
ATOM     26 CL   UNL     1       5.956   5.359  19.146  0.00  0.00    +0.000 Cl
ENDBRANCH  24  25
ENDBRANCH  20  24
ENDBRANCH  17  20
ENDBRANCH   7  14
TORSDOF 7
ENDMDL
MODEL 9
REMARK VINA RESULT:      -6.9      1.061      1.438
REMARK  Name = 
REMARK  7 active torsions:
REMARK  status: ('A' for Active; 'I' for Inactive)
REMARK    1  A    between atoms: C_4  and  C_5
REMARK    2  A    between atoms: C_13  and  C_14
REMARK    3  A    between atoms: C_17  and  N_18
REMARK    4  A    between atoms: N_18  and  C_19
REMARK    5  A    between atoms: N_18  and  C_22
REMARK    6  A    between atoms: C_19  and  C_20
REMARK    7  A    between atoms: C_22  and  C_23
REMARK                            x       y       z     vdW  Elec       q    Type
REMARK                         _______ _______ _______ _____ _____    ______ ____
ROOT
ATOM      1  O   UNL     1      -0.004  11.496  22.080  0.00  0.00    +0.000 OA
ATOM      2  C   UNL     1      -0.360  11.037  21.014  0.00  0.00    +0.000 C 
ATOM      3  O   UNL     1      -1.388  11.470  20.229  0.00  0.00    +0.000 OA
ATOM      4  C   UNL     1      -1.411  10.652  19.150  0.00  0.00    +0.000 C 
ATOM      5  N   UNL     1      -0.521   9.717  19.086  0.00  0.00    +0.000 NA
ATOM      6  C   UNL     1       0.192   9.893  20.241  0.00  0.00    +0.000 C 
ATOM      7  C   UNL     1       1.234   9.173  20.668  0.00  0.00    +0.000 C 
ENDROOT
BRANCH   4   8
ATOM      8  C   UNL     1      -2.479  10.906  18.172  0.00  0.00    +0.000 A 
ATOM      9  C   UNL     1      -2.344  10.547  16.827  0.00  0.00    +0.000 A 
ATOM     10  C   UNL     1      -3.368  10.843  15.924  0.00  0.00    +0.000 A 
ATOM     11  C   UNL     1      -4.522  11.495  16.361  0.00  0.00    +0.000 A 
ATOM     12  C   UNL     1      -4.664  11.840  17.704  0.00  0.00    +0.000 A 
ATOM     13  C   UNL     1      -3.646  11.543  18.610  0.00  0.00    +0.000 A 
ENDBRANCH   4   8
BRANCH   7  14
ATOM     14  C   UNL     1       1.786   8.058  19.898  0.00  0.00    +0.000 A 
ATOM     15  C   UNL     1       1.855   6.780  20.450  0.00  0.00    +0.000 A 
ATOM     16  C   UNL     1       2.419   5.718  19.724  0.00  0.00    +0.000 A 
ATOM     17  C   UNL     1       2.933   5.888  18.429  0.00  0.00    +0.000 A 
ATOM     18  C   UNL     1       2.829   7.187  17.896  0.00  0.00    +0.000 A 
ATOM     19  C   UNL     1       2.279   8.259  18.614  0.00  0.00    +0.000 A 
BRANCH  17  20
ATOM     20  N   UNL     1       3.542   4.848  17.731  0.00  0.00    +0.000 N 
BRANCH  20  21
ATOM     21  C   UNL     1       2.786   3.658  17.289  0.00  0.00    +0.000 C 
BRANCH  21  22
ATOM     22  C   UNL     1       2.511   2.633  18.397  0.00  0.00    +0.000 C 
ATOM     23 CL   UNL     1       3.662   1.272  18.380  0.00  0.00    +0.000 Cl
ENDBRANCH  21  22
ENDBRANCH  20  21
BRANCH  20  24
ATOM     24  C   UNL     1       4.909   4.998  17.186  0.00  0.00    +0.000 C 
BRANCH  24  25
ATOM     25  C   UNL     1       5.955   5.173  18.293  0.00  0.00    +0.000 C 
ATOM     26 CL   UNL     1       7.541   4.555  17.762  0.00  0.00    +0.000 Cl
ENDBRANCH  24  25
ENDBRANCH  20  24
ENDBRANCH  17  20
ENDBRANCH   7  14
TORSDOF 7
ENDMDL
