MODEL 1
REMARK VINA RESULT:      -8.0      0.000      0.000
REMARK  Name = 
REMARK  9 active torsions:
REMARK  status: ('A' for Active; 'I' for Inactive)
REMARK    1  A    between atoms: C_1  and  C_2
REMARK    2  A    between atoms: C_4  and  C_5
REMARK    3  A    between atoms: N_7  and  C_8
REMARK    4  A    between atoms: C_16  and  C_17
REMARK    5  A    between atoms: C_17  and  N_18
REMARK    6  A    between atoms: N_18  and  C_19
REMARK    7  A    between atoms: C_19  and  C_20
REMARK    8  A    between atoms: C_20  and  C_21
REMARK    9  A    between atoms: C_26  and  C_27
REMARK                            x       y       z     vdW  Elec       q    Type
REMARK                         _______ _______ _______ _____ _____    ______ ____
ROOT
ATOM      1  C   UNL     1       4.521   5.648  17.677  0.00  0.00    +0.000 A 
ATOM      2  N   UNL     1       3.579   6.601  17.685  0.00  0.00    +0.000 NA
ATOM      3  N   UNL     1       3.173   6.675  18.977  0.00  0.00    +0.000 N 
ATOM      4  C   UNL     1       3.770   5.714  19.749  0.00  0.00    +0.000 A 
ATOM      5  C   UNL     1       4.601   4.978  18.933  0.00  0.00    +0.000 A 
ENDROOT
BRANCH   1   9
ATOM      6  C   UNL     1       5.542   3.577  13.116  0.00  0.00    +0.000 C 
ATOM      7  C   UNL     1       5.738   4.335  14.384  0.00  0.00    +0.000 A 
ATOM      8  C   UNL     1       4.872   4.445  15.449  0.00  0.00    +0.000 A 
ATOM      9  C   UNL     1       5.341   5.323  16.484  0.00  0.00    +0.000 A 
ATOM     10  C   UNL     1       6.634   5.743  16.216  0.00  0.00    +0.000 A 
ATOM     11  C   UNL     1       7.571   6.578  17.022  0.00  0.00    +0.000 C 
ATOM     12  S   UNL     1       7.180   5.191  14.678  0.00  0.00    +0.000 S 
ENDBRANCH   1   9
BRANCH   3  13
ATOM     13  C   UNL     1       2.176   7.581  19.399  0.00  0.00    +0.000 A 
ATOM     14  C   UNL     1       1.607   7.450  20.672  0.00  0.00    +0.000 A 
ATOM     15  C   UNL     1       0.712   8.420  21.131  0.00  0.00    +0.000 A 
ATOM     16  C   UNL     1       0.346   9.489  20.308  0.00  0.00    +0.000 A 
ATOM     17  C   UNL     1       0.874   9.590  19.023  0.00  0.00    +0.000 A 
ATOM     18  C   UNL     1       1.793   8.646  18.579  0.00  0.00    +0.000 A 
ATOM     19  F   UNL     1       2.251   8.765  17.324  0.00  0.00    +0.000 F 
ENDBRANCH   3  13
BRANCH   5  20
ATOM     20  C   UNL     1       5.400   3.775  19.278  0.00  0.00    +0.000 C 
BRANCH  20  21
ATOM     21  N   UNL     1       4.552   2.595  19.445  0.00  0.00    +0.000 NA
ATOM     22  H   UNL     1       3.773   2.841  20.055  0.00  0.00    +0.000 HD
BRANCH  21  23
ATOM     23  C   UNL     1       4.011   2.159  18.148  0.00  0.00    +0.000 C 
BRANCH  23  24
ATOM     24  C   UNL     1       2.513   1.819  18.174  0.00  0.00    +0.000 C 
BRANCH  24  25
ATOM     25  C   UNL     1       1.808   2.569  19.241  0.00  0.00    +0.000 A 
ATOM     26  C   UNL     1       1.007   3.683  19.140  0.00  0.00    +0.000 A 
ATOM     27  N   UNL     1       0.619   3.956  20.421  0.00  0.00    +0.000 N 
ATOM     28  C   UNL     1       1.182   3.017  21.234  0.00  0.00    +0.000 A 
ATOM     29  N   UNL     1       1.908   2.164  20.550  0.00  0.00    +0.000 NA
ATOM     30  H   UNL     1       0.017   4.711  20.719  0.00  0.00    +0.000 HD
ENDBRANCH  24  25
ENDBRANCH  23  24
ENDBRANCH  21  23
ENDBRANCH  20  21
ENDBRANCH   5  20
TORSDOF 7
ENDMDL
MODEL 2
REMARK VINA RESULT:      -7.4      1.229      1.683
REMARK  Name = 
REMARK  9 active torsions:
REMARK  status: ('A' for Active; 'I' for Inactive)
REMARK    1  A    between atoms: C_1  and  C_2
REMARK    2  A    between atoms: C_4  and  C_5
REMARK    3  A    between atoms: N_7  and  C_8
REMARK    4  A    between atoms: C_16  and  C_17
REMARK    5  A    between atoms: C_17  and  N_18
REMARK    6  A    between atoms: N_18  and  C_19
REMARK    7  A    between atoms: C_19  and  C_20
REMARK    8  A    between atoms: C_20  and  C_21
REMARK    9  A    between atoms: C_26  and  C_27
REMARK                            x       y       z     vdW  Elec       q    Type
REMARK                         _______ _______ _______ _____ _____    ______ ____
ROOT
ATOM      1  C   UNL     1       4.398   5.679  17.116  0.00  0.00    +0.000 A 
ATOM      2  N   UNL     1       3.799   6.877  17.175  0.00  0.00    +0.000 NA
ATOM      3  N   UNL     1       3.070   6.842  18.318  0.00  0.00    +0.000 N 
ATOM      4  C   UNL     1       3.122   5.610  18.913  0.00  0.00    +0.000 A 
ATOM      5  C   UNL     1       3.916   4.801  18.130  0.00  0.00    +0.000 A 
ENDROOT
BRANCH   1   9
ATOM      6  C   UNL     1       6.147   3.574  12.798  0.00  0.00    +0.000 C 
ATOM      7  C   UNL     1       6.139   4.322  14.087  0.00  0.00    +0.000 A 
ATOM      8  C   UNL     1       5.100   4.466  14.979  0.00  0.00    +0.000 A 
ATOM      9  C   UNL     1       5.407   5.324  16.088  0.00  0.00    +0.000 A 
ATOM     10  C   UNL     1       6.743   5.692  16.062  0.00  0.00    +0.000 A 
ATOM     11  C   UNL     1       7.550   6.490  17.030  0.00  0.00    +0.000 C 
ATOM     12  S   UNL     1       7.536   5.121  14.643  0.00  0.00    +0.000 S 
ENDBRANCH   1   9
BRANCH   3  13
ATOM     13  C   UNL     1       2.286   7.938  18.742  0.00  0.00    +0.000 A 
ATOM     14  C   UNL     1       2.038   8.999  17.863  0.00  0.00    +0.000 A 
ATOM     15  C   UNL     1       1.163  10.021  18.244  0.00  0.00    +0.000 A 
ATOM     16  C   UNL     1       0.577  10.011  19.513  0.00  0.00    +0.000 A 
ATOM     17  C   UNL     1       0.866   8.982  20.405  0.00  0.00    +0.000 A 
ATOM     18  C   UNL     1       1.707   7.946  20.013  0.00  0.00    +0.000 A 
ATOM     19  F   UNL     1       1.982   6.992  20.915  0.00  0.00    +0.000 F 
ENDBRANCH   3  13
BRANCH   5  20
ATOM     20  C   UNL     1       4.212   3.356  18.304  0.00  0.00    +0.000 C 
BRANCH  20  21
ATOM     21  N   UNL     1       5.010   3.111  19.506  0.00  0.00    +0.000 NA
ATOM     22  H   UNL     1       4.907   3.911  20.129  0.00  0.00    +0.000 HD
BRANCH  21  23
ATOM     23  C   UNL     1       4.532   1.908  20.206  0.00  0.00    +0.000 C 
BRANCH  23  24
ATOM     24  C   UNL     1       3.433   2.180  21.245  0.00  0.00    +0.000 C 
BRANCH  24  25
ATOM     25  C   UNL     1       2.155   2.553  20.594  0.00  0.00    +0.000 A 
ATOM     26  C   UNL     1       1.218   3.482  20.982  0.00  0.00    +0.000 A 
ATOM     27  N   UNL     1       0.243   3.420  20.028  0.00  0.00    +0.000 N 
ATOM     28  C   UNL     1       0.617   2.479  19.113  0.00  0.00    +0.000 A 
ATOM     29  N   UNL     1       1.769   1.935  19.429  0.00  0.00    +0.000 NA
ATOM     30  H   UNL     1      -0.602   3.973  19.994  0.00  0.00    +0.000 HD
ENDBRANCH  24  25
ENDBRANCH  23  24
ENDBRANCH  21  23
ENDBRANCH  20  21
ENDBRANCH   5  20
TORSDOF 7
ENDMDL
MODEL 3
REMARK VINA RESULT:      -7.3      0.947      1.318
REMARK  Name = 
REMARK  9 active torsions:
REMARK  status: ('A' for Active; 'I' for Inactive)
REMARK    1  A    between atoms: C_1  and  C_2
REMARK    2  A    between atoms: C_4  and  C_5
REMARK    3  A    between atoms: N_7  and  C_8
REMARK    4  A    between atoms: C_16  and  C_17
REMARK    5  A    between atoms: C_17  and  N_18
REMARK    6  A    between atoms: N_18  and  C_19
REMARK    7  A    between atoms: C_19  and  C_20
REMARK    8  A    between atoms: C_20  and  C_21
REMARK    9  A    between atoms: C_26  and  C_27
REMARK                            x       y       z     vdW  Elec       q    Type
REMARK                         _______ _______ _______ _____ _____    ______ ____
ROOT
ATOM      1  C   UNL     1       4.392   5.815  17.553  0.00  0.00    +0.000 A 
ATOM      2  N   UNL     1       3.591   6.885  17.462  0.00  0.00    +0.000 NA
ATOM      3  N   UNL     1       3.016   6.991  18.686  0.00  0.00    +0.000 N 
ATOM      4  C   UNL     1       3.363   5.946  19.499  0.00  0.00    +0.000 A 
ATOM      5  C   UNL     1       4.201   5.119  18.783  0.00  0.00    +0.000 A 
ENDROOT
BRANCH   1   9
ATOM      6  C   UNL     1       5.798   3.630  13.150  0.00  0.00    +0.000 C 
ATOM      7  C   UNL     1       5.899   4.370  14.440  0.00  0.00    +0.000 A 
ATOM      8  C   UNL     1       4.914   4.573  15.382  0.00  0.00    +0.000 A 
ATOM      9  C   UNL     1       5.327   5.404  16.477  0.00  0.00    +0.000 A 
ATOM     10  C   UNL     1       6.680   5.689  16.387  0.00  0.00    +0.000 A 
ATOM     11  C   UNL     1       7.580   6.430  17.318  0.00  0.00    +0.000 C 
ATOM     12  S   UNL     1       7.368   5.078  14.930  0.00  0.00    +0.000 S 
ENDBRANCH   1   9
BRANCH   3  13
ATOM     13  C   UNL     1       2.095   8.016  18.996  0.00  0.00    +0.000 A 
ATOM     14  C   UNL     1       1.723   8.940  18.012  0.00  0.00    +0.000 A 
ATOM     15  C   UNL     1       0.721   9.876  18.288  0.00  0.00    +0.000 A 
ATOM     16  C   UNL     1       0.129   9.923  19.553  0.00  0.00    +0.000 A 
ATOM     17  C   UNL     1       0.537   9.037  20.546  0.00  0.00    +0.000 A 
ATOM     18  C   UNL     1       1.507   8.082  20.261  0.00  0.00    +0.000 A 
ATOM     19  F   UNL     1       1.892   7.269  21.257  0.00  0.00    +0.000 F 
ENDBRANCH   3  13
BRANCH   5  20
ATOM     20  C   UNL     1       4.778   3.814  19.193  0.00  0.00    +0.000 C 
BRANCH  20  21
ATOM     21  N   UNL     1       4.717   2.833  18.109  0.00  0.00    +0.000 NA
ATOM     22  H   UNL     1       5.663   2.502  17.922  0.00  0.00    +0.000 HD
BRANCH  21  23
ATOM     23  C   UNL     1       3.887   1.682  18.498  0.00  0.00    +0.000 C 
BRANCH  23  24
ATOM     24  C   UNL     1       2.390   1.857  18.202  0.00  0.00    +0.000 C 
BRANCH  24  25
ATOM     25  C   UNL     1       1.697   2.549  19.314  0.00  0.00    +0.000 A 
ATOM     26  C   UNL     1       0.715   3.511  19.265  0.00  0.00    +0.000 A 
ATOM     27  N   UNL     1       0.436   3.799  20.571  0.00  0.00    +0.000 N 
ATOM     28  C   UNL     1       1.239   3.017  21.348  0.00  0.00    +0.000 A 
ATOM     29  N   UNL     1       2.015   2.251  20.617  0.00  0.00    +0.000 NA
ATOM     30  H   UNL     1      -0.245   4.465  20.908  0.00  0.00    +0.000 HD
ENDBRANCH  24  25
ENDBRANCH  23  24
ENDBRANCH  21  23
ENDBRANCH  20  21
ENDBRANCH   5  20
TORSDOF 7
ENDMDL
MODEL 4
REMARK VINA RESULT:      -7.3      2.337      4.924
REMARK  Name = 
REMARK  9 active torsions:
REMARK  status: ('A' for Active; 'I' for Inactive)
REMARK    1  A    between atoms: C_1  and  C_2
REMARK    2  A    between atoms: C_4  and  C_5
REMARK    3  A    between atoms: N_7  and  C_8
REMARK    4  A    between atoms: C_16  and  C_17
REMARK    5  A    between atoms: C_17  and  N_18
REMARK    6  A    between atoms: N_18  and  C_19
REMARK    7  A    between atoms: C_19  and  C_20
REMARK    8  A    between atoms: C_20  and  C_21
REMARK    9  A    between atoms: C_26  and  C_27
REMARK                            x       y       z     vdW  Elec       q    Type
REMARK                         _______ _______ _______ _____ _____    ______ ____
ROOT
ATOM      1  C   UNL     1       3.028   5.770  18.936  0.00  0.00    +0.000 A 
ATOM      2  N   UNL     1       2.272   6.380  19.860  0.00  0.00    +0.000 NA
ATOM      3  N   UNL     1       2.112   7.645  19.395  0.00  0.00    +0.000 N 
ATOM      4  C   UNL     1       2.842   7.860  18.256  0.00  0.00    +0.000 A 
ATOM      5  C   UNL     1       3.509   6.691  17.959  0.00  0.00    +0.000 A 
ENDROOT
BRANCH   1   9
ATOM      6  C   UNL     1       5.039   1.455  20.800  0.00  0.00    +0.000 C 
ATOM      7  C   UNL     1       4.303   2.377  19.889  0.00  0.00    +0.000 A 
ATOM      8  C   UNL     1       4.199   3.748  19.970  0.00  0.00    +0.000 A 
ATOM      9  C   UNL     1       3.343   4.321  18.970  0.00  0.00    +0.000 A 
ATOM     10  C   UNL     1       2.935   3.353  18.067  0.00  0.00    +0.000 A 
ATOM     11  C   UNL     1       2.123   3.467  16.821  0.00  0.00    +0.000 C 
ATOM     12  S   UNL     1       3.468   1.781  18.529  0.00  0.00    +0.000 S 
ENDBRANCH   1   9
BRANCH   3  13
ATOM     13  C   UNL     1       1.359   8.612  20.096  0.00  0.00    +0.000 A 
ATOM     14  C   UNL     1       1.299   8.570  21.494  0.00  0.00    +0.000 A 
ATOM     15  C   UNL     1       0.655   9.599  22.188  0.00  0.00    +0.000 A 
ATOM     16  C   UNL     1       0.032  10.637  21.491  0.00  0.00    +0.000 A 
ATOM     17  C   UNL     1       0.049  10.650  20.099  0.00  0.00    +0.000 A 
ATOM     18  C   UNL     1       0.721   9.647  19.409  0.00  0.00    +0.000 A 
ATOM     19  F   UNL     1       0.685   9.682  18.068  0.00  0.00    +0.000 F 
ENDBRANCH   3  13
BRANCH   5  20
ATOM     20  C   UNL     1       4.490   6.441  16.873  0.00  0.00    +0.000 C 
BRANCH  20  21
ATOM     21  N   UNL     1       5.838   6.860  17.258  0.00  0.00    +0.000 NA
ATOM     22  H   UNL     1       5.772   7.766  17.722  0.00  0.00    +0.000 HD
BRANCH  21  23
ATOM     23  C   UNL     1       6.431   5.896  18.197  0.00  0.00    +0.000 C 
BRANCH  23  24
ATOM     24  C   UNL     1       7.423   4.917  17.551  0.00  0.00    +0.000 C 
BRANCH  24  25
ATOM     25  C   UNL     1       7.028   4.587  16.161  0.00  0.00    +0.000 A 
ATOM     26  C   UNL     1       6.201   3.588  15.704  0.00  0.00    +0.000 A 
ATOM     27  N   UNL     1       6.184   3.737  14.346  0.00  0.00    +0.000 N 
ATOM     28  C   UNL     1       6.981   4.800  14.035  0.00  0.00    +0.000 A 
ATOM     29  N   UNL     1       7.508   5.334  15.112  0.00  0.00    +0.000 NA
ATOM     30  H   UNL     1       5.670   3.171  13.685  0.00  0.00    +0.000 HD
ENDBRANCH  24  25
ENDBRANCH  23  24
ENDBRANCH  21  23
ENDBRANCH  20  21
ENDBRANCH   5  20
TORSDOF 7
ENDMDL
MODEL 5
REMARK VINA RESULT:      -7.2      1.498      1.854
REMARK  Name = 
REMARK  9 active torsions:
REMARK  status: ('A' for Active; 'I' for Inactive)
REMARK    1  A    between atoms: C_1  and  C_2
REMARK    2  A    between atoms: C_4  and  C_5
REMARK    3  A    between atoms: N_7  and  C_8
REMARK    4  A    between atoms: C_16  and  C_17
REMARK    5  A    between atoms: C_17  and  N_18
REMARK    6  A    between atoms: N_18  and  C_19
REMARK    7  A    between atoms: C_19  and  C_20
REMARK    8  A    between atoms: C_20  and  C_21
REMARK    9  A    between atoms: C_26  and  C_27
REMARK                            x       y       z     vdW  Elec       q    Type
REMARK                         _______ _______ _______ _____ _____    ______ ____
ROOT
ATOM      1  C   UNL     1       3.711   5.846  17.684  0.00  0.00    +0.000 A 
ATOM      2  N   UNL     1       3.523   7.065  18.207  0.00  0.00    +0.000 NA
ATOM      3  N   UNL     1       2.278   7.023  18.744  0.00  0.00    +0.000 N 
ATOM      4  C   UNL     1       1.651   5.836  18.471  0.00  0.00    +0.000 A 
ATOM      5  C   UNL     1       2.517   5.067  17.725  0.00  0.00    +0.000 A 
ENDROOT
BRANCH   1   9
ATOM      6  C   UNL     1       6.994   4.572  13.978  0.00  0.00    +0.000 C 
ATOM      7  C   UNL     1       6.455   4.821  15.345  0.00  0.00    +0.000 A 
ATOM      8  C   UNL     1       5.165   5.145  15.702  0.00  0.00    +0.000 A 
ATOM      9  C   UNL     1       5.002   5.398  17.106  0.00  0.00    +0.000 A 
ATOM     10  C   UNL     1       6.173   5.114  17.790  0.00  0.00    +0.000 A 
ATOM     11  C   UNL     1       6.474   5.133  19.251  0.00  0.00    +0.000 C 
ATOM     12  S   UNL     1       7.456   4.698  16.717  0.00  0.00    +0.000 S 
ENDBRANCH   1   9
BRANCH   3  13
ATOM     13  C   UNL     1       1.706   8.134  19.402  0.00  0.00    +0.000 A 
ATOM     14  C   UNL     1       1.470   8.081  20.781  0.00  0.00    +0.000 A 
ATOM     15  C   UNL     1       1.020   9.225  21.448  0.00  0.00    +0.000 A 
ATOM     16  C   UNL     1       0.758  10.398  20.737  0.00  0.00    +0.000 A 
ATOM     17  C   UNL     1       0.945  10.434  19.358  0.00  0.00    +0.000 A 
ATOM     18  C   UNL     1       1.428   9.308  18.699  0.00  0.00    +0.000 A 
ATOM     19  F   UNL     1       1.563   9.377  17.366  0.00  0.00    +0.000 F 
ENDBRANCH   3  13
BRANCH   5  20
ATOM     20  C   UNL     1       2.273   3.736  17.113  0.00  0.00    +0.000 C 
BRANCH  20  21
ATOM     21  N   UNL     1       2.321   2.668  18.112  0.00  0.00    +0.000 NA
ATOM     22  H   UNL     1       1.680   1.929  17.823  0.00  0.00    +0.000 HD
BRANCH  21  23
ATOM     23  C   UNL     1       3.677   2.103  18.200  0.00  0.00    +0.000 C 
BRANCH  23  24
ATOM     24  C   UNL     1       4.264   2.097  19.620  0.00  0.00    +0.000 C 
BRANCH  24  25
ATOM     25  C   UNL     1       3.315   2.676  20.599  0.00  0.00    +0.000 A 
ATOM     26  C   UNL     1       2.494   2.038  21.500  0.00  0.00    +0.000 A 
ATOM     27  N   UNL     1       1.836   3.042  22.151  0.00  0.00    +0.000 N 
ATOM     28  C   UNL     1       2.274   4.227  21.637  0.00  0.00    +0.000 A 
ATOM     29  N   UNL     1       3.169   4.039  20.695  0.00  0.00    +0.000 NA
ATOM     30  H   UNL     1       1.152   2.935  22.887  0.00  0.00    +0.000 HD
ENDBRANCH  24  25
ENDBRANCH  23  24
ENDBRANCH  21  23
ENDBRANCH  20  21
ENDBRANCH   5  20
TORSDOF 7
ENDMDL
MODEL 6
REMARK VINA RESULT:      -7.2      2.573      5.156
REMARK  Name = 
REMARK  9 active torsions:
REMARK  status: ('A' for Active; 'I' for Inactive)
REMARK    1  A    between atoms: C_1  and  C_2
REMARK    2  A    between atoms: C_4  and  C_5
REMARK    3  A    between atoms: N_7  and  C_8
REMARK    4  A    between atoms: C_16  and  C_17
REMARK    5  A    between atoms: C_17  and  N_18
REMARK    6  A    between atoms: N_18  and  C_19
REMARK    7  A    between atoms: C_19  and  C_20
REMARK    8  A    between atoms: C_20  and  C_21
REMARK    9  A    between atoms: C_26  and  C_27
REMARK                            x       y       z     vdW  Elec       q    Type
REMARK                         _______ _______ _______ _____ _____    ______ ____
ROOT
ATOM      1  C   UNL     1       2.851   6.093  18.805  0.00  0.00    +0.000 A 
ATOM      2  N   UNL     1       2.090   6.827  19.629  0.00  0.00    +0.000 NA
ATOM      3  N   UNL     1       2.081   8.067  19.078  0.00  0.00    +0.000 N 
ATOM      4  C   UNL     1       2.907   8.140  17.988  0.00  0.00    +0.000 A 
ATOM      5  C   UNL     1       3.483   6.900  17.815  0.00  0.00    +0.000 A 
ENDROOT
BRANCH   1   9
ATOM      6  C   UNL     1       4.917   1.778  20.610  0.00  0.00    +0.000 C 
ATOM      7  C   UNL     1       4.033   2.685  19.823  0.00  0.00    +0.000 A 
ATOM      8  C   UNL     1       4.084   4.058  19.739  0.00  0.00    +0.000 A 
ATOM      9  C   UNL     1       3.027   4.627  18.951  0.00  0.00    +0.000 A 
ATOM     10  C   UNL     1       2.283   3.628  18.343  0.00  0.00    +0.000 A 
ATOM     11  C   UNL     1       1.153   3.713  17.373  0.00  0.00    +0.000 C 
ATOM     12  S   UNL     1       2.782   2.059  18.850  0.00  0.00    +0.000 S 
ENDBRANCH   1   9
BRANCH   3  13
ATOM     13  C   UNL     1       1.373   9.141  19.659  0.00  0.00    +0.000 A 
ATOM     14  C   UNL     1       0.953  10.212  18.861  0.00  0.00    +0.000 A 
ATOM     15  C   UNL     1       0.147  11.211  19.416  0.00  0.00    +0.000 A 
ATOM     16  C   UNL     1      -0.196  11.170  20.770  0.00  0.00    +0.000 A 
ATOM     17  C   UNL     1       0.266  10.131  21.574  0.00  0.00    +0.000 A 
ATOM     18  C   UNL     1       1.036   9.117  21.014  0.00  0.00    +0.000 A 
ATOM     19  F   UNL     1       1.485   8.153  21.833  0.00  0.00    +0.000 F 
ENDBRANCH   3  13
BRANCH   5  20
ATOM     20  C   UNL     1       4.512   6.493  16.825  0.00  0.00    +0.000 C 
BRANCH  20  21
ATOM     21  N   UNL     1       5.848   6.937  17.224  0.00  0.00    +0.000 NA
ATOM     22  H   UNL     1       5.763   7.847  17.676  0.00  0.00    +0.000 HD
BRANCH  21  23
ATOM     23  C   UNL     1       6.441   5.992  18.183  0.00  0.00    +0.000 C 
BRANCH  23  24
ATOM     24  C   UNL     1       7.431   4.997  17.557  0.00  0.00    +0.000 C 
BRANCH  24  25
ATOM     25  C   UNL     1       7.029   4.632  16.178  0.00  0.00    +0.000 A 
ATOM     26  C   UNL     1       6.185   3.633  15.751  0.00  0.00    +0.000 A 
ATOM     27  N   UNL     1       6.168   3.742  14.390  0.00  0.00    +0.000 N 
ATOM     28  C   UNL     1       6.981   4.782  14.047  0.00  0.00    +0.000 A 
ATOM     29  N   UNL     1       7.518   5.341  15.106  0.00  0.00    +0.000 NA
ATOM     30  H   UNL     1       5.645   3.164  13.747  0.00  0.00    +0.000 HD
ENDBRANCH  24  25
ENDBRANCH  23  24
ENDBRANCH  21  23
ENDBRANCH  20  21
ENDBRANCH   5  20
TORSDOF 7
ENDMDL
MODEL 7
REMARK VINA RESULT:      -7.1      4.590      8.512
REMARK  Name = 
REMARK  9 active torsions:
REMARK  status: ('A' for Active; 'I' for Inactive)
REMARK    1  A    between atoms: C_1  and  C_2
REMARK    2  A    between atoms: C_4  and  C_5
REMARK    3  A    between atoms: N_7  and  C_8
REMARK    4  A    between atoms: C_16  and  C_17
REMARK    5  A    between atoms: C_17  and  N_18
REMARK    6  A    between atoms: N_18  and  C_19
REMARK    7  A    between atoms: C_19  and  C_20
REMARK    8  A    between atoms: C_20  and  C_21
REMARK    9  A    between atoms: C_26  and  C_27
REMARK                            x       y       z     vdW  Elec       q    Type
REMARK                         _______ _______ _______ _____ _____    ______ ____
ROOT
ATOM      1  C   UNL     1       1.343   9.344  19.277  0.00  0.00    +0.000 A 
ATOM      2  N   UNL     1       1.967   8.681  18.293  0.00  0.00    +0.000 NA
ATOM      3  N   UNL     1       2.301   7.485  18.839  0.00  0.00    +0.000 N 
ATOM      4  C   UNL     1       1.989   7.434  20.172  0.00  0.00    +0.000 A 
ATOM      5  C   UNL     1       1.429   8.645  20.517  0.00  0.00    +0.000 A 
ENDROOT
BRANCH   1   9
ATOM      6  C   UNL     1       0.981  14.443  19.238  0.00  0.00    +0.000 C 
ATOM      7  C   UNL     1       0.592  13.011  19.095  0.00  0.00    +0.000 A 
ATOM      8  C   UNL     1       1.327  11.895  19.428  0.00  0.00    +0.000 A 
ATOM      9  C   UNL     1       0.684  10.658  19.083  0.00  0.00    +0.000 A 
ATOM     10  C   UNL     1      -0.601  10.891  18.619  0.00  0.00    +0.000 A 
ATOM     11  C   UNL     1      -1.680   9.939  18.227  0.00  0.00    +0.000 C 
ATOM     12  S   UNL     1      -0.934  12.576  18.478  0.00  0.00    +0.000 S 
ENDBRANCH   1   9
BRANCH   3  13
ATOM     13  C   UNL     1       2.980   6.488  18.105  0.00  0.00    +0.000 A 
ATOM     14  C   UNL     1       4.164   6.806  17.429  0.00  0.00    +0.000 A 
ATOM     15  C   UNL     1       4.896   5.790  16.806  0.00  0.00    +0.000 A 
ATOM     16  C   UNL     1       4.426   4.474  16.815  0.00  0.00    +0.000 A 
ATOM     17  C   UNL     1       3.221   4.169  17.444  0.00  0.00    +0.000 A 
ATOM     18  C   UNL     1       2.511   5.172  18.095  0.00  0.00    +0.000 A 
ATOM     19  F   UNL     1       1.341   4.839  18.661  0.00  0.00    +0.000 F 
ENDBRANCH   3  13
BRANCH   5  20
ATOM     20  C   UNL     1       1.005   9.113  21.861  0.00  0.00    +0.000 C 
BRANCH  20  21
ATOM     21  N   UNL     1      -0.444   9.303  21.932  0.00  0.00    +0.000 NA
ATOM     22  H   UNL     1      -0.871   8.419  22.210  0.00  0.00    +0.000 HD
BRANCH  21  23
ATOM     23  C   UNL     1      -0.784  10.322  22.938  0.00  0.00    +0.000 C 
BRANCH  23  24
ATOM     24  C   UNL     1      -1.068  11.713  22.352  0.00  0.00    +0.000 C 
BRANCH  24  25
ATOM     25  C   UNL     1      -2.066  12.447  23.165  0.00  0.00    +0.000 A 
ATOM     26  C   UNL     1      -2.043  13.749  23.608  0.00  0.00    +0.000 A 
ATOM     27  N   UNL     1      -3.205  13.905  24.309  0.00  0.00    +0.000 N 
ATOM     28  C   UNL     1      -3.879  12.720  24.264  0.00  0.00    +0.000 A 
ATOM     29  N   UNL     1      -3.215  11.817  23.580  0.00  0.00    +0.000 NA
ATOM     30  H   UNL     1      -3.519  14.746  24.773  0.00  0.00    +0.000 HD
ENDBRANCH  24  25
ENDBRANCH  23  24
ENDBRANCH  21  23
ENDBRANCH  20  21
ENDBRANCH   5  20
TORSDOF 7
ENDMDL
MODEL 8
REMARK VINA RESULT:      -7.1      1.398      1.787
REMARK  Name = 
REMARK  9 active torsions:
REMARK  status: ('A' for Active; 'I' for Inactive)
REMARK    1  A    between atoms: C_1  and  C_2
REMARK    2  A    between atoms: C_4  and  C_5
REMARK    3  A    between atoms: N_7  and  C_8
REMARK    4  A    between atoms: C_16  and  C_17
REMARK    5  A    between atoms: C_17  and  N_18
REMARK    6  A    between atoms: N_18  and  C_19
REMARK    7  A    between atoms: C_19  and  C_20
REMARK    8  A    between atoms: C_20  and  C_21
REMARK    9  A    between atoms: C_26  and  C_27
REMARK                            x       y       z     vdW  Elec       q    Type
REMARK                         _______ _______ _______ _____ _____    ______ ____
ROOT
ATOM      1  C   UNL     1       4.164   5.793  16.934  0.00  0.00    +0.000 A 
ATOM      2  N   UNL     1       3.859   7.061  17.239  0.00  0.00    +0.000 NA
ATOM      3  N   UNL     1       2.831   6.967  18.119  0.00  0.00    +0.000 N 
ATOM      4  C   UNL     1       2.425   5.669  18.284  0.00  0.00    +0.000 A 
ATOM      5  C   UNL     1       3.216   4.878  17.480  0.00  0.00    +0.000 A 
ENDROOT
BRANCH   1   9
ATOM      6  C   UNL     1       6.584   3.803  12.894  0.00  0.00    +0.000 C 
ATOM      7  C   UNL     1       6.373   4.473  14.208  0.00  0.00    +0.000 A 
ATOM      8  C   UNL     1       5.189   4.651  14.890  0.00  0.00    +0.000 A 
ATOM      9  C   UNL     1       5.330   5.415  16.098  0.00  0.00    +0.000 A 
ATOM     10  C   UNL     1       6.667   5.671  16.358  0.00  0.00    +0.000 A 
ATOM     11  C   UNL     1       7.319   6.340  17.520  0.00  0.00    +0.000 C 
ATOM     12  S   UNL     1       7.684   5.119  15.082  0.00  0.00    +0.000 S 
ENDBRANCH   1   9
BRANCH   3  13
ATOM     13  C   UNL     1       2.221   8.108  18.686  0.00  0.00    +0.000 A 
ATOM     14  C   UNL     1       2.076   9.273  17.923  0.00  0.00    +0.000 A 
ATOM     15  C   UNL     1       1.364  10.356  18.448  0.00  0.00    +0.000 A 
ATOM     16  C   UNL     1       0.843  10.298  19.743  0.00  0.00    +0.000 A 
ATOM     17  C   UNL     1       1.034   9.158  20.519  0.00  0.00    +0.000 A 
ATOM     18  C   UNL     1       1.710   8.066  19.985  0.00  0.00    +0.000 A 
ATOM     19  F   UNL     1       1.897   7.001  20.780  0.00  0.00    +0.000 F 
ENDBRANCH   3  13
BRANCH   5  20
ATOM     20  C   UNL     1       3.116   3.416  17.243  0.00  0.00    +0.000 C 
BRANCH  20  21
ATOM     21  N   UNL     1       4.160   2.682  17.957  0.00  0.00    +0.000 NA
ATOM     22  H   UNL     1       4.442   3.231  18.769  0.00  0.00    +0.000 HD
BRANCH  21  23
ATOM     23  C   UNL     1       3.652   1.383  18.425  0.00  0.00    +0.000 C 
BRANCH  23  24
ATOM     24  C   UNL     1       2.201   1.419  18.928  0.00  0.00    +0.000 C 
BRANCH  24  25
ATOM     25  C   UNL     1       2.057   2.320  20.096  0.00  0.00    +0.000 A 
ATOM     26  C   UNL     1       2.842   2.420  21.221  0.00  0.00    +0.000 A 
ATOM     27  N   UNL     1       2.261   3.404  21.970  0.00  0.00    +0.000 N 
ATOM     28  C   UNL     1       1.172   3.857  21.287  0.00  0.00    +0.000 A 
ATOM     29  N   UNL     1       1.020   3.220  20.149  0.00  0.00    +0.000 NA
ATOM     30  H   UNL     1       2.580   3.744  22.867  0.00  0.00    +0.000 HD
ENDBRANCH  24  25
ENDBRANCH  23  24
ENDBRANCH  21  23
ENDBRANCH  20  21
ENDBRANCH   5  20
TORSDOF 7
ENDMDL
MODEL 9
REMARK VINA RESULT:      -7.1      2.434      6.038
REMARK  Name = 
REMARK  9 active torsions:
REMARK  status: ('A' for Active; 'I' for Inactive)
REMARK    1  A    between atoms: C_1  and  C_2
REMARK    2  A    between atoms: C_4  and  C_5
REMARK    3  A    between atoms: N_7  and  C_8
REMARK    4  A    between atoms: C_16  and  C_17
REMARK    5  A    between atoms: C_17  and  N_18
REMARK    6  A    between atoms: N_18  and  C_19
REMARK    7  A    between atoms: C_19  and  C_20
REMARK    8  A    between atoms: C_20  and  C_21
REMARK    9  A    between atoms: C_26  and  C_27
REMARK                            x       y       z     vdW  Elec       q    Type
REMARK                         _______ _______ _______ _____ _____    ______ ____
ROOT
ATOM      1  C   UNL     1       2.483   7.099  19.434  0.00  0.00    +0.000 A 
ATOM      2  N   UNL     1       3.579   7.244  18.677  0.00  0.00    +0.000 NA
ATOM      3  N   UNL     1       3.921   5.981  18.320  0.00  0.00    +0.000 N 
ATOM      4  C   UNL     1       3.121   5.050  18.927  0.00  0.00    +0.000 A 
ATOM      5  C   UNL     1       2.216   5.727  19.716  0.00  0.00    +0.000 A 
ENDROOT
BRANCH   1   9
ATOM      6  C   UNL     1      -0.039   9.894  22.894  0.00  0.00    +0.000 C 
ATOM      7  C   UNL     1       0.536   9.472  21.584  0.00  0.00    +0.000 A 
ATOM      8  C   UNL     1       1.180   8.294  21.279  0.00  0.00    +0.000 A 
ATOM      9  C   UNL     1       1.683   8.244  19.936  0.00  0.00    +0.000 A 
ATOM     10  C   UNL     1       1.269   9.355  19.220  0.00  0.00    +0.000 A 
ATOM     11  C   UNL     1       1.456   9.711  17.783  0.00  0.00    +0.000 C 
ATOM     12  S   UNL     1       0.422  10.479  20.215  0.00  0.00    +0.000 S 
ENDBRANCH   1   9
BRANCH   3  13
ATOM     13  C   UNL     1       5.041   5.710  17.502  0.00  0.00    +0.000 A 
ATOM     14  C   UNL     1       6.043   4.845  17.958  0.00  0.00    +0.000 A 
ATOM     15  C   UNL     1       7.086   4.485  17.098  0.00  0.00    +0.000 A 
ATOM     16  C   UNL     1       7.156   5.021  15.810  0.00  0.00    +0.000 A 
ATOM     17  C   UNL     1       6.185   5.921  15.377  0.00  0.00    +0.000 A 
ATOM     18  C   UNL     1       5.128   6.251  16.218  0.00  0.00    +0.000 A 
ATOM     19  F   UNL     1       4.233   7.146  15.771  0.00  0.00    +0.000 F 
ENDBRANCH   3  13
BRANCH   5  20
ATOM     20  C   UNL     1       1.196   5.165  20.636  0.00  0.00    +0.000 C 
BRANCH  20  21
ATOM     21  N   UNL     1       0.740   3.847  20.194  0.00  0.00    +0.000 NA
ATOM     22  H   UNL     1       1.289   3.573  19.379  0.00  0.00    +0.000 HD
BRANCH  21  23
ATOM     23  C   UNL     1       0.944   2.846  21.253  0.00  0.00    +0.000 C 
BRANCH  23  24
ATOM     24  C   UNL     1       2.409   2.670  21.679  0.00  0.00    +0.000 C 
BRANCH  24  25
ATOM     25  C   UNL     1       3.245   2.193  20.552  0.00  0.00    +0.000 A 
ATOM     26  C   UNL     1       4.614   2.092  20.464  0.00  0.00    +0.000 A 
ATOM     27  N   UNL     1       4.853   1.596  19.213  0.00  0.00    +0.000 N 
ATOM     28  C   UNL     1       3.647   1.415  18.603  0.00  0.00    +0.000 A 
ATOM     29  N   UNL     1       2.654   1.768  19.386  0.00  0.00    +0.000 NA
ATOM     30  H   UNL     1       5.756   1.391  18.810  0.00  0.00    +0.000 HD
ENDBRANCH  24  25
ENDBRANCH  23  24
ENDBRANCH  21  23
ENDBRANCH  20  21
ENDBRANCH   5  20
TORSDOF 7
ENDMDL
