MODEL 1
REMARK VINA RESULT:      -6.8      0.000      0.000
REMARK  Name = 
REMARK  5 active torsions:
REMARK  status: ('A' for Active; 'I' for Inactive)
REMARK    1  A    between atoms: C_1  and  C_2
REMARK    2  A    between atoms: C_4  and  C_5
REMARK    3  A    between atoms: N_6  and  C_7
REMARK    4  A    between atoms: C_12  and  C_14
REMARK    5  A    between atoms: N_18  and  C_19
REMARK                            x       y       z     vdW  Elec       q    Type
REMARK                         _______ _______ _______ _____ _____    ______ ____
ROOT
ATOM      1  C   UNL     1      -2.002  12.743  19.269  0.00  0.00    +0.000 C 
ATOM      2  C   UNL     1      -3.120  11.755  18.843  0.00  0.00    +0.000 C 
ATOM      3  C   UNL     1      -2.612  10.340  18.495  0.00  0.00    +0.000 C 
ATOM      4  C   UNL     1      -1.370  10.370  17.595  0.00  0.00    +0.000 C 
ATOM      5  N   UNL     1      -0.365  11.271  18.142  0.00  0.00    +0.000 N 
ATOM      6  C   UNL     1       0.834  10.958  18.785  0.00  0.00    +0.000 C 
ATOM      7  O   UNL     1       1.567  11.869  19.205  0.00  0.00    +0.000 OA
ATOM      8  C   UNL     1      -0.843  12.656  18.263  0.00  0.00    +0.000 C 
ENDROOT
BRANCH   6   9
ATOM      9  C   UNL     1       1.370   9.581  18.956  0.00  0.00    +0.000 A 
ATOM     10  C   UNL     1       2.107   9.044  17.896  0.00  0.00    +0.000 A 
ATOM     11  C   UNL     1       2.657   7.765  17.997  0.00  0.00    +0.000 A 
ATOM     12  C   UNL     1       2.451   7.023  19.152  0.00  0.00    +0.000 A 
ATOM     13  N   UNL     1       2.921   5.708  19.276  0.00  0.00    +0.000 N 
ATOM     14  N   UNL     1       1.808   7.546  20.215  0.00  0.00    +0.000 NA
ATOM     15  C   UNL     1       1.316   8.816  20.107  0.00  0.00    +0.000 A 
ATOM     16  H   UNL     1       2.538   5.338  20.142  0.00  0.00    +0.000 HD
BRANCH  13  17
ATOM     17  C   UNL     1       2.996   4.833  18.110  0.00  0.00    +0.000 C 
ATOM     18  C   UNL     1       2.993   3.332  18.258  0.00  0.00    +0.000 C 
ATOM     19  C   UNL     1       1.798   4.030  17.679  0.00  0.00    +0.000 C 
ENDBRANCH  13  17
ENDBRANCH   6   9
BRANCH   1  25
ATOM     20  C   UNL     1      -0.295  10.136  22.834  0.00  0.00    +0.000 C 
ATOM     21  C   UNL     1      -0.710  11.374  22.148  0.00  0.00    +0.000 A 
ATOM     22  N   UNL     1      -0.031  12.556  22.251  0.00  0.00    +0.000 NA
ATOM     23  C   UNL     1      -0.542  13.292  21.281  0.00  0.00    +0.000 A 
ATOM     24  C   UNL     1      -0.090  14.643  20.874  0.00  0.00    +0.000 C 
ATOM     25  N   UNL     1      -1.498  12.548  20.625  0.00  0.00    +0.000 N 
ATOM     26  N   UNL     1      -1.701  11.376  21.256  0.00  0.00    +0.000 NA
ENDBRANCH   1  25
TORSDOF 3
ENDMDL
MODEL 2
REMARK VINA RESULT:      -6.7      1.771      3.247
REMARK  Name = 
REMARK  5 active torsions:
REMARK  status: ('A' for Active; 'I' for Inactive)
REMARK    1  A    between atoms: C_1  and  C_2
REMARK    2  A    between atoms: C_4  and  C_5
REMARK    3  A    between atoms: N_6  and  C_7
REMARK    4  A    between atoms: C_12  and  C_14
REMARK    5  A    between atoms: N_18  and  C_19
REMARK                            x       y       z     vdW  Elec       q    Type
REMARK                         _______ _______ _______ _____ _____    ______ ____
ROOT
ATOM      1  C   UNL     1      -0.902  13.697  19.786  0.00  0.00    +0.000 C 
ATOM      2  C   UNL     1       0.219  14.365  18.948  0.00  0.00    +0.000 C 
ATOM      3  C   UNL     1       1.380  13.418  18.578  0.00  0.00    +0.000 C 
ATOM      4  C   UNL     1       1.851  12.578  19.772  0.00  0.00    +0.000 C 
ATOM      5  N   UNL     1       0.717  11.940  20.427  0.00  0.00    +0.000 N 
ATOM      6  C   UNL     1       0.326  10.600  20.393  0.00  0.00    +0.000 C 
ATOM      7  O   UNL     1      -0.691  10.236  21.007  0.00  0.00    +0.000 OA
ATOM      8  C   UNL     1      -0.265  12.907  20.941  0.00  0.00    +0.000 C 
ENDROOT
BRANCH   6   9
ATOM      9  C   UNL     1       1.086   9.513  19.721  0.00  0.00    +0.000 A 
ATOM     10  C   UNL     1       1.407   8.388  20.487  0.00  0.00    +0.000 A 
ATOM     11  C   UNL     1       2.101   7.320  19.915  0.00  0.00    +0.000 A 
ATOM     12  C   UNL     1       2.486   7.392  18.583  0.00  0.00    +0.000 A 
ATOM     13  N   UNL     1       3.244   6.379  17.979  0.00  0.00    +0.000 N 
ATOM     14  N   UNL     1       2.124   8.432  17.805  0.00  0.00    +0.000 NA
ATOM     15  C   UNL     1       1.408   9.444  18.377  0.00  0.00    +0.000 A 
ATOM     16  H   UNL     1       3.508   6.717  17.057  0.00  0.00    +0.000 HD
BRANCH  13  17
ATOM     17  C   UNL     1       4.221   5.621  18.756  0.00  0.00    +0.000 C 
ATOM     18  C   UNL     1       4.398   4.137  18.551  0.00  0.00    +0.000 C 
ATOM     19  C   UNL     1       5.469   5.089  18.103  0.00  0.00    +0.000 C 
ENDBRANCH  13  17
ENDBRANCH   6   9
BRANCH   1  25
ATOM     20  C   UNL     1      -1.890   9.985  17.018  0.00  0.00    +0.000 C 
ATOM     21  C   UNL     1      -2.193  11.165  17.849  0.00  0.00    +0.000 A 
ATOM     22  N   UNL     1      -3.260  11.232  18.702  0.00  0.00    +0.000 NA
ATOM     23  C   UNL     1      -2.998  12.292  19.442  0.00  0.00    +0.000 A 
ATOM     24  C   UNL     1      -3.784  12.766  20.605  0.00  0.00    +0.000 C 
ATOM     25  N   UNL     1      -1.799  12.830  19.028  0.00  0.00    +0.000 N 
ATOM     26  N   UNL     1      -1.350  12.195  17.929  0.00  0.00    +0.000 NA
ENDBRANCH   1  25
TORSDOF 3
ENDMDL
MODEL 3
REMARK VINA RESULT:      -6.6      1.586      3.058
REMARK  Name = 
REMARK  5 active torsions:
REMARK  status: ('A' for Active; 'I' for Inactive)
REMARK    1  A    between atoms: C_1  and  C_2
REMARK    2  A    between atoms: C_4  and  C_5
REMARK    3  A    between atoms: N_6  and  C_7
REMARK    4  A    between atoms: C_12  and  C_14
REMARK    5  A    between atoms: N_18  and  C_19
REMARK                            x       y       z     vdW  Elec       q    Type
REMARK                         _______ _______ _______ _____ _____    ______ ____
ROOT
ATOM      1  C   UNL     1      -0.798  13.806  19.578  0.00  0.00    +0.000 C 
ATOM      2  C   UNL     1       0.456  14.213  18.760  0.00  0.00    +0.000 C 
ATOM      3  C   UNL     1       1.554  13.130  18.707  0.00  0.00    +0.000 C 
ATOM      4  C   UNL     1       1.828  12.510  20.083  0.00  0.00    +0.000 C 
ATOM      5  N   UNL     1       0.582  12.098  20.715  0.00  0.00    +0.000 N 
ATOM      6  C   UNL     1       0.075  10.810  20.891  0.00  0.00    +0.000 C 
ATOM      7  O   UNL     1      -1.026  10.648  21.444  0.00  0.00    +0.000 OA
ATOM      8  C   UNL     1      -0.350  13.215  20.925  0.00  0.00    +0.000 C 
ENDROOT
BRANCH   6   9
ATOM      9  C   UNL     1       0.791   9.559  20.525  0.00  0.00    +0.000 A 
ATOM     10  C   UNL     1       1.230   9.436  19.203  0.00  0.00    +0.000 A 
ATOM     11  C   UNL     1       1.929   8.298  18.795  0.00  0.00    +0.000 A 
ATOM     12  C   UNL     1       2.168   7.281  19.710  0.00  0.00    +0.000 A 
ATOM     13  N   UNL     1       2.803   6.088  19.334  0.00  0.00    +0.000 N 
ATOM     14  N   UNL     1       1.822   7.408  21.006  0.00  0.00    +0.000 NA
ATOM     15  C   UNL     1       1.178   8.550  21.390  0.00  0.00    +0.000 A 
ATOM     16  H   UNL     1       2.745   5.459  20.132  0.00  0.00    +0.000 HD
BRANCH  13  17
ATOM     17  C   UNL     1       2.621   5.541  17.993  0.00  0.00    +0.000 C 
ATOM     18  C   UNL     1       3.029   4.126  17.666  0.00  0.00    +0.000 C 
ATOM     19  C   UNL     1       1.575   4.491  17.732  0.00  0.00    +0.000 C 
ENDBRANCH  13  17
ENDBRANCH   6   9
BRANCH   1  25
ATOM     20  C   UNL     1      -1.782   9.868  17.141  0.00  0.00    +0.000 C 
ATOM     21  C   UNL     1      -2.086  11.114  17.870  0.00  0.00    +0.000 A 
ATOM     22  N   UNL     1      -3.149  11.248  18.720  0.00  0.00    +0.000 NA
ATOM     23  C   UNL     1      -2.888  12.369  19.366  0.00  0.00    +0.000 A 
ATOM     24  C   UNL     1      -3.671  12.937  20.488  0.00  0.00    +0.000 C 
ATOM     25  N   UNL     1      -1.694  12.875  18.901  0.00  0.00    +0.000 N 
ATOM     26  N   UNL     1      -1.247  12.150  17.857  0.00  0.00    +0.000 NA
ENDBRANCH   1  25
TORSDOF 3
ENDMDL
MODEL 4
REMARK VINA RESULT:      -6.6      2.666      8.363
REMARK  Name = 
REMARK  5 active torsions:
REMARK  status: ('A' for Active; 'I' for Inactive)
REMARK    1  A    between atoms: C_1  and  C_2
REMARK    2  A    between atoms: C_4  and  C_5
REMARK    3  A    between atoms: N_6  and  C_7
REMARK    4  A    between atoms: C_12  and  C_14
REMARK    5  A    between atoms: N_18  and  C_19
REMARK                            x       y       z     vdW  Elec       q    Type
REMARK                         _______ _______ _______ _____ _____    ______ ____
ROOT
ATOM      1  C   UNL     1       4.458   3.142  18.012  0.00  0.00    +0.000 C 
ATOM      2  C   UNL     1       3.151   2.603  17.373  0.00  0.00    +0.000 C 
ATOM      3  C   UNL     1       1.981   3.609  17.386  0.00  0.00    +0.000 C 
ATOM      4  C   UNL     1       1.822   4.301  18.745  0.00  0.00    +0.000 C 
ATOM      5  N   UNL     1       3.100   4.833  19.201  0.00  0.00    +0.000 N 
ATOM      6  C   UNL     1       3.532   6.159  19.239  0.00  0.00    +0.000 C 
ATOM      7  O   UNL     1       4.674   6.426  19.648  0.00  0.00    +0.000 OA
ATOM      8  C   UNL     1       4.126   3.793  19.365  0.00  0.00    +0.000 C 
ENDROOT
BRANCH   6   9
ATOM      9  C   UNL     1       2.692   7.335  18.887  0.00  0.00    +0.000 A 
ATOM     10  C   UNL     1       1.867   7.856  19.888  0.00  0.00    +0.000 A 
ATOM     11  C   UNL     1       1.068   8.972  19.634  0.00  0.00    +0.000 A 
ATOM     12  C   UNL     1       1.086   9.549  18.371  0.00  0.00    +0.000 A 
ATOM     13  N   UNL     1       0.251  10.627  18.043  0.00  0.00    +0.000 N 
ATOM     14  N   UNL     1       1.926   9.113  17.413  0.00  0.00    +0.000 NA
ATOM     15  C   UNL     1       2.730   8.046  17.700  0.00  0.00    +0.000 A 
ATOM     16  H   UNL     1       0.350  10.783  17.043  0.00  0.00    +0.000 HD
BRANCH  13  17
ATOM     17  C   UNL     1      -1.073  10.751  18.646  0.00  0.00    +0.000 C 
ATOM     18  C   UNL     1      -2.102  11.698  18.082  0.00  0.00    +0.000 C 
ATOM     19  C   UNL     1      -2.288  10.216  17.938  0.00  0.00    +0.000 C 
ENDBRANCH  13  17
ENDBRANCH   6   9
BRANCH   1  25
ATOM     20  C   UNL     1       4.853   6.861  15.108  0.00  0.00    +0.000 C 
ATOM     21  C   UNL     1       5.336   5.746  15.943  0.00  0.00    +0.000 A 
ATOM     22  N   UNL     1       6.454   5.822  16.728  0.00  0.00    +0.000 NA
ATOM     23  C   UNL     1       6.358   4.760  17.506  0.00  0.00    +0.000 A 
ATOM     24  C   UNL     1       7.261   4.409  18.627  0.00  0.00    +0.000 C 
ATOM     25  N   UNL     1       5.204   4.081  17.180  0.00  0.00    +0.000 N 
ATOM     26  N   UNL     1       4.620   4.631  16.098  0.00  0.00    +0.000 NA
ENDBRANCH   1  25
TORSDOF 3
ENDMDL
MODEL 5
REMARK VINA RESULT:      -6.5      5.649      8.228
REMARK  Name = 
REMARK  5 active torsions:
REMARK  status: ('A' for Active; 'I' for Inactive)
REMARK    1  A    between atoms: C_1  and  C_2
REMARK    2  A    between atoms: C_4  and  C_5
REMARK    3  A    between atoms: N_6  and  C_7
REMARK    4  A    between atoms: C_12  and  C_14
REMARK    5  A    between atoms: N_18  and  C_19
REMARK                            x       y       z     vdW  Elec       q    Type
REMARK                         _______ _______ _______ _____ _____    ______ ____
ROOT
ATOM      1  C   UNL     1       2.039   5.389  20.107  0.00  0.00    +0.000 C 
ATOM      2  C   UNL     1       1.510   6.600  19.295  0.00  0.00    +0.000 C 
ATOM      3  C   UNL     1       2.405   6.999  18.102  0.00  0.00    +0.000 C 
ATOM      4  C   UNL     1       3.891   7.047  18.479  0.00  0.00    +0.000 C 
ATOM      5  N   UNL     1       4.284   5.824  19.165  0.00  0.00    +0.000 N 
ATOM      6  C   UNL     1       5.046   4.757  18.685  0.00  0.00    +0.000 C 
ATOM      7  O   UNL     1       5.270   3.778  19.416  0.00  0.00    +0.000 OA
ATOM      8  C   UNL     1       3.533   5.598  20.408  0.00  0.00    +0.000 C 
ENDROOT
BRANCH   6   9
ATOM      9  C   UNL     1       5.701   4.716  17.350  0.00  0.00    +0.000 A 
ATOM     10  C   UNL     1       4.913   5.036  16.240  0.00  0.00    +0.000 A 
ATOM     11  C   UNL     1       5.467   5.039  14.959  0.00  0.00    +0.000 A 
ATOM     12  C   UNL     1       6.804   4.704  14.794  0.00  0.00    +0.000 A 
ATOM     13  N   UNL     1       7.392   4.623  13.523  0.00  0.00    +0.000 N 
ATOM     14  N   UNL     1       7.602   4.465  15.853  0.00  0.00    +0.000 NA
ATOM     15  C   UNL     1       7.046   4.512  17.100  0.00  0.00    +0.000 A 
ATOM     16  H   UNL     1       8.324   4.239  13.653  0.00  0.00    +0.000 HD
BRANCH  13  17
ATOM     17  C   UNL     1       6.608   4.192  12.370  0.00  0.00    +0.000 C 
ATOM     18  C   UNL     1       7.056   3.037  11.510  0.00  0.00    +0.000 C 
ATOM     19  C   UNL     1       5.858   2.888  12.400  0.00  0.00    +0.000 C 
ENDBRANCH  13  17
ENDBRANCH   6   9
BRANCH   1  25
ATOM     20  C   UNL     1       2.875   2.101  16.806  0.00  0.00    +0.000 C 
ATOM     21  C   UNL     1       2.268   2.659  18.028  0.00  0.00    +0.000 A 
ATOM     22  N   UNL     1       2.075   1.935  19.172  0.00  0.00    +0.000 NA
ATOM     23  C   UNL     1       1.802   2.854  20.078  0.00  0.00    +0.000 A 
ATOM     24  C   UNL     1       1.609   2.627  21.529  0.00  0.00    +0.000 C 
ATOM     25  N   UNL     1       1.838   4.091  19.472  0.00  0.00    +0.000 N 
ATOM     26  N   UNL     1       2.004   3.961  18.141  0.00  0.00    +0.000 NA
ENDBRANCH   1  25
TORSDOF 3
ENDMDL
MODEL 6
REMARK VINA RESULT:      -6.4      2.693      8.476
REMARK  Name = 
REMARK  5 active torsions:
REMARK  status: ('A' for Active; 'I' for Inactive)
REMARK    1  A    between atoms: C_1  and  C_2
REMARK    2  A    between atoms: C_4  and  C_5
REMARK    3  A    between atoms: N_6  and  C_7
REMARK    4  A    between atoms: C_12  and  C_14
REMARK    5  A    between atoms: N_18  and  C_19
REMARK                            x       y       z     vdW  Elec       q    Type
REMARK                         _______ _______ _______ _____ _____    ______ ____
ROOT
ATOM      1  C   UNL     1       4.363   3.118  18.412  0.00  0.00    +0.000 C 
ATOM      2  C   UNL     1       3.441   2.755  17.219  0.00  0.00    +0.000 C 
ATOM      3  C   UNL     1       2.354   3.808  16.917  0.00  0.00    +0.000 C 
ATOM      4  C   UNL     1       1.642   4.292  18.186  0.00  0.00    +0.000 C 
ATOM      5  N   UNL     1       2.612   4.677  19.202  0.00  0.00    +0.000 N 
ATOM      6  C   UNL     1       2.973   5.957  19.626  0.00  0.00    +0.000 C 
ATOM      7  O   UNL     1       3.842   6.097  20.502  0.00  0.00    +0.000 OA
ATOM      8  C   UNL     1       3.495   3.571  19.599  0.00  0.00    +0.000 C 
ENDROOT
BRANCH   6   9
ATOM      9  C   UNL     1       2.335   7.217  19.158  0.00  0.00    +0.000 A 
ATOM     10  C   UNL     1       1.609   7.955  20.098  0.00  0.00    +0.000 A 
ATOM     11  C   UNL     1       1.002   9.158  19.733  0.00  0.00    +0.000 A 
ATOM     12  C   UNL     1       1.110   9.606  18.423  0.00  0.00    +0.000 A 
ATOM     13  N   UNL     1       0.461  10.771  17.987  0.00  0.00    +0.000 N 
ATOM     14  N   UNL     1       1.865   8.952  17.519  0.00  0.00    +0.000 NA
ATOM     15  C   UNL     1       2.485   7.800  17.913  0.00  0.00    +0.000 A 
ATOM     16  H   UNL     1       0.581  10.816  16.979  0.00  0.00    +0.000 HD
BRANCH  13  17
ATOM     17  C   UNL     1      -0.823  11.163  18.560  0.00  0.00    +0.000 C 
ATOM     18  C   UNL     1      -1.891  11.809  17.713  0.00  0.00    +0.000 C 
ATOM     19  C   UNL     1      -2.077  10.406  18.214  0.00  0.00    +0.000 C 
ENDBRANCH  13  17
ENDBRANCH   6   9
BRANCH   1  25
ATOM     20  C   UNL     1       8.242   5.655  19.378  0.00  0.00    +0.000 C 
ATOM     21  C   UNL     1       7.103   5.191  18.564  0.00  0.00    +0.000 A 
ATOM     22  N   UNL     1       7.179   4.976  17.216  0.00  0.00    +0.000 NA
ATOM     23  C   UNL     1       6.075   4.304  16.948  0.00  0.00    +0.000 A 
ATOM     24  C   UNL     1       5.699   3.720  15.639  0.00  0.00    +0.000 C 
ATOM     25  N   UNL     1       5.371   4.132  18.120  0.00  0.00    +0.000 N 
ATOM     26  N   UNL     1       5.956   4.809  19.127  0.00  0.00    +0.000 NA
ENDBRANCH   1  25
TORSDOF 3
ENDMDL
MODEL 7
REMARK VINA RESULT:      -6.4      2.595      8.360
REMARK  Name = 
REMARK  5 active torsions:
REMARK  status: ('A' for Active; 'I' for Inactive)
REMARK    1  A    between atoms: C_1  and  C_2
REMARK    2  A    between atoms: C_4  and  C_5
REMARK    3  A    between atoms: N_6  and  C_7
REMARK    4  A    between atoms: C_12  and  C_14
REMARK    5  A    between atoms: N_18  and  C_19
REMARK                            x       y       z     vdW  Elec       q    Type
REMARK                         _______ _______ _______ _____ _____    ______ ____
ROOT
ATOM      1  C   UNL     1       5.303   3.819  17.792  0.00  0.00    +0.000 C 
ATOM      2  C   UNL     1       6.536   4.694  18.139  0.00  0.00    +0.000 C 
ATOM      3  C   UNL     1       6.193   6.161  18.474  0.00  0.00    +0.000 C 
ATOM      4  C   UNL     1       5.201   6.772  17.476  0.00  0.00    +0.000 C 
ATOM      5  N   UNL     1       4.053   5.894  17.295  0.00  0.00    +0.000 N 
ATOM      6  C   UNL     1       2.751   6.045  17.777  0.00  0.00    +0.000 C 
ATOM      7  O   UNL     1       1.897   5.176  17.535  0.00  0.00    +0.000 OA
ATOM      8  C   UNL     1       4.422   4.568  16.779  0.00  0.00    +0.000 C 
ENDROOT
BRANCH   6   9
ATOM      9  C   UNL     1       2.257   7.231  18.525  0.00  0.00    +0.000 A 
ATOM     10  C   UNL     1       1.887   8.352  17.775  0.00  0.00    +0.000 A 
ATOM     11  C   UNL     1       1.394   9.494  18.410  0.00  0.00    +0.000 A 
ATOM     12  C   UNL     1       1.291   9.513  19.794  0.00  0.00    +0.000 A 
ATOM     13  N   UNL     1       0.869  10.658  20.485  0.00  0.00    +0.000 N 
ATOM     14  N   UNL     1       1.570   8.421  20.533  0.00  0.00    +0.000 NA
ATOM     15  C   UNL     1       2.009   7.302  19.884  0.00  0.00    +0.000 A 
ATOM     16  H   UNL     1       1.001  10.470  21.476  0.00  0.00    +0.000 HD
BRANCH  13  17
ATOM     17  C   UNL     1       1.180  11.990  19.974  0.00  0.00    +0.000 C 
ATOM     18  C   UNL     1       0.085  12.968  19.628  0.00  0.00    +0.000 C 
ATOM     19  C   UNL     1       0.952  13.208  20.828  0.00  0.00    +0.000 C 
ENDBRANCH  13  17
ENDBRANCH   6   9
BRANCH   1  25
ATOM     20  C   UNL     1       2.229   4.574  21.312  0.00  0.00    +0.000 C 
ATOM     21  C   UNL     1       3.115   3.776  20.445  0.00  0.00    +0.000 A 
ATOM     22  N   UNL     1       2.802   2.522  19.999  0.00  0.00    +0.000 NA
ATOM     23  C   UNL     1       3.688   2.302  19.047  0.00  0.00    +0.000 A 
ATOM     24  C   UNL     1       3.740   1.123  18.151  0.00  0.00    +0.000 C 
ATOM     25  N   UNL     1       4.501   3.410  18.940  0.00  0.00    +0.000 N 
ATOM     26  N   UNL     1       4.223   4.295  19.916  0.00  0.00    +0.000 NA
ENDBRANCH   1  25
TORSDOF 3
ENDMDL
MODEL 8
REMARK VINA RESULT:      -6.3      3.067      8.311
REMARK  Name = 
REMARK  5 active torsions:
REMARK  status: ('A' for Active; 'I' for Inactive)
REMARK    1  A    between atoms: C_1  and  C_2
REMARK    2  A    between atoms: C_4  and  C_5
REMARK    3  A    between atoms: N_6  and  C_7
REMARK    4  A    between atoms: C_12  and  C_14
REMARK    5  A    between atoms: N_18  and  C_19
REMARK                            x       y       z     vdW  Elec       q    Type
REMARK                         _______ _______ _______ _____ _____    ______ ____
ROOT
ATOM      1  C   UNL     1       5.232   3.663  17.868  0.00  0.00    +0.000 C 
ATOM      2  C   UNL     1       6.424   4.461  18.459  0.00  0.00    +0.000 C 
ATOM      3  C   UNL     1       6.062   5.888  18.920  0.00  0.00    +0.000 C 
ATOM      4  C   UNL     1       5.207   6.635  17.889  0.00  0.00    +0.000 C 
ATOM      5  N   UNL     1       4.078   5.815  17.470  0.00  0.00    +0.000 N 
ATOM      6  C   UNL     1       2.729   5.944  17.808  0.00  0.00    +0.000 C 
ATOM      7  O   UNL     1       1.900   5.133  17.365  0.00  0.00    +0.000 OA
ATOM      8  C   UNL     1       4.490   4.547  16.851  0.00  0.00    +0.000 C 
ENDROOT
BRANCH   6   9
ATOM      9  C   UNL     1       2.163   7.051  18.624  0.00  0.00    +0.000 A 
ATOM     10  C   UNL     1       1.856   6.770  19.960  0.00  0.00    +0.000 A 
ATOM     11  C   UNL     1       1.341   7.767  20.790  0.00  0.00    +0.000 A 
ATOM     12  C   UNL     1       1.119   9.036  20.273  0.00  0.00    +0.000 A 
ATOM     13  N   UNL     1       0.538  10.054  21.045  0.00  0.00    +0.000 N 
ATOM     14  N   UNL     1       1.475   9.352  19.013  0.00  0.00    +0.000 NA
ATOM     15  C   UNL     1       2.018   8.370  18.233  0.00  0.00    +0.000 A 
ATOM     16  H   UNL     1       0.361  10.834  20.417  0.00  0.00    +0.000 HD
BRANCH  13  17
ATOM     17  C   UNL     1      -0.451   9.735  22.069  0.00  0.00    +0.000 C 
ATOM     18  C   UNL     1      -0.060   9.613  23.521  0.00  0.00    +0.000 C 
ATOM     19  C   UNL     1      -0.887  10.779  23.062  0.00  0.00    +0.000 C 
ENDBRANCH  13  17
ENDBRANCH   6   9
BRANCH   1  25
ATOM     20  C   UNL     1       2.455   4.027  21.685  0.00  0.00    +0.000 C 
ATOM     21  C   UNL     1       3.051   3.364  20.510  0.00  0.00    +0.000 A 
ATOM     22  N   UNL     1       2.347   2.548  19.669  0.00  0.00    +0.000 NA
ATOM     23  C   UNL     1       3.144   2.418  18.626  0.00  0.00    +0.000 A 
ATOM     24  C   UNL     1       2.828   1.713  17.361  0.00  0.00    +0.000 C 
ATOM     25  N   UNL     1       4.290   3.148  18.856  0.00  0.00    +0.000 N 
ATOM     26  N   UNL     1       4.291   3.643  20.108  0.00  0.00    +0.000 NA
ENDBRANCH   1  25
TORSDOF 3
ENDMDL
MODEL 9
REMARK VINA RESULT:      -6.1      3.763      5.989
REMARK  Name = 
REMARK  5 active torsions:
REMARK  status: ('A' for Active; 'I' for Inactive)
REMARK    1  A    between atoms: C_1  and  C_2
REMARK    2  A    between atoms: C_4  and  C_5
REMARK    3  A    between atoms: N_6  and  C_7
REMARK    4  A    between atoms: C_12  and  C_14
REMARK    5  A    between atoms: N_18  and  C_19
REMARK                            x       y       z     vdW  Elec       q    Type
REMARK                         _______ _______ _______ _____ _____    ______ ____
ROOT
ATOM      1  C   UNL     1      -5.553  15.083  22.826  0.00  0.00    +0.000 C 
ATOM      2  C   UNL     1      -4.790  16.206  22.075  0.00  0.00    +0.000 C 
ATOM      3  C   UNL     1      -3.348  15.829  21.674  0.00  0.00    +0.000 C 
ATOM      4  C   UNL     1      -2.582  15.153  22.817  0.00  0.00    +0.000 C 
ATOM      5  N   UNL     1      -3.368  14.068  23.388  0.00  0.00    +0.000 N 
ATOM      6  C   UNL     1      -3.193  12.690  23.244  0.00  0.00    +0.000 C 
ATOM      7  O   UNL     1      -3.981  11.905  23.797  0.00  0.00    +0.000 OA
ATOM      8  C   UNL     1      -4.653  14.521  23.940  0.00  0.00    +0.000 C 
ENDROOT
BRANCH   6   9
ATOM      9  C   UNL     1      -2.063  12.051  22.519  0.00  0.00    +0.000 A 
ATOM     10  C   UNL     1      -1.942  12.325  21.153  0.00  0.00    +0.000 A 
ATOM     11  C   UNL     1      -0.893  11.776  20.414  0.00  0.00    +0.000 A 
ATOM     12  C   UNL     1       0.020  10.941  21.044  0.00  0.00    +0.000 A 
ATOM     13  N   UNL     1       1.051  10.308  20.333  0.00  0.00    +0.000 N 
ATOM     14  N   UNL     1      -0.031  10.722  22.372  0.00  0.00    +0.000 NA
ATOM     15  C   UNL     1      -1.042  11.306  23.081  0.00  0.00    +0.000 A 
ATOM     16  H   UNL     1       1.496   9.658  20.976  0.00  0.00    +0.000 HD
BRANCH  13  17
ATOM     17  C   UNL     1       0.854   9.901  18.946  0.00  0.00    +0.000 C 
ATOM     18  C   UNL     1       1.901  10.177  17.895  0.00  0.00    +0.000 C 
ATOM     19  C   UNL     1       1.658   8.771  18.359  0.00  0.00    +0.000 C 
ENDBRANCH  13  17
ENDBRANCH   6   9
BRANCH   1  25
ATOM     20  C   UNL     1      -5.077  11.822  19.427  0.00  0.00    +0.000 C 
ATOM     21  C   UNL     1      -5.764  12.548  20.511  0.00  0.00    +0.000 A 
ATOM     22  N   UNL     1      -6.555  11.937  21.444  0.00  0.00    +0.000 NA
ATOM     23  C   UNL     1      -6.717  12.865  22.368  0.00  0.00    +0.000 A 
ATOM     24  C   UNL     1      -7.412  12.700  23.666  0.00  0.00    +0.000 C 
ATOM     25  N   UNL     1      -6.031  13.995  21.979  0.00  0.00    +0.000 N 
ATOM     26  N   UNL     1      -5.533  13.842  20.737  0.00  0.00    +0.000 NA
ENDBRANCH   1  25
TORSDOF 3
ENDMDL
