MODEL 1
REMARK VINA RESULT:      -7.6      0.000      0.000
REMARK  Name = 
REMARK  9 active torsions:
REMARK  status: ('A' for Active; 'I' for Inactive)
REMARK    1  A    between atoms: C_1  and  C_2
REMARK    2  A    between atoms: C_8  and  S_9
REMARK    3  A    between atoms: S_9  and  C_10
REMARK    4  A    between atoms: C_10  and  C_11
REMARK    5  A    between atoms: C_11  and  O_13
REMARK    6  A    between atoms: O_13  and  C_14
REMARK    7  A    between atoms: C_14  and  C_15
REMARK    8  A    between atoms: N_17  and  C_18
REMARK    9  A    between atoms: C_21  and  C_22
REMARK                            x       y       z     vdW  Elec       q    Type
REMARK                         _______ _______ _______ _____ _____    ______ ____
ROOT
ATOM      1  C   UNL     1       8.375   8.902  18.374  0.00  0.00    +0.000 C 
ATOM      2  O   UNL     1       7.757   9.480  17.486  0.00  0.00    +0.000 OA
ATOM      3  N   UNL     1       9.317   9.489  19.198  0.00  0.00    +0.000 N 
ATOM      4  H   UNL     1      10.093   8.898  19.488  0.00  0.00    +0.000 HD
ENDROOT
BRANCH   3   5
ATOM      5  C   UNL     1       9.639  10.847  19.102  0.00  0.00    +0.000 A 
ATOM      6  N   UNL     1      10.289  11.177  17.961  0.00  0.00    +0.000 NA
ATOM      7  C   UNL     1      10.553  12.489  17.753  0.00  0.00    +0.000 A 
ATOM      8  C   UNL     1      10.246  13.495  18.657  0.00  0.00    +0.000 A 
ATOM      9  C   UNL     1       9.657  13.117  19.869  0.00  0.00    +0.000 A 
ATOM     10  C   UNL     1       9.350  11.778  20.104  0.00  0.00    +0.000 A 
ATOM     11 CL   UNL     1       8.787  11.345  21.680  0.00  0.00    +0.000 Cl
BRANCH   8  12
ATOM     12  C   UNL     1      10.549  14.929  18.353  0.00  0.00    +0.000 C 
ATOM     13  F   UNL     1      10.097  15.334  17.134  0.00  0.00    +0.000 F 
ATOM     14  F   UNL     1       9.994  15.779  19.259  0.00  0.00    +0.000 F 
ATOM     15  F   UNL     1      11.884  15.190  18.363  0.00  0.00    +0.000 F 
ENDBRANCH   8  12
ENDBRANCH   3   5
BRANCH   1  16
ATOM     16  C   UNL     1       8.197   7.403  18.624  0.00  0.00    +0.000 C 
BRANCH  16  17
ATOM     17  O   UNL     1       7.636   6.728  17.494  0.00  0.00    +0.000 OA
BRANCH  17  18
ATOM     18  C   UNL     1       7.411   5.390  17.650  0.00  0.00    +0.000 C 
ATOM     19  O   UNL     1       7.733   4.757  18.647  0.00  0.00    +0.000 OA
BRANCH  18  20
ATOM     20  C   UNL     1       6.746   4.833  16.399  0.00  0.00    +0.000 C 
BRANCH  20  21
ATOM     21  S   UNL     1       5.281   5.825  15.955  0.00  0.00    +0.000 S 
BRANCH  21  29
ATOM     22  C   UNL     1       3.233   7.533  17.822  0.00  0.00    +0.000 C 
ATOM     23  C   UNL     1       3.229   6.032  17.909  0.00  0.00    +0.000 A 
ATOM     24  C   UNL     1       2.395   5.435  18.878  0.00  0.00    +0.000 A 
ATOM     25  C   UNL     1       2.382   4.053  19.056  0.00  0.00    +0.000 A 
ATOM     26 BR   UNL     1       1.288   3.290  20.398  0.00  0.00    +0.000 Br
ATOM     27  C   UNL     1       3.187   3.239  18.272  0.00  0.00    +0.000 A 
ATOM     28  C   UNL     1       4.013   3.817  17.302  0.00  0.00    +0.000 A 
ATOM     29  C   UNL     1       4.045   5.210  17.106  0.00  0.00    +0.000 A 
ENDBRANCH  21  29
ENDBRANCH  20  21
ENDBRANCH  18  20
ENDBRANCH  17  18
ENDBRANCH  16  17
ENDBRANCH   1  16
TORSDOF 8
ENDMDL
MODEL 2
REMARK VINA RESULT:      -7.4      6.538     10.058
REMARK  Name = 
REMARK  9 active torsions:
REMARK  status: ('A' for Active; 'I' for Inactive)
REMARK    1  A    between atoms: C_1  and  C_2
REMARK    2  A    between atoms: C_8  and  S_9
REMARK    3  A    between atoms: S_9  and  C_10
REMARK    4  A    between atoms: C_10  and  C_11
REMARK    5  A    between atoms: C_11  and  O_13
REMARK    6  A    between atoms: O_13  and  C_14
REMARK    7  A    between atoms: C_14  and  C_15
REMARK    8  A    between atoms: N_17  and  C_18
REMARK    9  A    between atoms: C_21  and  C_22
REMARK                            x       y       z     vdW  Elec       q    Type
REMARK                         _______ _______ _______ _____ _____    ______ ____
ROOT
ATOM      1  C   UNL     1       7.560   5.455  17.883  0.00  0.00    +0.000 C 
ATOM      2  O   UNL     1       8.105   4.358  17.845  0.00  0.00    +0.000 OA
ATOM      3  N   UNL     1       6.774   5.988  16.878  0.00  0.00    +0.000 N 
ATOM      4  H   UNL     1       6.820   6.998  16.757  0.00  0.00    +0.000 HD
ENDROOT
BRANCH   3   5
ATOM      5  C   UNL     1       6.503   5.284  15.700  0.00  0.00    +0.000 A 
ATOM      6  N   UNL     1       7.379   5.533  14.698  0.00  0.00    +0.000 NA
ATOM      7  C   UNL     1       7.237   4.818  13.557  0.00  0.00    +0.000 A 
ATOM      8  C   UNL     1       6.224   3.896  13.339  0.00  0.00    +0.000 A 
ATOM      9  C   UNL     1       5.278   3.725  14.356  0.00  0.00    +0.000 A 
ATOM     10  C   UNL     1       5.409   4.426  15.553  0.00  0.00    +0.000 A 
ATOM     11 CL   UNL     1       4.122   4.309  16.701  0.00  0.00    +0.000 Cl
BRANCH   8  12
ATOM     12  C   UNL     1       6.140   3.127  12.058  0.00  0.00    +0.000 C 
ATOM     13  F   UNL     1       5.985   1.786  12.237  0.00  0.00    +0.000 F 
ATOM     14  F   UNL     1       5.092   3.524  11.285  0.00  0.00    +0.000 F 
ATOM     15  F   UNL     1       7.251   3.277  11.288  0.00  0.00    +0.000 F 
ENDBRANCH   8  12
ENDBRANCH   3   5
BRANCH   1  16
ATOM     16  C   UNL     1       7.756   6.402  19.069  0.00  0.00    +0.000 C 
BRANCH  16  17
ATOM     17  O   UNL     1       8.755   7.394  18.812  0.00  0.00    +0.000 OA
BRANCH  17  18
ATOM     18  C   UNL     1       8.299   8.589  18.333  0.00  0.00    +0.000 C 
ATOM     19  O   UNL     1       7.559   8.697  17.364  0.00  0.00    +0.000 OA
BRANCH  18  20
ATOM     20  C   UNL     1       8.881   9.727  19.160  0.00  0.00    +0.000 C 
BRANCH  20  21
ATOM     21  S   UNL     1       9.667  10.969  18.080  0.00  0.00    +0.000 S 
BRANCH  21  29
ATOM     22  C   UNL     1      10.727  13.965  17.373  0.00  0.00    +0.000 C 
ATOM     23  C   UNL     1      10.309  13.646  18.783  0.00  0.00    +0.000 A 
ATOM     24  C   UNL     1      10.490  14.646  19.761  0.00  0.00    +0.000 A 
ATOM     25  C   UNL     1      10.180  14.403  21.098  0.00  0.00    +0.000 A 
ATOM     26 BR   UNL     1      10.481  15.749  22.392  0.00  0.00    +0.000 Br
ATOM     27  C   UNL     1       9.676  13.169  21.485  0.00  0.00    +0.000 A 
ATOM     28  C   UNL     1       9.484  12.170  20.524  0.00  0.00    +0.000 A 
ATOM     29  C   UNL     1       9.793  12.392  19.169  0.00  0.00    +0.000 A 
ENDBRANCH  21  29
ENDBRANCH  20  21
ENDBRANCH  18  20
ENDBRANCH  17  18
ENDBRANCH  16  17
ENDBRANCH   1  16
TORSDOF 8
ENDMDL
MODEL 3
REMARK VINA RESULT:      -7.4      6.695     10.531
REMARK  Name = 
REMARK  9 active torsions:
REMARK  status: ('A' for Active; 'I' for Inactive)
REMARK    1  A    between atoms: C_1  and  C_2
REMARK    2  A    between atoms: C_8  and  S_9
REMARK    3  A    between atoms: S_9  and  C_10
REMARK    4  A    between atoms: C_10  and  C_11
REMARK    5  A    between atoms: C_11  and  O_13
REMARK    6  A    between atoms: O_13  and  C_14
REMARK    7  A    between atoms: C_14  and  C_15
REMARK    8  A    between atoms: N_17  and  C_18
REMARK    9  A    between atoms: C_21  and  C_22
REMARK                            x       y       z     vdW  Elec       q    Type
REMARK                         _______ _______ _______ _____ _____    ______ ____
ROOT
ATOM      1  C   UNL     1       6.698   5.905  18.555  0.00  0.00    +0.000 C 
ATOM      2  O   UNL     1       6.796   5.436  19.683  0.00  0.00    +0.000 OA
ATOM      3  N   UNL     1       5.586   5.792  17.741  0.00  0.00    +0.000 N 
ATOM      4  H   UNL     1       5.763   5.723  16.742  0.00  0.00    +0.000 HD
ENDROOT
BRANCH   3   5
ATOM      5  C   UNL     1       4.426   5.133  18.162  0.00  0.00    +0.000 A 
ATOM      6  N   UNL     1       4.581   3.797  18.317  0.00  0.00    +0.000 NA
ATOM      7  C   UNL     1       3.529   3.102  18.811  0.00  0.00    +0.000 A 
ATOM      8  C   UNL     1       2.298   3.667  19.113  0.00  0.00    +0.000 A 
ATOM      9  C   UNL     1       2.135   5.034  18.857  0.00  0.00    +0.000 A 
ATOM     10  C   UNL     1       3.206   5.783  18.372  0.00  0.00    +0.000 A 
ATOM     11 CL   UNL     1       2.901   7.420  17.910  0.00  0.00    +0.000 Cl
BRANCH   8  12
ATOM     12  C   UNL     1       1.184   2.841  19.675  0.00  0.00    +0.000 C 
ATOM     13  F   UNL     1       1.598   1.656  20.203  0.00  0.00    +0.000 F 
ATOM     14  F   UNL     1       0.518   3.483  20.674  0.00  0.00    +0.000 F 
ATOM     15  F   UNL     1       0.247   2.529  18.740  0.00  0.00    +0.000 F 
ENDBRANCH   8  12
ENDBRANCH   3   5
BRANCH   1  16
ATOM     16  C   UNL     1       7.866   6.636  17.890  0.00  0.00    +0.000 C 
BRANCH  16  17
ATOM     17  O   UNL     1       8.418   7.655  18.730  0.00  0.00    +0.000 OA
BRANCH  17  18
ATOM     18  C   UNL     1       8.259   8.939  18.293  0.00  0.00    +0.000 C 
ATOM     19  O   UNL     1       7.617   9.244  17.297  0.00  0.00    +0.000 OA
BRANCH  18  20
ATOM     20  C   UNL     1       9.021   9.888  19.207  0.00  0.00    +0.000 C 
BRANCH  20  21
ATOM     21  S   UNL     1       9.921  11.137  18.229  0.00  0.00    +0.000 S 
BRANCH  21  29
ATOM     22  C   UNL     1      10.650  14.235  17.545  0.00  0.00    +0.000 C 
ATOM     23  C   UNL     1      10.310  13.854  18.960  0.00  0.00    +0.000 A 
ATOM     24  C   UNL     1      10.418  14.853  19.951  0.00  0.00    +0.000 A 
ATOM     25  C   UNL     1      10.176  14.559  21.291  0.00  0.00    +0.000 A 
ATOM     26 BR   UNL     1      10.379  15.910  22.600  0.00  0.00    +0.000 Br
ATOM     27  C   UNL     1       9.812  13.275  21.671  0.00  0.00    +0.000 A 
ATOM     28  C   UNL     1       9.692  12.277  20.698  0.00  0.00    +0.000 A 
ATOM     29  C   UNL     1       9.935  12.549  19.338  0.00  0.00    +0.000 A 
ENDBRANCH  21  29
ENDBRANCH  20  21
ENDBRANCH  18  20
ENDBRANCH  17  18
ENDBRANCH  16  17
ENDBRANCH   1  16
TORSDOF 8
ENDMDL
MODEL 4
REMARK VINA RESULT:      -7.4      6.209      7.853
REMARK  Name = 
REMARK  9 active torsions:
REMARK  status: ('A' for Active; 'I' for Inactive)
REMARK    1  A    between atoms: C_1  and  C_2
REMARK    2  A    between atoms: C_8  and  S_9
REMARK    3  A    between atoms: S_9  and  C_10
REMARK    4  A    between atoms: C_10  and  C_11
REMARK    5  A    between atoms: C_11  and  O_13
REMARK    6  A    between atoms: O_13  and  C_14
REMARK    7  A    between atoms: C_14  and  C_15
REMARK    8  A    between atoms: N_17  and  C_18
REMARK    9  A    between atoms: C_21  and  C_22
REMARK                            x       y       z     vdW  Elec       q    Type
REMARK                         _______ _______ _______ _____ _____    ______ ____
ROOT
ATOM      1  C   UNL     1       1.669   4.680  20.818  0.00  0.00    +0.000 C 
ATOM      2  O   UNL     1       0.603   4.550  20.226  0.00  0.00    +0.000 OA
ATOM      3  N   UNL     1       2.380   5.861  20.924  0.00  0.00    +0.000 N 
ATOM      4  H   UNL     1       3.394   5.776  20.938  0.00  0.00    +0.000 HD
ENDROOT
BRANCH   3   5
ATOM      5  C   UNL     1       1.915   7.056  20.367  0.00  0.00    +0.000 A 
ATOM      6  N   UNL     1       1.171   7.804  21.216  0.00  0.00    +0.000 NA
ATOM      7  C   UNL     1       0.762   9.019  20.779  0.00  0.00    +0.000 A 
ATOM      8  C   UNL     1       1.015   9.512  19.507  0.00  0.00    +0.000 A 
ATOM      9  C   UNL     1       1.707   8.682  18.619  0.00  0.00    +0.000 A 
ATOM     10  C   UNL     1       2.164   7.436  19.044  0.00  0.00    +0.000 A 
ATOM     11 CL   UNL     1       2.857   6.384  17.861  0.00  0.00    +0.000 Cl
BRANCH   8  12
ATOM     12  C   UNL     1       0.548  10.874  19.099  0.00  0.00    +0.000 C 
ATOM     13  F   UNL     1       1.536  11.656  18.583  0.00  0.00    +0.000 F 
ATOM     14  F   UNL     1      -0.424  10.824  18.147  0.00  0.00    +0.000 F 
ATOM     15  F   UNL     1       0.020  11.575  20.138  0.00  0.00    +0.000 F 
ENDBRANCH   8  12
ENDBRANCH   3   5
BRANCH   1  16
ATOM     16  C   UNL     1       2.370   3.486  21.469  0.00  0.00    +0.000 C 
BRANCH  16  17
ATOM     17  O   UNL     1       2.544   2.396  20.558  0.00  0.00    +0.000 OA
BRANCH  17  18
ATOM     18  C   UNL     1       3.679   2.429  19.799  0.00  0.00    +0.000 C 
ATOM     19  O   UNL     1       4.780   2.081  20.205  0.00  0.00    +0.000 OA
BRANCH  18  20
ATOM     20  C   UNL     1       3.356   2.988  18.420  0.00  0.00    +0.000 C 
BRANCH  20  21
ATOM     21  S   UNL     1       4.773   2.772  17.292  0.00  0.00    +0.000 S 
BRANCH  21  29
ATOM     22  C   UNL     1       5.426   4.793  14.825  0.00  0.00    +0.000 C 
ATOM     23  C   UNL     1       5.840   5.176  16.220  0.00  0.00    +0.000 A 
ATOM     24  C   UNL     1       6.584   6.364  16.379  0.00  0.00    +0.000 A 
ATOM     25  C   UNL     1       7.052   6.753  17.633  0.00  0.00    +0.000 A 
ATOM     26 BR   UNL     1       8.090   8.324  17.802  0.00  0.00    +0.000 Br
ATOM     27  C   UNL     1       6.780   5.977  18.751  0.00  0.00    +0.000 A 
ATOM     28  C   UNL     1       6.035   4.801  18.609  0.00  0.00    +0.000 A 
ATOM     29  C   UNL     1       5.556   4.387  17.353  0.00  0.00    +0.000 A 
ENDBRANCH  21  29
ENDBRANCH  20  21
ENDBRANCH  18  20
ENDBRANCH  17  18
ENDBRANCH  16  17
ENDBRANCH   1  16
TORSDOF 8
ENDMDL
MODEL 5
REMARK VINA RESULT:      -7.3      7.073      9.344
REMARK  Name = 
REMARK  9 active torsions:
REMARK  status: ('A' for Active; 'I' for Inactive)
REMARK    1  A    between atoms: C_1  and  C_2
REMARK    2  A    between atoms: C_8  and  S_9
REMARK    3  A    between atoms: S_9  and  C_10
REMARK    4  A    between atoms: C_10  and  C_11
REMARK    5  A    between atoms: C_11  and  O_13
REMARK    6  A    between atoms: O_13  and  C_14
REMARK    7  A    between atoms: C_14  and  C_15
REMARK    8  A    between atoms: N_17  and  C_18
REMARK    9  A    between atoms: C_21  and  C_22
REMARK                            x       y       z     vdW  Elec       q    Type
REMARK                         _______ _______ _______ _____ _____    ______ ____
ROOT
ATOM      1  C   UNL     1       2.183   6.097  20.231  0.00  0.00    +0.000 C 
ATOM      2  O   UNL     1       2.705   5.092  20.700  0.00  0.00    +0.000 OA
ATOM      3  N   UNL     1       2.450   6.623  18.980  0.00  0.00    +0.000 N 
ATOM      4  H   UNL     1       2.410   7.636  18.899  0.00  0.00    +0.000 HD
ENDROOT
BRANCH   3   5
ATOM      5  C   UNL     1       3.353   6.015  18.101  0.00  0.00    +0.000 A 
ATOM      6  N   UNL     1       4.450   6.763  17.838  0.00  0.00    +0.000 NA
ATOM      7  C   UNL     1       5.414   6.204  17.069  0.00  0.00    +0.000 A 
ATOM      8  C   UNL     1       5.317   4.944  16.498  0.00  0.00    +0.000 A 
ATOM      9  C   UNL     1       4.133   4.228  16.709  0.00  0.00    +0.000 A 
ATOM     10  C   UNL     1       3.132   4.764  17.517  0.00  0.00    +0.000 A 
ATOM     11 CL   UNL     1       1.627   3.919  17.602  0.00  0.00    +0.000 Cl
BRANCH   8  12
ATOM     12  C   UNL     1       6.432   4.380  15.673  0.00  0.00    +0.000 C 
ATOM     13  F   UNL     1       6.194   3.116  15.226  0.00  0.00    +0.000 F 
ATOM     14  F   UNL     1       6.682   5.127  14.563  0.00  0.00    +0.000 F 
ATOM     15  F   UNL     1       7.606   4.321  16.357  0.00  0.00    +0.000 F 
ENDBRANCH   8  12
ENDBRANCH   3   5
BRANCH   1  16
ATOM     16  C   UNL     1       1.191   6.933  21.043  0.00  0.00    +0.000 C 
BRANCH  16  17
ATOM     17  O   UNL     1       1.325   8.334  20.787  0.00  0.00    +0.000 OA
BRANCH  17  18
ATOM     18  C   UNL     1       0.421   9.144  21.413  0.00  0.00    +0.000 C 
ATOM     19  O   UNL     1      -0.435   8.738  22.188  0.00  0.00    +0.000 OA
BRANCH  18  20
ATOM     20  C   UNL     1       0.628  10.584  20.966  0.00  0.00    +0.000 C 
BRANCH  20  21
ATOM     21  S   UNL     1      -0.936  11.518  21.059  0.00  0.00    +0.000 S 
BRANCH  21  29
ATOM     22  C   UNL     1      -3.745  12.639  19.856  0.00  0.00    +0.000 C 
ATOM     23  C   UNL     1      -2.855  11.798  18.983  0.00  0.00    +0.000 A 
ATOM     24  C   UNL     1      -3.331  11.453  17.701  0.00  0.00    +0.000 A 
ATOM     25  C   UNL     1      -2.587  10.628  16.859  0.00  0.00    +0.000 A 
ATOM     26 BR   UNL     1      -3.279  10.145  15.167  0.00  0.00    +0.000 Br
ATOM     27  C   UNL     1      -1.354  10.142  17.269  0.00  0.00    +0.000 A 
ATOM     28  C   UNL     1      -0.865  10.483  18.535  0.00  0.00    +0.000 A 
ATOM     29  C   UNL     1      -1.600  11.311  19.403  0.00  0.00    +0.000 A 
ENDBRANCH  21  29
ENDBRANCH  20  21
ENDBRANCH  18  20
ENDBRANCH  17  18
ENDBRANCH  16  17
ENDBRANCH   1  16
TORSDOF 8
ENDMDL
MODEL 6
REMARK VINA RESULT:      -7.3      2.026      2.628
REMARK  Name = 
REMARK  9 active torsions:
REMARK  status: ('A' for Active; 'I' for Inactive)
REMARK    1  A    between atoms: C_1  and  C_2
REMARK    2  A    between atoms: C_8  and  S_9
REMARK    3  A    between atoms: S_9  and  C_10
REMARK    4  A    between atoms: C_10  and  C_11
REMARK    5  A    between atoms: C_11  and  O_13
REMARK    6  A    between atoms: O_13  and  C_14
REMARK    7  A    between atoms: C_14  and  C_15
REMARK    8  A    between atoms: N_17  and  C_18
REMARK    9  A    between atoms: C_21  and  C_22
REMARK                            x       y       z     vdW  Elec       q    Type
REMARK                         _______ _______ _______ _____ _____    ______ ____
ROOT
ATOM      1  C   UNL     1       9.013  10.186  19.038  0.00  0.00    +0.000 C 
ATOM      2  O   UNL     1       9.105  10.595  20.190  0.00  0.00    +0.000 OA
ATOM      3  N   UNL     1       9.089  10.975  17.905  0.00  0.00    +0.000 N 
ATOM      4  H   UNL     1       8.513  10.690  17.117  0.00  0.00    +0.000 HD
ENDROOT
BRANCH   3   5
ATOM      5  C   UNL     1       9.313  12.354  17.979  0.00  0.00    +0.000 A 
ATOM      6  N   UNL     1       8.185  13.098  17.887  0.00  0.00    +0.000 NA
ATOM      7  C   UNL     1       8.310  14.437  18.043  0.00  0.00    +0.000 A 
ATOM      8  C   UNL     1       9.520  15.087  18.237  0.00  0.00    +0.000 A 
ATOM      9  C   UNL     1      10.680  14.304  18.237  0.00  0.00    +0.000 A 
ATOM     10  C   UNL     1      10.585  12.920  18.104  0.00  0.00    +0.000 A 
ATOM     11 CL   UNL     1      12.053  12.024  17.936  0.00  0.00    +0.000 Cl
BRANCH   8  12
ATOM     12  C   UNL     1       9.581  16.571  18.422  0.00  0.00    +0.000 C 
ATOM     13  F   UNL     1       9.634  17.264  17.251  0.00  0.00    +0.000 F 
ATOM     14  F   UNL     1       8.498  17.053  19.092  0.00  0.00    +0.000 F 
ATOM     15  F   UNL     1      10.669  16.961  19.138  0.00  0.00    +0.000 F 
ENDBRANCH   8  12
ENDBRANCH   3   5
BRANCH   1  16
ATOM     16  C   UNL     1       8.732   8.712  18.735  0.00  0.00    +0.000 C 
BRANCH  16  17
ATOM     17  O   UNL     1       8.027   8.536  17.503  0.00  0.00    +0.000 OA
BRANCH  17  18
ATOM     18  C   UNL     1       7.198   7.453  17.439  0.00  0.00    +0.000 C 
ATOM     19  O   UNL     1       6.262   7.357  16.656  0.00  0.00    +0.000 OA
BRANCH  18  20
ATOM     20  C   UNL     1       7.602   6.436  18.498  0.00  0.00    +0.000 C 
BRANCH  20  21
ATOM     21  S   UNL     1       7.621   4.752  17.798  0.00  0.00    +0.000 S 
BRANCH  21  29
ATOM     22  C   UNL     1       5.593   4.033  15.355  0.00  0.00    +0.000 C 
ATOM     23  C   UNL     1       5.074   4.033  16.766  0.00  0.00    +0.000 A 
ATOM     24  C   UNL     1       3.693   3.812  16.956  0.00  0.00    +0.000 A 
ATOM     25  C   UNL     1       3.130   3.856  18.230  0.00  0.00    +0.000 A 
ATOM     26 BR   UNL     1       1.268   3.605  18.443  0.00  0.00    +0.000 Br
ATOM     27  C   UNL     1       3.927   4.108  19.338  0.00  0.00    +0.000 A 
ATOM     28  C   UNL     1       5.299   4.321  19.165  0.00  0.00    +0.000 A 
ATOM     29  C   UNL     1       5.889   4.285  17.888  0.00  0.00    +0.000 A 
ENDBRANCH  21  29
ENDBRANCH  20  21
ENDBRANCH  18  20
ENDBRANCH  17  18
ENDBRANCH  16  17
ENDBRANCH   1  16
TORSDOF 8
ENDMDL
MODEL 7
REMARK VINA RESULT:      -7.1      6.639     10.352
REMARK  Name = 
REMARK  9 active torsions:
REMARK  status: ('A' for Active; 'I' for Inactive)
REMARK    1  A    between atoms: C_1  and  C_2
REMARK    2  A    between atoms: C_8  and  S_9
REMARK    3  A    between atoms: S_9  and  C_10
REMARK    4  A    between atoms: C_10  and  C_11
REMARK    5  A    between atoms: C_11  and  O_13
REMARK    6  A    between atoms: O_13  and  C_14
REMARK    7  A    between atoms: C_14  and  C_15
REMARK    8  A    between atoms: N_17  and  C_18
REMARK    9  A    between atoms: C_21  and  C_22
REMARK                            x       y       z     vdW  Elec       q    Type
REMARK                         _______ _______ _______ _____ _____    ______ ____
ROOT
ATOM      1  C   UNL     1       6.907   5.923  18.019  0.00  0.00    +0.000 C 
ATOM      2  O   UNL     1       7.347   4.849  18.413  0.00  0.00    +0.000 OA
ATOM      3  N   UNL     1       5.567   6.248  17.928  0.00  0.00    +0.000 N 
ATOM      4  H   UNL     1       5.303   6.862  17.161  0.00  0.00    +0.000 HD
ENDROOT
BRANCH   3   5
ATOM      5  C   UNL     1       4.562   5.356  18.317  0.00  0.00    +0.000 A 
ATOM      6  N   UNL     1       4.121   5.543  19.583  0.00  0.00    +0.000 NA
ATOM      7  C   UNL     1       3.085   4.778  20.000  0.00  0.00    +0.000 A 
ATOM      8  C   UNL     1       2.492   3.788  19.230  0.00  0.00    +0.000 A 
ATOM      9  C   UNL     1       3.027   3.551  17.959  0.00  0.00    +0.000 A 
ATOM     10  C   UNL     1       4.077   4.338  17.489  0.00  0.00    +0.000 A 
ATOM     11 CL   UNL     1       4.811   3.891  15.990  0.00  0.00    +0.000 Cl
BRANCH   8  12
ATOM     12  C   UNL     1       1.336   2.992  19.750  0.00  0.00    +0.000 C 
ATOM     13  F   UNL     1       0.415   2.683  18.796  0.00  0.00    +0.000 F 
ATOM     14  F   UNL     1       1.726   1.806  20.291  0.00  0.00    +0.000 F 
ATOM     15  F   UNL     1       0.655   3.645  20.730  0.00  0.00    +0.000 F 
ENDBRANCH   8  12
ENDBRANCH   3   5
BRANCH   1  16
ATOM     16  C   UNL     1       7.837   7.028  17.513  0.00  0.00    +0.000 C 
BRANCH  16  17
ATOM     17  O   UNL     1       8.316   7.863  18.572  0.00  0.00    +0.000 OA
BRANCH  17  18
ATOM     18  C   UNL     1       8.315   9.205  18.321  0.00  0.00    +0.000 C 
ATOM     19  O   UNL     1       7.587   9.743  17.497  0.00  0.00    +0.000 OA
BRANCH  18  20
ATOM     20  C   UNL     1       9.363   9.888  19.187  0.00  0.00    +0.000 C 
BRANCH  20  21
ATOM     21  S   UNL     1       9.760  11.543  18.531  0.00  0.00    +0.000 S 
BRANCH  21  29
ATOM     22  C   UNL     1       9.342  14.771  18.557  0.00  0.00    +0.000 C 
ATOM     23  C   UNL     1       9.262  14.008  19.851  0.00  0.00    +0.000 A 
ATOM     24  C   UNL     1       9.102  14.751  21.040  0.00  0.00    +0.000 A 
ATOM     25  C   UNL     1       9.078  14.117  22.281  0.00  0.00    +0.000 A 
ATOM     26 BR   UNL     1       8.913  15.148  23.858  0.00  0.00    +0.000 Br
ATOM     27  C   UNL     1       9.201  12.738  22.364  0.00  0.00    +0.000 A 
ATOM     28  C   UNL     1       9.352  11.988  21.192  0.00  0.00    +0.000 A 
ATOM     29  C   UNL     1       9.382  12.606  19.928  0.00  0.00    +0.000 A 
ENDBRANCH  21  29
ENDBRANCH  20  21
ENDBRANCH  18  20
ENDBRANCH  17  18
ENDBRANCH  16  17
ENDBRANCH   1  16
TORSDOF 8
ENDMDL
MODEL 8
REMARK VINA RESULT:      -7.1      6.772     10.667
REMARK  Name = 
REMARK  9 active torsions:
REMARK  status: ('A' for Active; 'I' for Inactive)
REMARK    1  A    between atoms: C_1  and  C_2
REMARK    2  A    between atoms: C_8  and  S_9
REMARK    3  A    between atoms: S_9  and  C_10
REMARK    4  A    between atoms: C_10  and  C_11
REMARK    5  A    between atoms: C_11  and  O_13
REMARK    6  A    between atoms: O_13  and  C_14
REMARK    7  A    between atoms: C_14  and  C_15
REMARK    8  A    between atoms: N_17  and  C_18
REMARK    9  A    between atoms: C_21  and  C_22
REMARK                            x       y       z     vdW  Elec       q    Type
REMARK                         _______ _______ _______ _____ _____    ______ ____
ROOT
ATOM      1  C   UNL     1       7.279   7.046  18.055  0.00  0.00    +0.000 C 
ATOM      2  O   UNL     1       7.953   6.168  18.583  0.00  0.00    +0.000 OA
ATOM      3  N   UNL     1       6.000   6.876  17.558  0.00  0.00    +0.000 N 
ATOM      4  H   UNL     1       5.760   7.424  16.735  0.00  0.00    +0.000 HD
ENDROOT
BRANCH   3   5
ATOM      5  C   UNL     1       5.332   5.650  17.643  0.00  0.00    +0.000 A 
ATOM      6  N   UNL     1       4.987   5.299  18.904  0.00  0.00    +0.000 NA
ATOM      7  C   UNL     1       4.255   4.170  19.057  0.00  0.00    +0.000 A 
ATOM      8  C   UNL     1       3.889   3.335  18.012  0.00  0.00    +0.000 A 
ATOM      9  C   UNL     1       4.336   3.672  16.729  0.00  0.00    +0.000 A 
ATOM     10  C   UNL     1       5.070   4.840  16.533  0.00  0.00    +0.000 A 
ATOM     11 CL   UNL     1       5.743   5.116  14.965  0.00  0.00    +0.000 Cl
BRANCH   8  12
ATOM     12  C   UNL     1       3.061   2.112  18.253  0.00  0.00    +0.000 C 
ATOM     13  F   UNL     1       2.298   2.183  19.378  0.00  0.00    +0.000 F 
ATOM     14  F   UNL     1       2.197   1.863  17.231  0.00  0.00    +0.000 F 
ATOM     15  F   UNL     1       3.819   0.990  18.383  0.00  0.00    +0.000 F 
ENDBRANCH   8  12
ENDBRANCH   3   5
BRANCH   1  16
ATOM     16  C   UNL     1       7.837   8.453  17.831  0.00  0.00    +0.000 C 
BRANCH  16  17
ATOM     17  O   UNL     1       8.960   8.732  18.673  0.00  0.00    +0.000 OA
BRANCH  17  18
ATOM     18  C   UNL     1       9.107  10.034  19.060  0.00  0.00    +0.000 C 
ATOM     19  O   UNL     1       8.963  10.423  20.211  0.00  0.00    +0.000 OA
BRANCH  18  20
ATOM     20  C   UNL     1       9.434  10.893  17.847  0.00  0.00    +0.000 C 
BRANCH  20  21
ATOM     21  S   UNL     1      10.925  11.898  18.155  0.00  0.00    +0.000 S 
BRANCH  21  29
ATOM     22  C   UNL     1      12.333  14.620  17.056  0.00  0.00    +0.000 C 
ATOM     23  C   UNL     1      10.970  14.700  17.686  0.00  0.00    +0.000 A 
ATOM     24  C   UNL     1      10.402  15.980  17.857  0.00  0.00    +0.000 A 
ATOM     25  C   UNL     1       9.168  16.137  18.486  0.00  0.00    +0.000 A 
ATOM     26 BR   UNL     1       8.459  17.871  18.744  0.00  0.00    +0.000 Br
ATOM     27  C   UNL     1       8.471  15.027  18.944  0.00  0.00    +0.000 A 
ATOM     28  C   UNL     1       9.018  13.751  18.773  0.00  0.00    +0.000 A 
ATOM     29  C   UNL     1      10.265  13.569  18.145  0.00  0.00    +0.000 A 
ENDBRANCH  21  29
ENDBRANCH  20  21
ENDBRANCH  18  20
ENDBRANCH  17  18
ENDBRANCH  16  17
ENDBRANCH   1  16
TORSDOF 8
ENDMDL
MODEL 9
REMARK VINA RESULT:      -7.1      6.870     10.825
REMARK  Name = 
REMARK  9 active torsions:
REMARK  status: ('A' for Active; 'I' for Inactive)
REMARK    1  A    between atoms: C_1  and  C_2
REMARK    2  A    between atoms: C_8  and  S_9
REMARK    3  A    between atoms: S_9  and  C_10
REMARK    4  A    between atoms: C_10  and  C_11
REMARK    5  A    between atoms: C_11  and  O_13
REMARK    6  A    between atoms: O_13  and  C_14
REMARK    7  A    between atoms: C_14  and  C_15
REMARK    8  A    between atoms: N_17  and  C_18
REMARK    9  A    between atoms: C_21  and  C_22
REMARK                            x       y       z     vdW  Elec       q    Type
REMARK                         _______ _______ _______ _____ _____    ______ ____
ROOT
ATOM      1  C   UNL     1       7.417   7.194  17.855  0.00  0.00    +0.000 C 
ATOM      2  O   UNL     1       8.045   6.400  18.548  0.00  0.00    +0.000 OA
ATOM      3  N   UNL     1       6.184   6.946  17.282  0.00  0.00    +0.000 N 
ATOM      4  H   UNL     1       6.012   7.380  16.378  0.00  0.00    +0.000 HD
ENDROOT
BRANCH   3   5
ATOM      5  C   UNL     1       5.512   5.734  17.470  0.00  0.00    +0.000 A 
ATOM      6  N   UNL     1       5.248   5.449  18.767  0.00  0.00    +0.000 NA
ATOM      7  C   UNL     1       4.518   4.338  19.024  0.00  0.00    +0.000 A 
ATOM      8  C   UNL     1       4.076   3.457  18.047  0.00  0.00    +0.000 A 
ATOM      9  C   UNL     1       4.439   3.726  16.723  0.00  0.00    +0.000 A 
ATOM     10  C   UNL     1       5.169   4.874  16.422  0.00  0.00    +0.000 A 
ATOM     11 CL   UNL     1       5.739   5.065  14.802  0.00  0.00    +0.000 Cl
BRANCH   8  12
ATOM     12  C   UNL     1       3.255   2.257  18.402  0.00  0.00    +0.000 C 
ATOM     13  F   UNL     1       3.987   1.227  18.907  0.00  0.00    +0.000 F 
ATOM     14  F   UNL     1       2.308   2.537  19.339  0.00  0.00    +0.000 F 
ATOM     15  F   UNL     1       2.584   1.752  17.332  0.00  0.00    +0.000 F 
ENDBRANCH   8  12
ENDBRANCH   3   5
BRANCH   1  16
ATOM     16  C   UNL     1       7.991   8.566  17.497  0.00  0.00    +0.000 C 
BRANCH  16  17
ATOM     17  O   UNL     1       8.579   9.220  18.625  0.00  0.00    +0.000 OA
BRANCH  17  18
ATOM     18  C   UNL     1       8.950  10.521  18.435  0.00  0.00    +0.000 C 
ATOM     19  O   UNL     1       8.415  11.270  17.628  0.00  0.00    +0.000 OA
BRANCH  18  20
ATOM     20  C   UNL     1      10.127  10.855  19.340  0.00  0.00    +0.000 C 
BRANCH  20  21
ATOM     21  S   UNL     1       9.546  11.605  20.898  0.00  0.00    +0.000 S 
BRANCH  21  29
ATOM     22  C   UNL     1       8.909  14.211  22.741  0.00  0.00    +0.000 C 
ATOM     23  C   UNL     1       9.964  14.305  21.674  0.00  0.00    +0.000 A 
ATOM     24  C   UNL     1      10.567  15.563  21.459  0.00  0.00    +0.000 A 
ATOM     25  C   UNL     1      11.511  15.739  20.449  0.00  0.00    +0.000 A 
ATOM     26 BR   UNL     1      12.263  17.450  20.155  0.00  0.00    +0.000 Br
ATOM     27  C   UNL     1      11.881  14.671  19.644  0.00  0.00    +0.000 A 
ATOM     28  C   UNL     1      11.298  13.417  19.851  0.00  0.00    +0.000 A 
ATOM     29  C   UNL     1      10.340  13.216  20.863  0.00  0.00    +0.000 A 
ENDBRANCH  21  29
ENDBRANCH  20  21
ENDBRANCH  18  20
ENDBRANCH  17  18
ENDBRANCH  16  17
ENDBRANCH   1  16
TORSDOF 8
ENDMDL
