MODEL 1
REMARK VINA RESULT:      -8.2      0.000      0.000
REMARK  Name = 
REMARK  4 active torsions:
REMARK  status: ('A' for Active; 'I' for Inactive)
REMARK    1  A    between atoms: C_1  and  C_2
REMARK    2  A    between atoms: C_7  and  S_8
REMARK    3  A    between atoms: S_8  and  C_9
REMARK    4  A    between atoms: C_9  and  C_10
REMARK                            x       y       z     vdW  Elec       q    Type
REMARK                         _______ _______ _______ _____ _____    ______ ____
ROOT
ATOM      1  C   UNL     1      -0.827  13.009  19.435  0.00  0.00    +0.000 C 
ATOM      2  C   UNL     1      -0.136  11.672  19.513  0.00  0.00    +0.000 A 
ATOM      3  C   UNL     1       0.527  11.170  18.457  0.00  0.00    +0.000 A 
ATOM      4  C   UNL     1       1.191   9.921  18.525  0.00  0.00    +0.000 A 
ATOM      5  N   UNL     1       1.896   9.287  17.610  0.00  0.00    +0.000 NA
ATOM      6  N   UNL     1       2.345   8.114  18.159  0.00  0.00    +0.000 NA
ATOM      7  C   UNL     1       1.900   8.041  19.394  0.00  0.00    +0.000 A 
ATOM      8  N   UNL     1       1.154   9.175  19.699  0.00  0.00    +0.000 N 
ATOM      9  C   UNL     1       0.463   9.633  20.862  0.00  0.00    +0.000 A 
ATOM     10  C   UNL     1       0.408   8.910  22.060  0.00  0.00    +0.000 A 
ATOM     11  C   UNL     1      -0.278   9.418  23.165  0.00  0.00    +0.000 A 
ATOM     12  C   UNL     1      -0.912  10.649  23.089  0.00  0.00    +0.000 A 
ATOM     13  C   UNL     1      -0.865  11.380  21.903  0.00  0.00    +0.000 A 
ATOM     14  C   UNL     1      -0.184  10.891  20.774  0.00  0.00    +0.000 A 
ENDROOT
BRANCH   7  15
ATOM     15  S   UNL     1       2.142   6.655  20.411  0.00  0.00    +0.000 S 
BRANCH  15  16
ATOM     16  C   UNL     1       2.026   5.251  19.259  0.00  0.00    +0.000 C 
BRANCH  16  17
ATOM     17  C   UNL     1       3.355   5.026  18.598  0.00  0.00    +0.000 A 
ATOM     18  C   UNL     1       4.623   5.170  19.133  0.00  0.00    +0.000 A 
ATOM     19  N   UNL     1       5.503   4.873  18.123  0.00  0.00    +0.000 N 
ATOM     20  C   UNL     1       6.897   4.879  18.127  0.00  0.00    +0.000 A 
ATOM     21  C   UNL     1       7.561   4.549  17.005  0.00  0.00    +0.000 A 
ATOM     22  C   UNL     1       6.796   4.197  15.817  0.00  0.00    +0.000 A 
ATOM     23  C   UNL     1       5.447   4.195  15.821  0.00  0.00    +0.000 A 
ATOM     24  C   UNL     1       4.739   4.543  17.009  0.00  0.00    +0.000 A 
ATOM     25  N   UNL     1       3.449   4.623  17.275  0.00  0.00    +0.000 NA
ENDBRANCH  16  17
ENDBRANCH  15  16
ENDBRANCH   7  15
TORSDOF 3
ENDMDL
MODEL 2
REMARK VINA RESULT:      -7.9      0.602      1.215
REMARK  Name = 
REMARK  4 active torsions:
REMARK  status: ('A' for Active; 'I' for Inactive)
REMARK    1  A    between atoms: C_1  and  C_2
REMARK    2  A    between atoms: C_7  and  S_8
REMARK    3  A    between atoms: S_8  and  C_9
REMARK    4  A    between atoms: C_9  and  C_10
REMARK                            x       y       z     vdW  Elec       q    Type
REMARK                         _______ _______ _______ _____ _____    ______ ____
ROOT
ATOM      1  C   UNL     1      -1.451  12.895  19.607  0.00  0.00    +0.000 C 
ATOM      2  C   UNL     1      -0.617  11.642  19.641  0.00  0.00    +0.000 A 
ATOM      3  C   UNL     1       0.003  11.190  18.536  0.00  0.00    +0.000 A 
ATOM      4  C   UNL     1       0.800  10.019  18.561  0.00  0.00    +0.000 A 
ATOM      5  N   UNL     1       1.486   9.444  17.595  0.00  0.00    +0.000 NA
ATOM      6  N   UNL     1       2.105   8.337  18.117  0.00  0.00    +0.000 NA
ATOM      7  C   UNL     1       1.779   8.245  19.387  0.00  0.00    +0.000 A 
ATOM      8  N   UNL     1       0.945   9.300  19.743  0.00  0.00    +0.000 N 
ATOM      9  C   UNL     1       0.312   9.707  20.957  0.00  0.00    +0.000 A 
ATOM     10  C   UNL     1       0.440   9.009  22.163  0.00  0.00    +0.000 A 
ATOM     11  C   UNL     1      -0.199   9.466  23.318  0.00  0.00    +0.000 A 
ATOM     12  C   UNL     1      -0.965  10.621  23.283  0.00  0.00    +0.000 A 
ATOM     13  C   UNL     1      -1.100  11.327  22.089  0.00  0.00    +0.000 A 
ATOM     14  C   UNL     1      -0.471  10.887  20.911  0.00  0.00    +0.000 A 
ENDROOT
BRANCH   7  15
ATOM     15  S   UNL     1       2.256   6.915  20.396  0.00  0.00    +0.000 S 
BRANCH  15  16
ATOM     16  C   UNL     1       2.088   5.467  19.306  0.00  0.00    +0.000 C 
BRANCH  16  17
ATOM     17  C   UNL     1       3.391   5.207  18.605  0.00  0.00    +0.000 A 
ATOM     18  C   UNL     1       3.605   4.772  17.309  0.00  0.00    +0.000 A 
ATOM     19  N   UNL     1       4.965   4.666  17.158  0.00  0.00    +0.000 N 
ATOM     20  C   UNL     1       5.707   4.256  16.052  0.00  0.00    +0.000 A 
ATOM     21  C   UNL     1       7.049   4.229  16.133  0.00  0.00    +0.000 A 
ATOM     22  C   UNL     1       7.683   4.628  17.381  0.00  0.00    +0.000 A 
ATOM     23  C   UNL     1       6.957   5.024  18.447  0.00  0.00    +0.000 A 
ATOM     24  C   UNL     1       5.533   5.054  18.366  0.00  0.00    +0.000 A 
ATOM     25  N   UNL     1       4.607   5.388  19.244  0.00  0.00    +0.000 NA
ENDBRANCH  16  17
ENDBRANCH  15  16
ENDBRANCH   7  15
TORSDOF 3
ENDMDL
MODEL 3
REMARK VINA RESULT:      -7.8      2.426      8.394
REMARK  Name = 
REMARK  4 active torsions:
REMARK  status: ('A' for Active; 'I' for Inactive)
REMARK    1  A    between atoms: C_1  and  C_2
REMARK    2  A    between atoms: C_7  and  S_8
REMARK    3  A    between atoms: S_8  and  C_9
REMARK    4  A    between atoms: C_9  and  C_10
REMARK                            x       y       z     vdW  Elec       q    Type
REMARK                         _______ _______ _______ _____ _____    ______ ____
ROOT
ATOM      1  C   UNL     1       4.207   2.620  19.849  0.00  0.00    +0.000 C 
ATOM      2  C   UNL     1       3.695   4.013  19.594  0.00  0.00    +0.000 A 
ATOM      3  C   UNL     1       2.818   4.595  20.431  0.00  0.00    +0.000 A 
ATOM      4  C   UNL     1       2.340   5.909  20.207  0.00  0.00    +0.000 A 
ATOM      5  N   UNL     1       1.504   6.637  20.918  0.00  0.00    +0.000 NA
ATOM      6  N   UNL     1       1.363   7.851  20.294  0.00  0.00    +0.000 NA
ATOM      7  C   UNL     1       2.104   7.842  19.207  0.00  0.00    +0.000 A 
ATOM      8  N   UNL     1       2.766   6.624  19.092  0.00  0.00    +0.000 N 
ATOM      9  C   UNL     1       3.688   6.075  18.149  0.00  0.00    +0.000 A 
ATOM     10  C   UNL     1       4.139   6.767  17.020  0.00  0.00    +0.000 A 
ATOM     11  C   UNL     1       5.049   6.176  16.141  0.00  0.00    +0.000 A 
ATOM     12  C   UNL     1       5.519   4.893  16.380  0.00  0.00    +0.000 A 
ATOM     13  C   UNL     1       5.079   4.192  17.502  0.00  0.00    +0.000 A 
ATOM     14  C   UNL     1       4.161   4.763  18.401  0.00  0.00    +0.000 A 
ENDROOT
BRANCH   7  15
ATOM     15  S   UNL     1       2.122   9.146  18.061  0.00  0.00    +0.000 S 
BRANCH  15  16
ATOM     16  C   UNL     1       1.460  10.556  19.003  0.00  0.00    +0.000 C 
BRANCH  16  17
ATOM     17  C   UNL     1      -0.001  10.726  18.700  0.00  0.00    +0.000 A 
ATOM     18  C   UNL     1      -0.899  11.624  19.248  0.00  0.00    +0.000 A 
ATOM     19  N   UNL     1      -2.112  11.363  18.660  0.00  0.00    +0.000 N 
ATOM     20  C   UNL     1      -3.349  11.970  18.867  0.00  0.00    +0.000 A 
ATOM     21  C   UNL     1      -4.417  11.543  18.170  0.00  0.00    +0.000 A 
ATOM     22  C   UNL     1      -4.242  10.454  17.219  0.00  0.00    +0.000 A 
ATOM     23  C   UNL     1      -3.041   9.872  17.025  0.00  0.00    +0.000 A 
ATOM     24  C   UNL     1      -1.905  10.322  17.762  0.00  0.00    +0.000 A 
ATOM     25  N   UNL     1      -0.646   9.930  17.766  0.00  0.00    +0.000 NA
ENDBRANCH  16  17
ENDBRANCH  15  16
ENDBRANCH   7  15
TORSDOF 3
ENDMDL
MODEL 4
REMARK VINA RESULT:      -7.7      2.379      7.921
REMARK  Name = 
REMARK  4 active torsions:
REMARK  status: ('A' for Active; 'I' for Inactive)
REMARK    1  A    between atoms: C_1  and  C_2
REMARK    2  A    between atoms: C_7  and  S_8
REMARK    3  A    between atoms: S_8  and  C_9
REMARK    4  A    between atoms: C_9  and  C_10
REMARK                            x       y       z     vdW  Elec       q    Type
REMARK                         _______ _______ _______ _____ _____    ______ ____
ROOT
ATOM      1  C   UNL     1       4.446   2.956  17.007  0.00  0.00    +0.000 C 
ATOM      2  C   UNL     1       3.812   4.179  17.616  0.00  0.00    +0.000 A 
ATOM      3  C   UNL     1       4.071   5.408  17.135  0.00  0.00    +0.000 A 
ATOM      4  C   UNL     1       3.469   6.563  17.693  0.00  0.00    +0.000 A 
ATOM      5  N   UNL     1       3.589   7.828  17.347  0.00  0.00    +0.000 NA
ATOM      6  N   UNL     1       2.797   8.572  18.184  0.00  0.00    +0.000 NA
ATOM      7  C   UNL     1       2.217   7.754  19.035  0.00  0.00    +0.000 A 
ATOM      8  N   UNL     1       2.600   6.443  18.773  0.00  0.00    +0.000 N 
ATOM      9  C   UNL     1       2.281   5.176  19.348  0.00  0.00    +0.000 A 
ATOM     10  C   UNL     1       1.408   5.019  20.431  0.00  0.00    +0.000 A 
ATOM     11  C   UNL     1       1.131   3.749  20.942  0.00  0.00    +0.000 A 
ATOM     12  C   UNL     1       1.716   2.626  20.378  0.00  0.00    +0.000 A 
ATOM     13  C   UNL     1       2.586   2.766  19.298  0.00  0.00    +0.000 A 
ATOM     14  C   UNL     1       2.885   4.033  18.766  0.00  0.00    +0.000 A 
ENDROOT
BRANCH   7  15
ATOM     15  S   UNL     1       1.219   8.301  20.347  0.00  0.00    +0.000 S 
BRANCH  15  16
ATOM     16  C   UNL     1       0.997  10.075  20.007  0.00  0.00    +0.000 C 
BRANCH  16  17
ATOM     17  C   UNL     1      -0.228  10.280  19.162  0.00  0.00    +0.000 A 
ATOM     18  C   UNL     1      -0.501   9.784  17.900  0.00  0.00    +0.000 A 
ATOM     19  N   UNL     1      -1.734  10.276  17.552  0.00  0.00    +0.000 N 
ATOM     20  C   UNL     1      -2.465  10.093  16.379  0.00  0.00    +0.000 A 
ATOM     21  C   UNL     1      -3.669  10.681  16.255  0.00  0.00    +0.000 A 
ATOM     22  C   UNL     1      -4.167  11.494  17.355  0.00  0.00    +0.000 A 
ATOM     23  C   UNL     1      -3.453  11.666  18.487  0.00  0.00    +0.000 A 
ATOM     24  C   UNL     1      -2.176  11.045  18.623  0.00  0.00    +0.000 A 
ATOM     25  N   UNL     1      -1.291  11.054  19.601  0.00  0.00    +0.000 NA
ENDBRANCH  16  17
ENDBRANCH  15  16
ENDBRANCH   7  15
TORSDOF 3
ENDMDL
MODEL 5
REMARK VINA RESULT:      -7.6      2.064      8.485
REMARK  Name = 
REMARK  4 active torsions:
REMARK  status: ('A' for Active; 'I' for Inactive)
REMARK    1  A    between atoms: C_1  and  C_2
REMARK    2  A    between atoms: C_7  and  S_8
REMARK    3  A    between atoms: S_8  and  C_9
REMARK    4  A    between atoms: C_9  and  C_10
REMARK                            x       y       z     vdW  Elec       q    Type
REMARK                         _______ _______ _______ _____ _____    ______ ____
ROOT
ATOM      1  C   UNL     1       4.850   3.980  16.948  0.00  0.00    +0.000 C 
ATOM      2  C   UNL     1       4.010   4.911  17.783  0.00  0.00    +0.000 A 
ATOM      3  C   UNL     1       3.837   6.197  17.429  0.00  0.00    +0.000 A 
ATOM      4  C   UNL     1       3.039   7.076  18.201  0.00  0.00    +0.000 A 
ATOM      5  N   UNL     1       2.746   8.345  18.002  0.00  0.00    +0.000 NA
ATOM      6  N   UNL     1       1.927   8.755  19.023  0.00  0.00    +0.000 NA
ATOM      7  C   UNL     1       1.742   7.737  19.836  0.00  0.00    +0.000 A 
ATOM      8  N   UNL     1       2.425   6.621  19.363  0.00  0.00    +0.000 N 
ATOM      9  C   UNL     1       2.567   5.273  19.814  0.00  0.00    +0.000 A 
ATOM     10  C   UNL     1       1.961   4.781  20.976  0.00  0.00    +0.000 A 
ATOM     11  C   UNL     1       2.133   3.449  21.357  0.00  0.00    +0.000 A 
ATOM     12  C   UNL     1       2.906   2.595  20.584  0.00  0.00    +0.000 A 
ATOM     13  C   UNL     1       3.515   3.071  19.424  0.00  0.00    +0.000 A 
ATOM     14  C   UNL     1       3.360   4.409  19.019  0.00  0.00    +0.000 A 
ENDROOT
BRANCH   7  15
ATOM     15  S   UNL     1       0.860   7.860  21.326  0.00  0.00    +0.000 S 
BRANCH  15  16
ATOM     16  C   UNL     1       1.351   9.484  21.984  0.00  0.00    +0.000 C 
BRANCH  16  17
ATOM     17  C   UNL     1       0.201  10.444  21.875  0.00  0.00    +0.000 A 
ATOM     18  C   UNL     1      -0.509  10.819  20.749  0.00  0.00    +0.000 A 
ATOM     19  N   UNL     1      -1.441  11.735  21.169  0.00  0.00    +0.000 N 
ATOM     20  C   UNL     1      -2.396  12.434  20.432  0.00  0.00    +0.000 A 
ATOM     21  C   UNL     1      -3.213  13.295  21.063  0.00  0.00    +0.000 A 
ATOM     22  C   UNL     1      -3.071  13.470  22.501  0.00  0.00    +0.000 A 
ATOM     23  C   UNL     1      -2.143  12.791  23.207  0.00  0.00    +0.000 A 
ATOM     24  C   UNL     1      -1.273  11.876  22.542  0.00  0.00    +0.000 A 
ATOM     25  N   UNL     1      -0.299  11.106  22.986  0.00  0.00    +0.000 NA
ENDBRANCH  16  17
ENDBRANCH  15  16
ENDBRANCH   7  15
TORSDOF 3
ENDMDL
MODEL 6
REMARK VINA RESULT:      -7.6      2.396      8.509
REMARK  Name = 
REMARK  4 active torsions:
REMARK  status: ('A' for Active; 'I' for Inactive)
REMARK    1  A    between atoms: C_1  and  C_2
REMARK    2  A    between atoms: C_7  and  S_8
REMARK    3  A    between atoms: S_8  and  C_9
REMARK    4  A    between atoms: C_9  and  C_10
REMARK                            x       y       z     vdW  Elec       q    Type
REMARK                         _______ _______ _______ _____ _____    ______ ____
ROOT
ATOM      1  C   UNL     1       4.212   2.597  19.544  0.00  0.00    +0.000 C 
ATOM      2  C   UNL     1       3.715   4.004  19.335  0.00  0.00    +0.000 A 
ATOM      3  C   UNL     1       2.848   4.568  20.194  0.00  0.00    +0.000 A 
ATOM      4  C   UNL     1       2.386   5.895  20.014  0.00  0.00    +0.000 A 
ATOM      5  N   UNL     1       1.561   6.609  20.751  0.00  0.00    +0.000 NA
ATOM      6  N   UNL     1       1.433   7.844  20.168  0.00  0.00    +0.000 NA
ATOM      7  C   UNL     1       2.170   7.862  19.079  0.00  0.00    +0.000 A 
ATOM      8  N   UNL     1       2.817   6.641  18.921  0.00  0.00    +0.000 N 
ATOM      9  C   UNL     1       3.729   6.111  17.959  0.00  0.00    +0.000 A 
ATOM     10  C   UNL     1       4.185   6.835  16.851  0.00  0.00    +0.000 A 
ATOM     11  C   UNL     1       5.085   6.261  15.950  0.00  0.00    +0.000 A 
ATOM     12  C   UNL     1       5.541   4.966  16.146  0.00  0.00    +0.000 A 
ATOM     13  C   UNL     1       5.096   4.234  17.245  0.00  0.00    +0.000 A 
ATOM     14  C   UNL     1       4.187   4.786  18.166  0.00  0.00    +0.000 A 
ENDROOT
BRANCH   7  15
ATOM     15  S   UNL     1       2.201   9.202  17.975  0.00  0.00    +0.000 S 
BRANCH  15  16
ATOM     16  C   UNL     1       1.502  10.574  18.947  0.00  0.00    +0.000 C 
BRANCH  16  17
ATOM     17  C   UNL     1       0.023  10.666  18.704  0.00  0.00    +0.000 A 
ATOM     18  C   UNL     1      -0.766   9.893  17.871  0.00  0.00    +0.000 A 
ATOM     19  N   UNL     1      -2.042  10.387  17.982  0.00  0.00    +0.000 N 
ATOM     20  C   UNL     1      -3.212   9.979  17.344  0.00  0.00    +0.000 A 
ATOM     21  C   UNL     1      -4.364  10.621  17.610  0.00  0.00    +0.000 A 
ATOM     22  C   UNL     1      -4.349  11.726  18.557  0.00  0.00    +0.000 A 
ATOM     23  C   UNL     1      -3.211  12.115  19.170  0.00  0.00    +0.000 A 
ATOM     24  C   UNL     1      -1.987  11.438  18.892  0.00  0.00    +0.000 A 
ATOM     25  N   UNL     1      -0.759  11.616  19.341  0.00  0.00    +0.000 NA
ENDBRANCH  16  17
ENDBRANCH  15  16
ENDBRANCH   7  15
TORSDOF 3
ENDMDL
MODEL 7
REMARK VINA RESULT:      -7.6      2.228      3.471
REMARK  Name = 
REMARK  4 active torsions:
REMARK  status: ('A' for Active; 'I' for Inactive)
REMARK    1  A    between atoms: C_1  and  C_2
REMARK    2  A    between atoms: C_7  and  S_8
REMARK    3  A    between atoms: S_8  and  C_9
REMARK    4  A    between atoms: C_9  and  C_10
REMARK                            x       y       z     vdW  Elec       q    Type
REMARK                         _______ _______ _______ _____ _____    ______ ____
ROOT
ATOM      1  C   UNL     1      -3.962  13.310  20.529  0.00  0.00    +0.000 C 
ATOM      2  C   UNL     1      -2.775  12.415  20.287  0.00  0.00    +0.000 A 
ATOM      3  C   UNL     1      -1.803  12.287  21.207  0.00  0.00    +0.000 A 
ATOM      4  C   UNL     1      -0.689  11.438  20.995  0.00  0.00    +0.000 A 
ATOM      5  N   UNL     1       0.337  11.178  21.779  0.00  0.00    +0.000 NA
ATOM      6  N   UNL     1       1.148  10.282  21.132  0.00  0.00    +0.000 NA
ATOM      7  C   UNL     1       0.615  10.018  19.959  0.00  0.00    +0.000 A 
ATOM      8  N   UNL     1      -0.574  10.724  19.807  0.00  0.00    +0.000 N 
ATOM      9  C   UNL     1      -1.558  10.811  18.775  0.00  0.00    +0.000 A 
ATOM     10  C   UNL     1      -1.475  10.104  17.570  0.00  0.00    +0.000 A 
ATOM     11  C   UNL     1      -2.477  10.227  16.605  0.00  0.00    +0.000 A 
ATOM     12  C   UNL     1      -3.569  11.052  16.831  0.00  0.00    +0.000 A 
ATOM     13  C   UNL     1      -3.665  11.761  18.027  0.00  0.00    +0.000 A 
ATOM     14  C   UNL     1      -2.669  11.657  19.015  0.00  0.00    +0.000 A 
ENDROOT
BRANCH   7  15
ATOM     15  S   UNL     1       1.386   9.016  18.769  0.00  0.00    +0.000 S 
BRANCH  15  16
ATOM     16  C   UNL     1       2.036   7.619  19.740  0.00  0.00    +0.000 C 
BRANCH  16  17
ATOM     17  C   UNL     1       3.035   6.854  18.920  0.00  0.00    +0.000 A 
ATOM     18  C   UNL     1       3.669   5.662  19.220  0.00  0.00    +0.000 A 
ATOM     19  N   UNL     1       4.504   5.393  18.165  0.00  0.00    +0.000 N 
ATOM     20  C   UNL     1       5.377   4.324  17.972  0.00  0.00    +0.000 A 
ATOM     21  C   UNL     1       6.109   4.267  16.845  0.00  0.00    +0.000 A 
ATOM     22  C   UNL     1       5.964   5.331  15.862  0.00  0.00    +0.000 A 
ATOM     23  C   UNL     1       5.117   6.362  16.057  0.00  0.00    +0.000 A 
ATOM     24  C   UNL     1       4.339   6.427  17.250  0.00  0.00    +0.000 A 
ATOM     25  N   UNL     1       3.458   7.310  17.681  0.00  0.00    +0.000 NA
ENDBRANCH  16  17
ENDBRANCH  15  16
ENDBRANCH   7  15
TORSDOF 3
ENDMDL
MODEL 8
REMARK VINA RESULT:      -7.5      2.024      8.453
REMARK  Name = 
REMARK  4 active torsions:
REMARK  status: ('A' for Active; 'I' for Inactive)
REMARK    1  A    between atoms: C_1  and  C_2
REMARK    2  A    between atoms: C_7  and  S_8
REMARK    3  A    between atoms: S_8  and  C_9
REMARK    4  A    between atoms: C_9  and  C_10
REMARK                            x       y       z     vdW  Elec       q    Type
REMARK                         _______ _______ _______ _____ _____    ______ ____
ROOT
ATOM      1  C   UNL     1       5.278   4.351  16.978  0.00  0.00    +0.000 C 
ATOM      2  C   UNL     1       4.313   5.190  17.774  0.00  0.00    +0.000 A 
ATOM      3  C   UNL     1       4.054   6.464  17.432  0.00  0.00    +0.000 A 
ATOM      4  C   UNL     1       3.138   7.256  18.167  0.00  0.00    +0.000 A 
ATOM      5  N   UNL     1       2.751   8.500  17.972  0.00  0.00    +0.000 NA
ATOM      6  N   UNL     1       1.840   8.817  18.946  0.00  0.00    +0.000 NA
ATOM      7  C   UNL     1       1.692   7.770  19.727  0.00  0.00    +0.000 A 
ATOM      8  N   UNL     1       2.494   6.725  19.280  0.00  0.00    +0.000 N 
ATOM      9  C   UNL     1       2.722   5.384  19.716  0.00  0.00    +0.000 A 
ATOM     10  C   UNL     1       2.089   4.818  20.828  0.00  0.00    +0.000 A 
ATOM     11  C   UNL     1       2.350   3.496  21.196  0.00  0.00    +0.000 A 
ATOM     12  C   UNL     1       3.238   2.727  20.460  0.00  0.00    +0.000 A 
ATOM     13  C   UNL     1       3.875   3.278  19.349  0.00  0.00    +0.000 A 
ATOM     14  C   UNL     1       3.633   4.607  18.958  0.00  0.00    +0.000 A 
ENDROOT
BRANCH   7  15
ATOM     15  S   UNL     1       0.713   7.785  21.161  0.00  0.00    +0.000 S 
BRANCH  15  16
ATOM     16  C   UNL     1       1.400   9.159  22.137  0.00  0.00    +0.000 C 
BRANCH  16  17
ATOM     17  C   UNL     1       0.359  10.226  22.313  0.00  0.00    +0.000 A 
ATOM     18  C   UNL     1      -0.788  10.197  23.087  0.00  0.00    +0.000 A 
ATOM     19  N   UNL     1      -1.416  11.401  22.890  0.00  0.00    +0.000 N 
ATOM     20  C   UNL     1      -2.614  11.876  23.421  0.00  0.00    +0.000 A 
ATOM     21  C   UNL     1      -3.043  13.105  23.082  0.00  0.00    +0.000 A 
ATOM     22  C   UNL     1      -2.238  13.900  22.166  0.00  0.00    +0.000 A 
ATOM     23  C   UNL     1      -1.080  13.432  21.656  0.00  0.00    +0.000 A 
ATOM     24  C   UNL     1      -0.621  12.129  22.012  0.00  0.00    +0.000 A 
ATOM     25  N   UNL     1       0.451  11.445  21.660  0.00  0.00    +0.000 NA
ENDBRANCH  16  17
ENDBRANCH  15  16
ENDBRANCH   7  15
TORSDOF 3
ENDMDL
MODEL 9
REMARK VINA RESULT:      -7.4      2.444      3.895
REMARK  Name = 
REMARK  4 active torsions:
REMARK  status: ('A' for Active; 'I' for Inactive)
REMARK    1  A    between atoms: C_1  and  C_2
REMARK    2  A    between atoms: C_7  and  S_8
REMARK    3  A    between atoms: S_8  and  C_9
REMARK    4  A    between atoms: C_9  and  C_10
REMARK                            x       y       z     vdW  Elec       q    Type
REMARK                         _______ _______ _______ _____ _____    ______ ____
ROOT
ATOM      1  C   UNL     1      -3.672  13.083  20.459  0.00  0.00    +0.000 C 
ATOM      2  C   UNL     1      -2.545  12.205  19.982  0.00  0.00    +0.000 A 
ATOM      3  C   UNL     1      -1.419  12.067  20.704  0.00  0.00    +0.000 A 
ATOM      4  C   UNL     1      -0.359  11.234  20.270  0.00  0.00    +0.000 A 
ATOM      5  N   UNL     1       0.795  10.966  20.846  0.00  0.00    +0.000 NA
ATOM      6  N   UNL     1       1.478  10.093  20.039  0.00  0.00    +0.000 NA
ATOM      7  C   UNL     1       0.739   9.849  18.979  0.00  0.00    +0.000 A 
ATOM      8  N   UNL     1      -0.461  10.546  19.065  0.00  0.00    +0.000 N 
ATOM      9  C   UNL     1      -1.619  10.647  18.235  0.00  0.00    +0.000 A 
ATOM     10  C   UNL     1      -1.756   9.967  17.019  0.00  0.00    +0.000 A 
ATOM     11  C   UNL     1      -2.920  10.102  16.258  0.00  0.00    +0.000 A 
ATOM     12  C   UNL     1      -3.955  10.910  16.701  0.00  0.00    +0.000 A 
ATOM     13  C   UNL     1      -3.833  11.593  17.910  0.00  0.00    +0.000 A 
ATOM     14  C   UNL     1      -2.672  11.477  18.695  0.00  0.00    +0.000 A 
ENDROOT
BRANCH   7  15
ATOM     15  S   UNL     1       1.283   8.880  17.645  0.00  0.00    +0.000 S 
BRANCH  15  16
ATOM     16  C   UNL     1       2.927   8.306  18.173  0.00  0.00    +0.000 C 
BRANCH  16  17
ATOM     17  C   UNL     1       2.974   6.805  18.140  0.00  0.00    +0.000 A 
ATOM     18  C   UNL     1       4.071   5.977  17.978  0.00  0.00    +0.000 A 
ATOM     19  N   UNL     1       3.588   4.692  17.993  0.00  0.00    +0.000 N 
ATOM     20  C   UNL     1       4.270   3.485  17.854  0.00  0.00    +0.000 A 
ATOM     21  C   UNL     1       3.582   2.330  17.900  0.00  0.00    +0.000 A 
ATOM     22  C   UNL     1       2.140   2.382  18.092  0.00  0.00    +0.000 A 
ATOM     23  C   UNL     1       1.487   3.556  18.226  0.00  0.00    +0.000 A 
ATOM     24  C   UNL     1       2.213   4.783  18.178  0.00  0.00    +0.000 A 
ATOM     25  N   UNL     1       1.826   6.040  18.274  0.00  0.00    +0.000 NA
ENDBRANCH  16  17
ENDBRANCH  15  16
ENDBRANCH   7  15
TORSDOF 3
ENDMDL
