MODEL 1
REMARK VINA RESULT:      -6.6      0.000      0.000
REMARK  Name = 
REMARK  4 active torsions:
REMARK  status: ('A' for Active; 'I' for Inactive)
REMARK    1  A    between atoms: C_1  and  C_2
REMARK    2  A    between atoms: N_4  and  C_5
REMARK    3  A    between atoms: C_6  and  C_7
REMARK    4  A    between atoms: C_13  and  C_14
REMARK                            x       y       z     vdW  Elec       q    Type
REMARK                         _______ _______ _______ _____ _____    ______ ____
ROOT
ATOM      1  C   UNL     1       1.074   3.037  20.198  0.00  0.00    +0.000 C 
ATOM      2  C   UNL     1       2.012   3.903  19.367  0.00  0.00    +0.000 C 
ATOM      3  C   UNL     1       2.409   5.187  20.090  0.00  0.00    +0.000 C 
ATOM      4  N   UNL     1       3.601   5.671  19.375  0.00  0.00    +0.000 NA
ATOM      5  C   UNL     1       3.229   6.625  18.342  0.00  0.00    +0.000 C 
ATOM      6  C   UNL     1       4.346   4.448  18.952  0.00  0.00    +0.000 C 
ATOM      7  C   UNL     1       3.366   3.249  19.085  0.00  0.00    +0.000 C 
ATOM      8  C   UNL     1       3.308   2.244  17.939  0.00  0.00    +0.000 C 
ENDROOT
BRANCH   6   9
ATOM      9  C   UNL     1       5.220   4.510  17.717  0.00  0.00    +0.000 A 
ATOM     10  C   UNL     1       4.739   4.425  16.406  0.00  0.00    +0.000 A 
ATOM     11  C   UNL     1       5.617   4.467  15.326  0.00  0.00    +0.000 A 
ATOM     12  C   UNL     1       6.971   4.561  15.587  0.00  0.00    +0.000 A 
ATOM     13  N   UNL     1       7.489   4.618  16.829  0.00  0.00    +0.000 NA
ATOM     14  C   UNL     1       6.607   4.597  17.857  0.00  0.00    +0.000 A 
ENDBRANCH   6   9
TORSDOF 1
ENDMDL
MODEL 2
REMARK VINA RESULT:      -6.3      1.465      2.393
REMARK  Name = 
REMARK  4 active torsions:
REMARK  status: ('A' for Active; 'I' for Inactive)
REMARK    1  A    between atoms: C_1  and  C_2
REMARK    2  A    between atoms: N_4  and  C_5
REMARK    3  A    between atoms: C_6  and  C_7
REMARK    4  A    between atoms: C_13  and  C_14
REMARK                            x       y       z     vdW  Elec       q    Type
REMARK                         _______ _______ _______ _____ _____    ______ ____
ROOT
ATOM      1  C   UNL     1       0.715   4.033  20.423  0.00  0.00    +0.000 C 
ATOM      2  C   UNL     1       1.951   3.564  19.668  0.00  0.00    +0.000 C 
ATOM      3  C   UNL     1       1.640   2.439  18.686  0.00  0.00    +0.000 C 
ATOM      4  N   UNL     1       2.791   2.406  17.770  0.00  0.00    +0.000 NA
ATOM      5  C   UNL     1       3.782   1.442  18.223  0.00  0.00    +0.000 C 
ATOM      6  C   UNL     1       3.226   3.825  17.613  0.00  0.00    +0.000 C 
ATOM      7  C   UNL     1       2.563   4.635  18.762  0.00  0.00    +0.000 C 
ATOM      8  C   UNL     1       3.429   5.630  19.527  0.00  0.00    +0.000 C 
ENDROOT
BRANCH   6   9
ATOM      9  C   UNL     1       4.677   4.118  17.292  0.00  0.00    +0.000 A 
ATOM     10  C   UNL     1       5.197   4.192  15.995  0.00  0.00    +0.000 A 
ATOM     11  C   UNL     1       6.551   4.442  15.789  0.00  0.00    +0.000 A 
ATOM     12  C   UNL     1       7.367   4.582  16.896  0.00  0.00    +0.000 A 
ATOM     13  N   UNL     1       6.924   4.492  18.165  0.00  0.00    +0.000 NA
ATOM     14  C   UNL     1       5.597   4.269  18.331  0.00  0.00    +0.000 A 
ENDBRANCH   6   9
TORSDOF 1
ENDMDL
MODEL 3
REMARK VINA RESULT:      -6.2      1.666      1.683
REMARK  Name = 
REMARK  4 active torsions:
REMARK  status: ('A' for Active; 'I' for Inactive)
REMARK    1  A    between atoms: C_1  and  C_2
REMARK    2  A    between atoms: N_4  and  C_5
REMARK    3  A    between atoms: C_6  and  C_7
REMARK    4  A    between atoms: C_13  and  C_14
REMARK                            x       y       z     vdW  Elec       q    Type
REMARK                         _______ _______ _______ _____ _____    ______ ____
ROOT
ATOM      1  C   UNL     1       0.797   2.572  18.876  0.00  0.00    +0.000 C 
ATOM      2  C   UNL     1       1.677   3.814  18.859  0.00  0.00    +0.000 C 
ATOM      3  C   UNL     1       1.582   4.611  20.157  0.00  0.00    +0.000 C 
ATOM      4  N   UNL     1       2.763   5.488  20.151  0.00  0.00    +0.000 NA
ATOM      5  C   UNL     1       2.436   6.788  19.584  0.00  0.00    +0.000 C 
ATOM      6  C   UNL     1       3.850   4.702  19.497  0.00  0.00    +0.000 C 
ATOM      7  C   UNL     1       3.174   3.508  18.768  0.00  0.00    +0.000 C 
ATOM      8  C   UNL     1       3.625   3.191  17.347  0.00  0.00    +0.000 C 
ENDROOT
BRANCH   6   9
ATOM      9  C   UNL     1       4.954   5.440  18.768  0.00  0.00    +0.000 A 
ATOM     10  C   UNL     1       4.767   6.175  17.593  0.00  0.00    +0.000 A 
ATOM     11  C   UNL     1       5.843   6.804  16.973  0.00  0.00    +0.000 A 
ATOM     12  C   UNL     1       7.099   6.653  17.530  0.00  0.00    +0.000 A 
ATOM     13  N   UNL     1       7.339   5.934  18.643  0.00  0.00    +0.000 NA
ATOM     14  C   UNL     1       6.267   5.353  19.235  0.00  0.00    +0.000 A 
ENDBRANCH   6   9
TORSDOF 1
ENDMDL
MODEL 4
REMARK VINA RESULT:      -6.1      1.478      2.604
REMARK  Name = 
REMARK  4 active torsions:
REMARK  status: ('A' for Active; 'I' for Inactive)
REMARK    1  A    between atoms: C_1  and  C_2
REMARK    2  A    between atoms: N_4  and  C_5
REMARK    3  A    between atoms: C_6  and  C_7
REMARK    4  A    between atoms: C_13  and  C_14
REMARK                            x       y       z     vdW  Elec       q    Type
REMARK                         _______ _______ _______ _____ _____    ______ ____
ROOT
ATOM      1  C   UNL     1       0.771   4.201  20.410  0.00  0.00    +0.000 C 
ATOM      2  C   UNL     1       1.984   3.695  19.642  0.00  0.00    +0.000 C 
ATOM      3  C   UNL     1       1.636   2.549  18.696  0.00  0.00    +0.000 C 
ATOM      4  N   UNL     1       2.766   2.477  17.756  0.00  0.00    +0.000 NA
ATOM      5  C   UNL     1       3.753   1.510  18.213  0.00  0.00    +0.000 C 
ATOM      6  C   UNL     1       3.218   3.885  17.555  0.00  0.00    +0.000 C 
ATOM      7  C   UNL     1       2.591   4.733  18.695  0.00  0.00    +0.000 C 
ATOM      8  C   UNL     1       3.487   5.735  19.416  0.00  0.00    +0.000 C 
ENDROOT
BRANCH   6   9
ATOM      9  C   UNL     1       4.665   4.148  17.195  0.00  0.00    +0.000 A 
ATOM     10  C   UNL     1       5.686   4.348  18.130  0.00  0.00    +0.000 A 
ATOM     11  C   UNL     1       6.988   4.608  17.712  0.00  0.00    +0.000 A 
ATOM     12  C   UNL     1       7.234   4.696  16.355  0.00  0.00    +0.000 A 
ATOM     13  N   UNL     1       6.284   4.540  15.413  0.00  0.00    +0.000 NA
ATOM     14  C   UNL     1       5.032   4.266  15.852  0.00  0.00    +0.000 A 
ENDBRANCH   6   9
TORSDOF 1
ENDMDL
MODEL 5
REMARK VINA RESULT:      -6.0      1.683      2.079
REMARK  Name = 
REMARK  4 active torsions:
REMARK  status: ('A' for Active; 'I' for Inactive)
REMARK    1  A    between atoms: C_1  and  C_2
REMARK    2  A    between atoms: N_4  and  C_5
REMARK    3  A    between atoms: C_6  and  C_7
REMARK    4  A    between atoms: C_13  and  C_14
REMARK                            x       y       z     vdW  Elec       q    Type
REMARK                         _______ _______ _______ _____ _____    ______ ____
ROOT
ATOM      1  C   UNL     1       1.107   2.588  18.574  0.00  0.00    +0.000 C 
ATOM      2  C   UNL     1       1.987   3.831  18.576  0.00  0.00    +0.000 C 
ATOM      3  C   UNL     1       1.792   4.678  19.830  0.00  0.00    +0.000 C 
ATOM      4  N   UNL     1       2.970   5.557  19.881  0.00  0.00    +0.000 NA
ATOM      5  C   UNL     1       2.689   6.833  19.239  0.00  0.00    +0.000 C 
ATOM      6  C   UNL     1       4.104   4.749  19.344  0.00  0.00    +0.000 C 
ATOM      7  C   UNL     1       3.486   3.525  18.613  0.00  0.00    +0.000 C 
ATOM      8  C   UNL     1       4.045   3.153  17.244  0.00  0.00    +0.000 C 
ENDROOT
BRANCH   6   9
ATOM      9  C   UNL     1       5.261   5.460  18.673  0.00  0.00    +0.000 A 
ATOM     10  C   UNL     1       6.573   5.460  19.158  0.00  0.00    +0.000 A 
ATOM     11  C   UNL     1       7.574   6.161  18.491  0.00  0.00    +0.000 A 
ATOM     12  C   UNL     1       7.229   6.879  17.361  0.00  0.00    +0.000 A 
ATOM     13  N   UNL     1       5.977   6.936  16.867  0.00  0.00    +0.000 NA
ATOM     14  C   UNL     1       5.031   6.225  17.528  0.00  0.00    +0.000 A 
ENDBRANCH   6   9
TORSDOF 1
ENDMDL
MODEL 6
REMARK VINA RESULT:      -6.0      0.788      1.304
REMARK  Name = 
REMARK  4 active torsions:
REMARK  status: ('A' for Active; 'I' for Inactive)
REMARK    1  A    between atoms: C_1  and  C_2
REMARK    2  A    between atoms: N_4  and  C_5
REMARK    3  A    between atoms: C_6  and  C_7
REMARK    4  A    between atoms: C_13  and  C_14
REMARK                            x       y       z     vdW  Elec       q    Type
REMARK                         _______ _______ _______ _____ _____    ______ ____
ROOT
ATOM      1  C   UNL     1       1.041   2.920  20.441  0.00  0.00    +0.000 C 
ATOM      2  C   UNL     1       1.969   3.770  19.584  0.00  0.00    +0.000 C 
ATOM      3  C   UNL     1       2.292   5.112  20.233  0.00  0.00    +0.000 C 
ATOM      4  N   UNL     1       3.486   5.599  19.523  0.00  0.00    +0.000 NA
ATOM      5  C   UNL     1       3.109   6.470  18.421  0.00  0.00    +0.000 C 
ATOM      6  C   UNL     1       4.291   4.384  19.201  0.00  0.00    +0.000 C 
ATOM      7  C   UNL     1       3.356   3.156  19.382  0.00  0.00    +0.000 C 
ATOM      8  C   UNL     1       3.372   2.080  18.302  0.00  0.00    +0.000 C 
ENDROOT
BRANCH   6   9
ATOM      9  C   UNL     1       5.200   4.404  17.989  0.00  0.00    +0.000 A 
ATOM     10  C   UNL     1       6.582   4.607  18.045  0.00  0.00    +0.000 A 
ATOM     11  C   UNL     1       7.341   4.635  16.878  0.00  0.00    +0.000 A 
ATOM     12  C   UNL     1       6.688   4.491  15.669  0.00  0.00    +0.000 A 
ATOM     13  N   UNL     1       5.356   4.321  15.556  0.00  0.00    +0.000 NA
ATOM     14  C   UNL     1       4.650   4.276  16.712  0.00  0.00    +0.000 A 
ENDBRANCH   6   9
TORSDOF 1
ENDMDL
MODEL 7
REMARK VINA RESULT:      -5.8      1.636      2.737
REMARK  Name = 
REMARK  4 active torsions:
REMARK  status: ('A' for Active; 'I' for Inactive)
REMARK    1  A    between atoms: C_1  and  C_2
REMARK    2  A    between atoms: N_4  and  C_5
REMARK    3  A    between atoms: C_6  and  C_7
REMARK    4  A    between atoms: C_13  and  C_14
REMARK                            x       y       z     vdW  Elec       q    Type
REMARK                         _______ _______ _______ _____ _____    ______ ____
ROOT
ATOM      1  C   UNL     1       0.329   3.058  18.780  0.00  0.00    +0.000 C 
ATOM      2  C   UNL     1       1.833   3.143  19.004  0.00  0.00    +0.000 C 
ATOM      3  C   UNL     1       2.498   1.770  19.012  0.00  0.00    +0.000 C 
ATOM      4  N   UNL     1       3.929   2.040  18.807  0.00  0.00    +0.000 NA
ATOM      5  C   UNL     1       4.622   2.142  20.083  0.00  0.00    +0.000 C 
ATOM      6  C   UNL     1       3.994   3.216  17.890  0.00  0.00    +0.000 C 
ATOM      7  C   UNL     1       2.583   3.868  17.884  0.00  0.00    +0.000 C 
ATOM      8  C   UNL     1       2.496   5.385  18.003  0.00  0.00    +0.000 C 
ENDROOT
BRANCH   6   9
ATOM      9  C   UNL     1       5.195   4.136  17.957  0.00  0.00    +0.000 A 
ATOM     10  C   UNL     1       5.598   4.822  19.108  0.00  0.00    +0.000 A 
ATOM     11  C   UNL     1       6.703   5.669  19.076  0.00  0.00    +0.000 A 
ATOM     12  C   UNL     1       7.364   5.837  17.874  0.00  0.00    +0.000 A 
ATOM     13  N   UNL     1       7.001   5.224  16.730  0.00  0.00    +0.000 NA
ATOM     14  C   UNL     1       5.936   4.389  16.801  0.00  0.00    +0.000 A 
ENDBRANCH   6   9
TORSDOF 1
ENDMDL
MODEL 8
REMARK VINA RESULT:      -5.8      2.265      4.973
REMARK  Name = 
REMARK  4 active torsions:
REMARK  status: ('A' for Active; 'I' for Inactive)
REMARK    1  A    between atoms: C_1  and  C_2
REMARK    2  A    between atoms: N_4  and  C_5
REMARK    3  A    between atoms: C_6  and  C_7
REMARK    4  A    between atoms: C_13  and  C_14
REMARK                            x       y       z     vdW  Elec       q    Type
REMARK                         _______ _______ _______ _____ _____    ______ ____
ROOT
ATOM      1  C   UNL     1       5.850   6.823  16.709  0.00  0.00    +0.000 C 
ATOM      2  C   UNL     1       4.738   6.585  17.722  0.00  0.00    +0.000 C 
ATOM      3  C   UNL     1       3.516   7.458  17.458  0.00  0.00    +0.000 C 
ATOM      4  N   UNL     1       2.425   6.823  18.213  0.00  0.00    +0.000 NA
ATOM      5  C   UNL     1       2.297   7.421  19.534  0.00  0.00    +0.000 C 
ATOM      6  C   UNL     1       2.682   5.355  18.142  0.00  0.00    +0.000 C 
ATOM      7  C   UNL     1       4.152   5.171  17.672  0.00  0.00    +0.000 C 
ATOM      8  C   UNL     1       5.015   4.150  18.405  0.00  0.00    +0.000 C 
ENDROOT
BRANCH   6   9
ATOM      9  C   UNL     1       2.185   4.465  19.262  0.00  0.00    +0.000 A 
ATOM     10  C   UNL     1       2.618   4.553  20.589  0.00  0.00    +0.000 A 
ATOM     11  C   UNL     1       2.126   3.678  21.554  0.00  0.00    +0.000 A 
ATOM     12  C   UNL     1       1.228   2.706  21.158  0.00  0.00    +0.000 A 
ATOM     13  N   UNL     1       0.799   2.558  19.889  0.00  0.00    +0.000 NA
ATOM     14  C   UNL     1       1.280   3.440  18.979  0.00  0.00    +0.000 A 
ENDBRANCH   6   9
TORSDOF 1
ENDMDL
MODEL 9
REMARK VINA RESULT:      -5.8      1.818      5.084
REMARK  Name = 
REMARK  4 active torsions:
REMARK  status: ('A' for Active; 'I' for Inactive)
REMARK    1  A    between atoms: C_1  and  C_2
REMARK    2  A    between atoms: N_4  and  C_5
REMARK    3  A    between atoms: C_6  and  C_7
REMARK    4  A    between atoms: C_13  and  C_14
REMARK                            x       y       z     vdW  Elec       q    Type
REMARK                         _______ _______ _______ _____ _____    ______ ____
ROOT
ATOM      1  C   UNL     1       5.199   6.601  16.405  0.00  0.00    +0.000 C 
ATOM      2  C   UNL     1       4.351   5.470  16.972  0.00  0.00    +0.000 C 
ATOM      3  C   UNL     1       4.815   4.099  16.490  0.00  0.00    +0.000 C 
ATOM      4  N   UNL     1       4.206   3.142  17.427  0.00  0.00    +0.000 NA
ATOM      5  C   UNL     1       2.937   2.653  16.910  0.00  0.00    +0.000 C 
ATOM      6  C   UNL     1       4.195   3.824  18.755  0.00  0.00    +0.000 C 
ATOM      7  C   UNL     1       4.442   5.335  18.494  0.00  0.00    +0.000 C 
ATOM      8  C   UNL     1       3.561   6.341  19.227  0.00  0.00    +0.000 C 
ENDROOT
BRANCH   6   9
ATOM      9  C   UNL     1       3.131   3.448  19.766  0.00  0.00    +0.000 A 
ATOM     10  C   UNL     1       1.779   3.787  19.649  0.00  0.00    +0.000 A 
ATOM     11  C   UNL     1       0.871   3.422  20.639  0.00  0.00    +0.000 A 
ATOM     12  C   UNL     1       1.346   2.748  21.748  0.00  0.00    +0.000 A 
ATOM     13  N   UNL     1       2.642   2.421  21.924  0.00  0.00    +0.000 NA
ATOM     14  C   UNL     1       3.496   2.772  20.932  0.00  0.00    +0.000 A 
ENDBRANCH   6   9
TORSDOF 1
ENDMDL
