MODEL 1
REMARK VINA RESULT:      -9.7      0.000      0.000
REMARK  Name = 
REMARK  4 active torsions:
REMARK  status: ('A' for Active; 'I' for Inactive)
REMARK    1  A    between atoms: C_1  and  C_2
REMARK    2  A    between atoms: C_4  and  N_5
REMARK    3  A    between atoms: N_5  and  C_6
REMARK    4  A    between atoms: C_17  and  C_18
REMARK                            x       y       z     vdW  Elec       q    Type
REMARK                         _______ _______ _______ _____ _____    ______ ____
ROOT
ATOM      1  C   UNL     1       1.153   2.746  20.105  0.00  0.00    +0.000 C 
ATOM      2  C   UNL     1       1.802   4.086  19.947  0.00  0.00    +0.000 A 
ATOM      3  C   UNL     1       1.317   5.193  20.608  0.00  0.00    +0.000 A 
ATOM      4  C   UNL     1       1.998   6.382  20.430  0.00  0.00    +0.000 A 
ATOM      5  N   UNL     1       3.062   6.462  19.611  0.00  0.00    +0.000 NA
ATOM      6  C   UNL     1       3.480   5.339  19.000  0.00  0.00    +0.000 A 
ATOM      7  N   UNL     1       2.877   4.141  19.149  0.00  0.00    +0.000 NA
ENDROOT
BRANCH   6   8
ATOM      8  C   UNL     1       4.699   5.395  18.107  0.00  0.00    +0.000 C 
ATOM      9  C   UNL     1       4.820   4.119  17.234  0.00  0.00    +0.000 C 
ATOM     10  C   UNL     1       6.055   4.190  16.330  0.00  0.00    +0.000 C 
ATOM     11  C   UNL     1       5.940   5.416  15.410  0.00  0.00    +0.000 C 
ATOM     12  C   UNL     1       5.857   6.699  16.251  0.00  0.00    +0.000 C 
ATOM     13  C   UNL     1       7.114   6.825  17.127  0.00  0.00    +0.000 C 
ATOM     14  C   UNL     1       7.229   5.606  18.056  0.00  0.00    +0.000 C 
ATOM     15  C   UNL     1       7.311   4.328  17.205  0.00  0.00    +0.000 C 
ATOM     16  C   UNL     1       5.988   5.531  18.962  0.00  0.00    +0.000 C 
ATOM     17  C   UNL     1       4.616   6.626  17.156  0.00  0.00    +0.000 C 
ENDBRANCH   6   8
BRANCH   4  18
ATOM     18  N   UNL     1       1.522   7.535  21.093  0.00  0.00    +0.000 N 
ATOM     19  H   UNL     1       1.732   7.505  22.084  0.00  0.00    +0.000 HD
BRANCH  18  20
ATOM     20  C   UNL     1       1.117   8.697  20.529  0.00  0.00    +0.000 A 
ATOM     21  C   UNL     1       1.351   9.067  19.224  0.00  0.00    +0.000 A 
ATOM     22  N   UNL     1       0.644  10.211  18.976  0.00  0.00    +0.000 N 
ATOM     23  C   UNL     1      -0.015  10.605  20.110  0.00  0.00    +0.000 A 
ATOM     24  N   UNL     1      -0.815  11.686  20.189  0.00  0.00    +0.000 NA
ATOM     25  C   UNL     1      -1.353  11.845  21.425  0.00  0.00    +0.000 A 
ATOM     26  C   UNL     1      -1.128  11.013  22.512  0.00  0.00    +0.000 A 
ATOM     27  F   UNL     1      -1.722  11.263  23.688  0.00  0.00    +0.000 F 
ATOM     28  C   UNL     1      -0.297   9.907  22.381  0.00  0.00    +0.000 A 
ATOM     29  C   UNL     1       0.277   9.685  21.118  0.00  0.00    +0.000 A 
ATOM     30  H   UNL     1       0.567  10.683  18.088  0.00  0.00    +0.000 HD
ENDBRANCH  18  20
ENDBRANCH   4  18
TORSDOF 3
ENDMDL
MODEL 2
REMARK VINA RESULT:      -9.7      0.417      1.476
REMARK  Name = 
REMARK  4 active torsions:
REMARK  status: ('A' for Active; 'I' for Inactive)
REMARK    1  A    between atoms: C_1  and  C_2
REMARK    2  A    between atoms: C_4  and  N_5
REMARK    3  A    between atoms: N_5  and  C_6
REMARK    4  A    between atoms: C_17  and  C_18
REMARK                            x       y       z     vdW  Elec       q    Type
REMARK                         _______ _______ _______ _____ _____    ______ ____
ROOT
ATOM      1  C   UNL     1       1.278   2.516  19.475  0.00  0.00    +0.000 C 
ATOM      2  C   UNL     1       1.920   3.867  19.531  0.00  0.00    +0.000 A 
ATOM      3  C   UNL     1       1.349   4.897  20.246  0.00  0.00    +0.000 A 
ATOM      4  C   UNL     1       2.028   6.100  20.270  0.00  0.00    +0.000 A 
ATOM      5  N   UNL     1       3.175   6.269  19.588  0.00  0.00    +0.000 NA
ATOM      6  C   UNL     1       3.675   5.218  18.914  0.00  0.00    +0.000 A 
ATOM      7  N   UNL     1       3.076   4.009  18.868  0.00  0.00    +0.000 NA
ENDROOT
BRANCH   6   8
ATOM      8  C   UNL     1       4.984   5.371  18.174  0.00  0.00    +0.000 C 
ATOM      9  C   UNL     1       6.179   5.490  19.156  0.00  0.00    +0.000 C 
ATOM     10  C   UNL     1       7.500   5.638  18.394  0.00  0.00    +0.000 C 
ATOM     11  C   UNL     1       7.711   4.407  17.498  0.00  0.00    +0.000 C 
ATOM     12  C   UNL     1       6.558   4.288  16.489  0.00  0.00    +0.000 C 
ATOM     13  C   UNL     1       6.498   5.555  15.621  0.00  0.00    +0.000 C 
ATOM     14  C   UNL     1       6.278   6.790  16.511  0.00  0.00    +0.000 C 
ATOM     15  C   UNL     1       7.435   6.899  17.518  0.00  0.00    +0.000 C 
ATOM     16  C   UNL     1       4.954   6.640  17.280  0.00  0.00    +0.000 C 
ATOM     17  C   UNL     1       5.234   4.137  17.256  0.00  0.00    +0.000 C 
ENDBRANCH   6   8
BRANCH   4  18
ATOM     18  N   UNL     1       1.465   7.175  20.993  0.00  0.00    +0.000 N 
ATOM     19  H   UNL     1       1.467   6.992  21.989  0.00  0.00    +0.000 HD
BRANCH  18  20
ATOM     20  C   UNL     1       1.222   8.429  20.542  0.00  0.00    +0.000 A 
ATOM     21  C   UNL     1       1.622   8.921  19.320  0.00  0.00    +0.000 A 
ATOM     22  N   UNL     1       1.045  10.150  19.152  0.00  0.00    +0.000 N 
ATOM     23  C   UNL     1       0.308  10.474  20.259  0.00  0.00    +0.000 A 
ATOM     24  N   UNL     1      -0.401  11.611  20.397  0.00  0.00    +0.000 NA
ATOM     25  C   UNL     1      -1.050  11.678  21.587  0.00  0.00    +0.000 A 
ATOM     26  C   UNL     1      -1.011  10.708  22.579  0.00  0.00    +0.000 A 
ATOM     27  F   UNL     1      -1.702  10.878  23.716  0.00  0.00    +0.000 F 
ATOM     28  C   UNL     1      -0.269   9.549  22.389  0.00  0.00    +0.000 A 
ATOM     29  C   UNL     1       0.413   9.419  21.168  0.00  0.00    +0.000 A 
ATOM     30  H   UNL     1       1.102  10.727  18.326  0.00  0.00    +0.000 HD
ENDBRANCH  18  20
ENDBRANCH   4  18
TORSDOF 3
ENDMDL
MODEL 3
REMARK VINA RESULT:      -9.6      0.523      1.535
REMARK  Name = 
REMARK  4 active torsions:
REMARK  status: ('A' for Active; 'I' for Inactive)
REMARK    1  A    between atoms: C_1  and  C_2
REMARK    2  A    between atoms: C_4  and  N_5
REMARK    3  A    between atoms: N_5  and  C_6
REMARK    4  A    between atoms: C_17  and  C_18
REMARK                            x       y       z     vdW  Elec       q    Type
REMARK                         _______ _______ _______ _____ _____    ______ ____
ROOT
ATOM      1  C   UNL     1       1.235   2.596  19.227  0.00  0.00    +0.000 C 
ATOM      2  C   UNL     1       1.913   3.923  19.364  0.00  0.00    +0.000 A 
ATOM      3  C   UNL     1       1.343   4.941  20.097  0.00  0.00    +0.000 A 
ATOM      4  C   UNL     1       2.054   6.121  20.197  0.00  0.00    +0.000 A 
ATOM      5  N   UNL     1       3.232   6.282  19.569  0.00  0.00    +0.000 NA
ATOM      6  C   UNL     1       3.729   5.244  18.873  0.00  0.00    +0.000 A 
ATOM      7  N   UNL     1       3.099   4.056  18.754  0.00  0.00    +0.000 NA
ENDROOT
BRANCH   6   8
ATOM      8  C   UNL     1       5.072   5.387  18.192  0.00  0.00    +0.000 C 
ATOM      9  C   UNL     1       5.141   6.683  17.344  0.00  0.00    +0.000 C 
ATOM     10  C   UNL     1       6.509   6.820  16.665  0.00  0.00    +0.000 C 
ATOM     11  C   UNL     1       7.606   6.868  17.739  0.00  0.00    +0.000 C 
ATOM     12  C   UNL     1       7.584   5.576  18.572  0.00  0.00    +0.000 C 
ATOM     13  C   UNL     1       7.811   4.365  17.653  0.00  0.00    +0.000 C 
ATOM     14  C   UNL     1       6.711   4.307  16.581  0.00  0.00    +0.000 C 
ATOM     15  C   UNL     1       6.741   5.603  15.755  0.00  0.00    +0.000 C 
ATOM     16  C   UNL     1       5.337   4.174  17.262  0.00  0.00    +0.000 C 
ATOM     17  C   UNL     1       6.212   5.443  19.254  0.00  0.00    +0.000 C 
ENDBRANCH   6   8
BRANCH   4  18
ATOM     18  N   UNL     1       1.492   7.183  20.939  0.00  0.00    +0.000 N 
ATOM     19  H   UNL     1       1.532   6.999  21.935  0.00  0.00    +0.000 HD
BRANCH  18  20
ATOM     20  C   UNL     1       1.208   8.432  20.499  0.00  0.00    +0.000 A 
ATOM     21  C   UNL     1       1.571   8.939  19.272  0.00  0.00    +0.000 A 
ATOM     22  N   UNL     1       0.958  10.153  19.121  0.00  0.00    +0.000 N 
ATOM     23  C   UNL     1       0.235  10.453  20.244  0.00  0.00    +0.000 A 
ATOM     24  N   UNL     1      -0.500  11.571  20.401  0.00  0.00    +0.000 NA
ATOM     25  C   UNL     1      -1.126  11.616  21.604  0.00  0.00    +0.000 A 
ATOM     26  C   UNL     1      -1.043  10.644  22.590  0.00  0.00    +0.000 A 
ATOM     27  F   UNL     1      -1.714  10.792  23.742  0.00  0.00    +0.000 F 
ATOM     28  C   UNL     1      -0.274   9.506  22.381  0.00  0.00    +0.000 A 
ATOM     29  C   UNL     1       0.386   9.398  21.146  0.00  0.00    +0.000 A 
ATOM     30  H   UNL     1       0.983  10.734  18.296  0.00  0.00    +0.000 HD
ENDBRANCH  18  20
ENDBRANCH   4  18
TORSDOF 3
ENDMDL
MODEL 4
REMARK VINA RESULT:      -9.4      1.670      2.177
REMARK  Name = 
REMARK  4 active torsions:
REMARK  status: ('A' for Active; 'I' for Inactive)
REMARK    1  A    between atoms: C_1  and  C_2
REMARK    2  A    between atoms: C_4  and  N_5
REMARK    3  A    between atoms: N_5  and  C_6
REMARK    4  A    between atoms: C_17  and  C_18
REMARK                            x       y       z     vdW  Elec       q    Type
REMARK                         _______ _______ _______ _____ _____    ______ ____
ROOT
ATOM      1  C   UNL     1       0.721   2.731  19.366  0.00  0.00    +0.000 C 
ATOM      2  C   UNL     1       1.530   3.983  19.505  0.00  0.00    +0.000 A 
ATOM      3  C   UNL     1       1.179   4.960  20.411  0.00  0.00    +0.000 A 
ATOM      4  C   UNL     1       2.001   6.066  20.496  0.00  0.00    +0.000 A 
ATOM      5  N   UNL     1       3.074   6.202  19.696  0.00  0.00    +0.000 NA
ATOM      6  C   UNL     1       3.357   5.207  18.836  0.00  0.00    +0.000 A 
ATOM      7  N   UNL     1       2.610   4.088  18.720  0.00  0.00    +0.000 NA
ENDROOT
BRANCH   6   8
ATOM      8  C   UNL     1       4.582   5.318  17.956  0.00  0.00    +0.000 C 
ATOM      9  C   UNL     1       4.724   4.083  17.028  0.00  0.00    +0.000 C 
ATOM     10  C   UNL     1       5.965   4.210  16.137  0.00  0.00    +0.000 C 
ATOM     11  C   UNL     1       5.840   5.473  15.271  0.00  0.00    +0.000 C 
ATOM     12  C   UNL     1       5.735   6.717  16.167  0.00  0.00    +0.000 C 
ATOM     13  C   UNL     1       6.984   6.820  17.057  0.00  0.00    +0.000 C 
ATOM     14  C   UNL     1       7.109   5.562  17.933  0.00  0.00    +0.000 C 
ATOM     15  C   UNL     1       7.213   4.325  17.027  0.00  0.00    +0.000 C 
ATOM     16  C   UNL     1       5.862   5.432  18.825  0.00  0.00    +0.000 C 
ATOM     17  C   UNL     1       4.488   6.588  17.059  0.00  0.00    +0.000 C 
ENDBRANCH   6   8
BRANCH   4  18
ATOM     18  N   UNL     1       1.665   7.085  21.413  0.00  0.00    +0.000 N 
ATOM     19  H   UNL     1       2.307   7.104  22.197  0.00  0.00    +0.000 HD
BRANCH  18  20
ATOM     20  C   UNL     1       0.825   8.129  21.210  0.00  0.00    +0.000 A 
ATOM     21  C   UNL     1      -0.232   8.463  22.026  0.00  0.00    +0.000 A 
ATOM     22  N   UNL     1      -0.729   9.664  21.600  0.00  0.00    +0.000 N 
ATOM     23  C   UNL     1      -0.033  10.092  20.501  0.00  0.00    +0.000 A 
ATOM     24  N   UNL     1      -0.266  11.252  19.856  0.00  0.00    +0.000 NA
ATOM     25  C   UNL     1       0.573  11.440  18.806  0.00  0.00    +0.000 A 
ATOM     26  C   UNL     1       1.569  10.561  18.406  0.00  0.00    +0.000 A 
ATOM     27  F   UNL     1       2.347  10.856  17.354  0.00  0.00    +0.000 F 
ATOM     28  C   UNL     1       1.774   9.378  19.106  0.00  0.00    +0.000 A 
ATOM     29  C   UNL     1       0.943   9.137  20.213  0.00  0.00    +0.000 A 
ATOM     30  H   UNL     1      -1.465  10.195  22.042  0.00  0.00    +0.000 HD
ENDBRANCH  18  20
ENDBRANCH   4  18
TORSDOF 3
ENDMDL
MODEL 5
REMARK VINA RESULT:      -9.4      1.827      4.247
REMARK  Name = 
REMARK  4 active torsions:
REMARK  status: ('A' for Active; 'I' for Inactive)
REMARK    1  A    between atoms: C_1  and  C_2
REMARK    2  A    between atoms: C_4  and  N_5
REMARK    3  A    between atoms: N_5  and  C_6
REMARK    4  A    between atoms: C_17  and  C_18
REMARK                            x       y       z     vdW  Elec       q    Type
REMARK                         _______ _______ _______ _____ _____    ______ ____
ROOT
ATOM      1  C   UNL     1       6.091   7.164  16.910  0.00  0.00    +0.000 C 
ATOM      2  C   UNL     1       4.691   7.127  17.440  0.00  0.00    +0.000 A 
ATOM      3  C   UNL     1       3.864   8.225  17.342  0.00  0.00    +0.000 A 
ATOM      4  C   UNL     1       2.578   8.091  17.828  0.00  0.00    +0.000 A 
ATOM      5  N   UNL     1       2.166   6.951  18.410  0.00  0.00    +0.000 NA
ATOM      6  C   UNL     1       3.028   5.919  18.469  0.00  0.00    +0.000 A 
ATOM      7  N   UNL     1       4.290   5.974  17.992  0.00  0.00    +0.000 NA
ENDROOT
BRANCH   6   8
ATOM      8  C   UNL     1       2.575   4.613  19.082  0.00  0.00    +0.000 C 
ATOM      9  C   UNL     1       1.673   4.852  20.321  0.00  0.00    +0.000 C 
ATOM     10  C   UNL     1       1.216   3.521  20.928  0.00  0.00    +0.000 C 
ATOM     11  C   UNL     1       0.421   2.730  19.878  0.00  0.00    +0.000 C 
ATOM     12  C   UNL     1       1.304   2.447  18.653  0.00  0.00    +0.000 C 
ATOM     13  C   UNL     1       2.540   1.640  19.083  0.00  0.00    +0.000 C 
ATOM     14  C   UNL     1       3.345   2.431  20.128  0.00  0.00    +0.000 C 
ATOM     15  C   UNL     1       2.452   2.710  21.347  0.00  0.00    +0.000 C 
ATOM     16  C   UNL     1       3.801   3.768  19.519  0.00  0.00    +0.000 C 
ATOM     17  C   UNL     1       1.760   3.783  18.044  0.00  0.00    +0.000 C 
ENDBRANCH   6   8
BRANCH   4  18
ATOM     18  N   UNL     1       1.709   9.200  17.744  0.00  0.00    +0.000 N 
ATOM     19  H   UNL     1       1.003   9.064  17.030  0.00  0.00    +0.000 HD
BRANCH  18  20
ATOM     20  C   UNL     1       1.565  10.201  18.646  0.00  0.00    +0.000 A 
ATOM     21  C   UNL     1       1.929  11.512  18.437  0.00  0.00    +0.000 A 
ATOM     22  N   UNL     1       1.470  12.249  19.494  0.00  0.00    +0.000 N 
ATOM     23  C   UNL     1       0.848  11.430  20.398  0.00  0.00    +0.000 A 
ATOM     24  N   UNL     1       0.271  11.854  21.539  0.00  0.00    +0.000 NA
ATOM     25  C   UNL     1      -0.284  10.839  22.249  0.00  0.00    +0.000 A 
ATOM     26  C   UNL     1      -0.276   9.502  21.879  0.00  0.00    +0.000 A 
ATOM     27  F   UNL     1      -0.865   8.583  22.658  0.00  0.00    +0.000 F 
ATOM     28  C   UNL     1       0.328   9.113  20.690  0.00  0.00    +0.000 A 
ATOM     29  C   UNL     1       0.908  10.125  19.906  0.00  0.00    +0.000 A 
ATOM     30  H   UNL     1       1.529  13.252  19.591  0.00  0.00    +0.000 HD
ENDBRANCH  18  20
ENDBRANCH   4  18
TORSDOF 3
ENDMDL
MODEL 6
REMARK VINA RESULT:      -9.4      1.818      4.269
REMARK  Name = 
REMARK  4 active torsions:
REMARK  status: ('A' for Active; 'I' for Inactive)
REMARK    1  A    between atoms: C_1  and  C_2
REMARK    2  A    between atoms: C_4  and  N_5
REMARK    3  A    between atoms: N_5  and  C_6
REMARK    4  A    between atoms: C_17  and  C_18
REMARK                            x       y       z     vdW  Elec       q    Type
REMARK                         _______ _______ _______ _____ _____    ______ ____
ROOT
ATOM      1  C   UNL     1       6.057   7.113  16.893  0.00  0.00    +0.000 C 
ATOM      2  C   UNL     1       4.658   7.096  17.424  0.00  0.00    +0.000 A 
ATOM      3  C   UNL     1       3.848   8.207  17.331  0.00  0.00    +0.000 A 
ATOM      4  C   UNL     1       2.560   8.091  17.817  0.00  0.00    +0.000 A 
ATOM      5  N   UNL     1       2.132   6.956  18.396  0.00  0.00    +0.000 NA
ATOM      6  C   UNL     1       2.977   5.911  18.451  0.00  0.00    +0.000 A 
ATOM      7  N   UNL     1       4.239   5.948  17.973  0.00  0.00    +0.000 NA
ENDROOT
BRANCH   6   8
ATOM      8  C   UNL     1       2.504   4.610  19.060  0.00  0.00    +0.000 C 
ATOM      9  C   UNL     1       1.543   3.855  18.105  0.00  0.00    +0.000 C 
ATOM     10  C   UNL     1       1.077   2.536  18.731  0.00  0.00    +0.000 C 
ATOM     11  C   UNL     1       2.299   1.648  19.014  0.00  0.00    +0.000 C 
ATOM     12  C   UNL     1       3.251   2.358  19.988  0.00  0.00    +0.000 C 
ATOM     13  C   UNL     1       2.514   2.659  21.303  0.00  0.00    +0.000 C 
ATOM     14  C   UNL     1       1.295   3.555  21.028  0.00  0.00    +0.000 C 
ATOM     15  C   UNL     1       0.350   2.836  20.052  0.00  0.00    +0.000 C 
ATOM     16  C   UNL     1       1.762   4.878  20.396  0.00  0.00    +0.000 C 
ATOM     17  C   UNL     1       3.720   3.680  19.357  0.00  0.00    +0.000 C 
ENDBRANCH   6   8
BRANCH   4  18
ATOM     18  N   UNL     1       1.708   9.215  17.738  0.00  0.00    +0.000 N 
ATOM     19  H   UNL     1       1.004   9.094  17.019  0.00  0.00    +0.000 HD
BRANCH  18  20
ATOM     20  C   UNL     1       1.575  10.210  18.647  0.00  0.00    +0.000 A 
ATOM     21  C   UNL     1       1.953  11.518  18.447  0.00  0.00    +0.000 A 
ATOM     22  N   UNL     1       1.501  12.253  19.510  0.00  0.00    +0.000 N 
ATOM     23  C   UNL     1       0.871  11.435  20.407  0.00  0.00    +0.000 A 
ATOM     24  N   UNL     1       0.298  11.856  21.551  0.00  0.00    +0.000 NA
ATOM     25  C   UNL     1      -0.268  10.843  22.254  0.00  0.00    +0.000 A 
ATOM     26  C   UNL     1      -0.275   9.508  21.874  0.00  0.00    +0.000 A 
ATOM     27  F   UNL     1      -0.874   8.590  22.647  0.00  0.00    +0.000 F 
ATOM     28  C   UNL     1       0.326   9.121  20.683  0.00  0.00    +0.000 A 
ATOM     29  C   UNL     1       0.916  10.132  19.906  0.00  0.00    +0.000 A 
ATOM     30  H   UNL     1       1.571  13.255  19.613  0.00  0.00    +0.000 HD
ENDBRANCH  18  20
ENDBRANCH   4  18
TORSDOF 3
ENDMDL
MODEL 7
REMARK VINA RESULT:      -9.4      1.702      2.626
REMARK  Name = 
REMARK  4 active torsions:
REMARK  status: ('A' for Active; 'I' for Inactive)
REMARK    1  A    between atoms: C_1  and  C_2
REMARK    2  A    between atoms: C_4  and  N_5
REMARK    3  A    between atoms: N_5  and  C_6
REMARK    4  A    between atoms: C_17  and  C_18
REMARK                            x       y       z     vdW  Elec       q    Type
REMARK                         _______ _______ _______ _____ _____    ______ ____
ROOT
ATOM      1  C   UNL     1       0.785   2.694  19.114  0.00  0.00    +0.000 C 
ATOM      2  C   UNL     1       1.582   3.940  19.347  0.00  0.00    +0.000 A 
ATOM      3  C   UNL     1       1.181   4.876  20.275  0.00  0.00    +0.000 A 
ATOM      4  C   UNL     1       1.994   5.979  20.449  0.00  0.00    +0.000 A 
ATOM      5  N   UNL     1       3.106   6.151  19.712  0.00  0.00    +0.000 NA
ATOM      6  C   UNL     1       3.436   5.194  18.826  0.00  0.00    +0.000 A 
ATOM      7  N   UNL     1       2.701   4.080  18.624  0.00  0.00    +0.000 NA
ENDROOT
BRANCH   6   8
ATOM      8  C   UNL     1       4.704   5.344  18.015  0.00  0.00    +0.000 C 
ATOM      9  C   UNL     1       5.952   5.446  18.930  0.00  0.00    +0.000 C 
ATOM     10  C   UNL     1       7.230   5.591  18.097  0.00  0.00    +0.000 C 
ATOM     11  C   UNL     1       7.381   4.366  17.181  0.00  0.00    +0.000 C 
ATOM     12  C   UNL     1       6.173   4.263  16.237  0.00  0.00    +0.000 C 
ATOM     13  C   UNL     1       6.074   5.538  15.384  0.00  0.00    +0.000 C 
ATOM     14  C   UNL     1       5.914   6.767  16.294  0.00  0.00    +0.000 C 
ATOM     15  C   UNL     1       7.126   6.859  17.235  0.00  0.00    +0.000 C 
ATOM     16  C   UNL     1       4.633   6.620  17.134  0.00  0.00    +0.000 C 
ATOM     17  C   UNL     1       4.892   4.115  17.075  0.00  0.00    +0.000 C 
ENDBRANCH   6   8
BRANCH   4  18
ATOM     18  N   UNL     1       1.608   6.958  21.391  0.00  0.00    +0.000 N 
ATOM     19  H   UNL     1       2.188   6.922  22.221  0.00  0.00    +0.000 HD
BRANCH  18  20
ATOM     20  C   UNL     1       0.806   8.029  21.180  0.00  0.00    +0.000 A 
ATOM     21  C   UNL     1      -0.238   8.407  21.993  0.00  0.00    +0.000 A 
ATOM     22  N   UNL     1      -0.692   9.622  21.558  0.00  0.00    +0.000 N 
ATOM     23  C   UNL     1       0.018  10.017  20.456  0.00  0.00    +0.000 A 
ATOM     24  N   UNL     1      -0.173  11.179  19.802  0.00  0.00    +0.000 NA
ATOM     25  C   UNL     1       0.671  11.328  18.750  0.00  0.00    +0.000 A 
ATOM     26  C   UNL     1       1.634  10.411  18.356  0.00  0.00    +0.000 A 
ATOM     27  F   UNL     1       2.421  10.669  17.301  0.00  0.00    +0.000 F 
ATOM     28  C   UNL     1       1.798   9.227  19.065  0.00  0.00    +0.000 A 
ATOM     29  C   UNL     1       0.959   9.025  20.174  0.00  0.00    +0.000 A 
ATOM     30  H   UNL     1      -1.408  10.182  21.996  0.00  0.00    +0.000 HD
ENDBRANCH  18  20
ENDBRANCH   4  18
TORSDOF 3
ENDMDL
MODEL 8
REMARK VINA RESULT:      -9.4      1.820      4.309
REMARK  Name = 
REMARK  4 active torsions:
REMARK  status: ('A' for Active; 'I' for Inactive)
REMARK    1  A    between atoms: C_1  and  C_2
REMARK    2  A    between atoms: C_4  and  N_5
REMARK    3  A    between atoms: N_5  and  C_6
REMARK    4  A    between atoms: C_17  and  C_18
REMARK                            x       y       z     vdW  Elec       q    Type
REMARK                         _______ _______ _______ _____ _____    ______ ____
ROOT
ATOM      1  C   UNL     1       6.112   7.195  17.000  0.00  0.00    +0.000 C 
ATOM      2  C   UNL     1       4.701   7.141  17.499  0.00  0.00    +0.000 A 
ATOM      3  C   UNL     1       3.866   8.232  17.390  0.00  0.00    +0.000 A 
ATOM      4  C   UNL     1       2.571   8.083  17.846  0.00  0.00    +0.000 A 
ATOM      5  N   UNL     1       2.158   6.935  18.413  0.00  0.00    +0.000 NA
ATOM      6  C   UNL     1       3.028   5.911  18.485  0.00  0.00    +0.000 A 
ATOM      7  N   UNL     1       4.299   5.981  18.036  0.00  0.00    +0.000 NA
ENDROOT
BRANCH   6   8
ATOM      8  C   UNL     1       2.574   4.597  19.080  0.00  0.00    +0.000 C 
ATOM      9  C   UNL     1       3.781   3.688  19.429  0.00  0.00    +0.000 C 
ATOM     10  C   UNL     1       3.309   2.363  20.036  0.00  0.00    +0.000 C 
ATOM     11  C   UNL     1       2.512   2.648  21.319  0.00  0.00    +0.000 C 
ATOM     12  C   UNL     1       1.288   3.518  20.995  0.00  0.00    +0.000 C 
ATOM     13  C   UNL     1       0.392   2.791  19.980  0.00  0.00    +0.000 C 
ATOM     14  C   UNL     1       1.181   2.510  18.690  0.00  0.00    +0.000 C 
ATOM     15  C   UNL     1       2.404   1.641  19.026  0.00  0.00    +0.000 C 
ATOM     16  C   UNL     1       1.659   3.840  18.082  0.00  0.00    +0.000 C 
ATOM     17  C   UNL     1       1.764   4.848  20.387  0.00  0.00    +0.000 C 
ENDBRANCH   6   8
BRANCH   4  18
ATOM     18  N   UNL     1       1.693   9.184  17.750  0.00  0.00    +0.000 N 
ATOM     19  H   UNL     1       0.976   9.026  17.051  0.00  0.00    +0.000 HD
BRANCH  18  20
ATOM     20  C   UNL     1       1.557  10.206  18.629  0.00  0.00    +0.000 A 
ATOM     21  C   UNL     1       1.927  11.510  18.389  0.00  0.00    +0.000 A 
ATOM     22  N   UNL     1       1.476  12.273  19.430  0.00  0.00    +0.000 N 
ATOM     23  C   UNL     1       0.853  11.479  20.355  0.00  0.00    +0.000 A 
ATOM     24  N   UNL     1       0.282  11.932  21.488  0.00  0.00    +0.000 NA
ATOM     25  C   UNL     1      -0.275  10.936  22.223  0.00  0.00    +0.000 A 
ATOM     26  C   UNL     1      -0.275   9.591  21.884  0.00  0.00    +0.000 A 
ATOM     27  F   UNL     1      -0.866   8.693  22.686  0.00  0.00    +0.000 F 
ATOM     28  C   UNL     1       0.323   9.172  20.702  0.00  0.00    +0.000 A 
ATOM     29  C   UNL     1       0.904  10.162  19.893  0.00  0.00    +0.000 A 
ATOM     30  H   UNL     1       1.540  13.278  19.503  0.00  0.00    +0.000 HD
ENDBRANCH  18  20
ENDBRANCH   4  18
TORSDOF 3
ENDMDL
MODEL 9
REMARK VINA RESULT:      -9.3      1.732      2.654
REMARK  Name = 
REMARK  4 active torsions:
REMARK  status: ('A' for Active; 'I' for Inactive)
REMARK    1  A    between atoms: C_1  and  C_2
REMARK    2  A    between atoms: C_4  and  N_5
REMARK    3  A    between atoms: N_5  and  C_6
REMARK    4  A    between atoms: C_17  and  C_18
REMARK                            x       y       z     vdW  Elec       q    Type
REMARK                         _______ _______ _______ _____ _____    ______ ____
ROOT
ATOM      1  C   UNL     1       0.793   2.691  18.860  0.00  0.00    +0.000 C 
ATOM      2  C   UNL     1       1.607   3.910  19.165  0.00  0.00    +0.000 A 
ATOM      3  C   UNL     1       1.205   4.812  20.127  0.00  0.00    +0.000 A 
ATOM      4  C   UNL     1       2.034   5.890  20.366  0.00  0.00    +0.000 A 
ATOM      5  N   UNL     1       3.163   6.074  19.659  0.00  0.00    +0.000 NA
ATOM      6  C   UNL     1       3.494   5.151  18.737  0.00  0.00    +0.000 A 
ATOM      7  N   UNL     1       2.743   4.062  18.470  0.00  0.00    +0.000 NA
ENDROOT
BRANCH   6   8
ATOM      8  C   UNL     1       4.780   5.314  17.958  0.00  0.00    +0.000 C 
ATOM      9  C   UNL     1       4.734   6.566  17.045  0.00  0.00    +0.000 C 
ATOM     10  C   UNL     1       6.045   6.723  16.266  0.00  0.00    +0.000 C 
ATOM     11  C   UNL     1       7.209   6.872  17.258  0.00  0.00    +0.000 C 
ATOM     12  C   UNL     1       7.301   5.625  18.152  0.00  0.00    +0.000 C 
ATOM     13  C   UNL     1       7.519   4.378  17.279  0.00  0.00    +0.000 C 
ATOM     14  C   UNL     1       6.352   4.220  16.291  0.00  0.00    +0.000 C 
ATOM     15  C   UNL     1       6.268   5.472  15.403  0.00  0.00    +0.000 C 
ATOM     16  C   UNL     1       5.035   4.066  17.071  0.00  0.00    +0.000 C 
ATOM     17  C   UNL     1       5.986   5.471  18.934  0.00  0.00    +0.000 C 
ENDBRANCH   6   8
BRANCH   4  18
ATOM     18  N   UNL     1       1.646   6.833  21.343  0.00  0.00    +0.000 N 
ATOM     19  H   UNL     1       2.217   6.757  22.177  0.00  0.00    +0.000 HD
BRANCH  18  20
ATOM     20  C   UNL     1       0.856   7.919  21.168  0.00  0.00    +0.000 A 
ATOM     21  C   UNL     1      -0.161   8.301  22.013  0.00  0.00    +0.000 A 
ATOM     22  N   UNL     1      -0.606   9.530  21.607  0.00  0.00    +0.000 N 
ATOM     23  C   UNL     1       0.083   9.930  20.494  0.00  0.00    +0.000 A 
ATOM     24  N   UNL     1      -0.105  11.105  19.863  0.00  0.00    +0.000 NA
ATOM     25  C   UNL     1       0.715  11.258  18.793  0.00  0.00    +0.000 A 
ATOM     26  C   UNL     1       1.654  10.332  18.362  0.00  0.00    +0.000 A 
ATOM     27  F   UNL     1       2.419  10.595  17.293  0.00  0.00    +0.000 F 
ATOM     28  C   UNL     1       1.816   9.135  19.049  0.00  0.00    +0.000 A 
ATOM     29  C   UNL     1       1.001   8.928  20.175  0.00  0.00    +0.000 A 
ATOM     30  H   UNL     1      -1.302  10.094  22.072  0.00  0.00    +0.000 HD
ENDBRANCH  18  20
ENDBRANCH   4  18
TORSDOF 3
ENDMDL
