MODEL 1
REMARK VINA RESULT:      -7.6      0.000      0.000
REMARK  Name = 
REMARK  6 active torsions:
REMARK  status: ('A' for Active; 'I' for Inactive)
REMARK    1  A    between atoms: C_1  and  C_2
REMARK    2  A    between atoms: C_2  and  C_3
REMARK    3  A    between atoms: C_7  and  C_8
REMARK    4  A    between atoms: N_10  and  C_11
REMARK    5  A    between atoms: C_11  and  C_12
REMARK    6  A    between atoms: C_12  and  N_13
REMARK                            x       y       z     vdW  Elec       q    Type
REMARK                         _______ _______ _______ _____ _____    ______ ____
ROOT
ATOM      1  C   UNL     1       5.827   5.915  18.171  0.00  0.00    +0.000 C 
ENDROOT
BRANCH   1   4
ATOM      2  C   UNL     1       4.434   4.062  19.105  0.00  0.00    +0.000 C 
ATOM      3  O   UNL     1       5.411   3.533  19.630  0.00  0.00    +0.000 OA
ATOM      4  N   UNL     1       4.562   5.248  18.406  0.00  0.00    +0.000 N 
ATOM      5  H   UNL     1       3.770   5.527  17.840  0.00  0.00    +0.000 HD
BRANCH   2  10
ATOM      6  C   UNL     1       2.017   3.882  20.010  0.00  0.00    +0.000 A 
ATOM      7  C   UNL     1       0.834   3.114  19.729  0.00  0.00    +0.000 A 
ATOM      8  C   UNL     1       1.011   2.214  18.707  0.00  0.00    +0.000 A 
ATOM      9  S   UNL     1       2.593   2.261  18.089  0.00  0.00    +0.000 S 
ATOM     10  C   UNL     1       3.073   3.517  19.173  0.00  0.00    +0.000 A 
BRANCH   6  12
ATOM     11  C   UNL     1       1.752   6.330  20.522  0.00  0.00    +0.000 C 
ATOM     12  C   UNL     1       2.043   4.944  21.078  0.00  0.00    +0.000 C 
ENDBRANCH   6  12
ENDBRANCH   2  10
ENDBRANCH   1   4
BRANCH   1  13
ATOM     13  C   UNL     1       6.915   4.976  17.645  0.00  0.00    +0.000 C 
BRANCH  13  14
ATOM     14  N   UNL     1       6.831   4.780  16.213  0.00  0.00    +0.000 N 
ATOM     15  N   UNL     1       7.652   5.439  15.315  0.00  0.00    +0.000 NA
ATOM     16  C   UNL     1       7.300   4.950  14.165  0.00  0.00    +0.000 A 
ATOM     17  C   UNL     1       7.837   5.300  12.835  0.00  0.00    +0.000 A 
ATOM     18  C   UNL     1       7.336   4.657  11.765  0.00  0.00    +0.000 A 
ATOM     19  C   UNL     1       6.301   3.647  11.909  0.00  0.00    +0.000 A 
ATOM     20  C   UNL     1       5.822   3.347  13.129  0.00  0.00    +0.000 A 
ATOM     21  N   UNL     1       6.326   4.004  14.217  0.00  0.00    +0.000 N 
ATOM     22  C   UNL     1       6.008   3.856  15.546  0.00  0.00    +0.000 A 
ATOM     23  O   UNL     1       5.207   3.085  16.052  0.00  0.00    +0.000 OA
ENDBRANCH  13  14
ENDBRANCH   1  13
TORSDOF 5
ENDMDL
MODEL 2
REMARK VINA RESULT:      -7.6      1.265      1.426
REMARK  Name = 
REMARK  6 active torsions:
REMARK  status: ('A' for Active; 'I' for Inactive)
REMARK    1  A    between atoms: C_1  and  C_2
REMARK    2  A    between atoms: C_2  and  C_3
REMARK    3  A    between atoms: C_7  and  C_8
REMARK    4  A    between atoms: N_10  and  C_11
REMARK    5  A    between atoms: C_11  and  C_12
REMARK    6  A    between atoms: C_12  and  N_13
REMARK                            x       y       z     vdW  Elec       q    Type
REMARK                         _______ _______ _______ _____ _____    ______ ____
ROOT
ATOM      1  C   UNL     1       6.399   4.688  18.534  0.00  0.00    +0.000 C 
ENDROOT
BRANCH   1   4
ATOM      2  C   UNL     1       4.537   3.344  19.520  0.00  0.00    +0.000 C 
ATOM      3  O   UNL     1       5.220   2.322  19.527  0.00  0.00    +0.000 OA
ATOM      4  N   UNL     1       5.063   4.544  19.080  0.00  0.00    +0.000 N 
ATOM      5  H   UNL     1       4.404   5.294  18.916  0.00  0.00    +0.000 HD
BRANCH   2  10
ATOM      6  C   UNL     1       2.033   3.974  19.353  0.00  0.00    +0.000 A 
ATOM      7  C   UNL     1       0.837   3.776  20.126  0.00  0.00    +0.000 A 
ATOM      8  C   UNL     1       1.057   3.068  21.282  0.00  0.00    +0.000 A 
ATOM      9  S   UNL     1       2.693   2.651  21.466  0.00  0.00    +0.000 S 
ATOM     10  C   UNL     1       3.143   3.399  19.975  0.00  0.00    +0.000 A 
BRANCH   6  12
ATOM     11  C   UNL     1       2.308   6.191  18.198  0.00  0.00    +0.000 C 
ATOM     12  C   UNL     1       2.020   4.705  18.037  0.00  0.00    +0.000 C 
ENDBRANCH   6  12
ENDBRANCH   2  10
ENDBRANCH   1   4
BRANCH   1  13
ATOM     13  C   UNL     1       6.518   5.837  17.530  0.00  0.00    +0.000 C 
BRANCH  13  14
ATOM     14  N   UNL     1       6.514   5.374  16.158  0.00  0.00    +0.000 N 
ATOM     15  N   UNL     1       7.501   5.712  15.249  0.00  0.00    +0.000 NA
ATOM     16  C   UNL     1       7.163   5.062  14.177  0.00  0.00    +0.000 A 
ATOM     17  C   UNL     1       7.853   5.057  12.871  0.00  0.00    +0.000 A 
ATOM     18  C   UNL     1       7.337   4.294  11.891  0.00  0.00    +0.000 A 
ATOM     19  C   UNL     1       6.140   3.500  12.104  0.00  0.00    +0.000 A 
ATOM     20  C   UNL     1       5.524   3.523  13.299  0.00  0.00    +0.000 A 
ATOM     21  N   UNL     1       6.044   4.300  14.296  0.00  0.00    +0.000 N 
ATOM     22  C   UNL     1       5.603   4.470  15.587  0.00  0.00    +0.000 A 
ATOM     23  O   UNL     1       4.648   3.942  16.136  0.00  0.00    +0.000 OA
ENDBRANCH  13  14
ENDBRANCH   1  13
TORSDOF 5
ENDMDL
MODEL 3
REMARK VINA RESULT:      -7.5      1.342      2.000
REMARK  Name = 
REMARK  6 active torsions:
REMARK  status: ('A' for Active; 'I' for Inactive)
REMARK    1  A    between atoms: C_1  and  C_2
REMARK    2  A    between atoms: C_2  and  C_3
REMARK    3  A    between atoms: C_7  and  C_8
REMARK    4  A    between atoms: N_10  and  C_11
REMARK    5  A    between atoms: C_11  and  C_12
REMARK    6  A    between atoms: C_12  and  N_13
REMARK                            x       y       z     vdW  Elec       q    Type
REMARK                         _______ _______ _______ _____ _____    ______ ____
ROOT
ATOM      1  C   UNL     1       6.067   6.778  17.596  0.00  0.00    +0.000 C 
ENDROOT
BRANCH   1   4
ATOM      2  C   UNL     1       4.923   5.316  19.269  0.00  0.00    +0.000 C 
ATOM      3  O   UNL     1       5.979   5.076  19.849  0.00  0.00    +0.000 OA
ATOM      4  N   UNL     1       4.889   6.167  18.181  0.00  0.00    +0.000 N 
ATOM      5  H   UNL     1       4.037   6.170  17.635  0.00  0.00    +0.000 HD
BRANCH   2  10
ATOM      6  C   UNL     1       3.255   3.415  19.816  0.00  0.00    +0.000 A 
ATOM      7  C   UNL     1       1.890   3.295  20.254  0.00  0.00    +0.000 A 
ATOM      8  C   UNL     1       1.275   4.510  20.428  0.00  0.00    +0.000 A 
ATOM      9  S   UNL     1       2.312   5.803  20.053  0.00  0.00    +0.000 S 
ATOM     10  C   UNL     1       3.626   4.752  19.666  0.00  0.00    +0.000 A 
BRANCH   6  12
ATOM     11  C   UNL     1       3.655   1.376  18.399  0.00  0.00    +0.000 C 
ATOM     12  C   UNL     1       4.125   2.208  19.583  0.00  0.00    +0.000 C 
ENDBRANCH   6  12
ENDBRANCH   2  10
ENDBRANCH   1   4
BRANCH   1  13
ATOM     13  C   UNL     1       7.122   5.757  17.164  0.00  0.00    +0.000 C 
BRANCH  13  14
ATOM     14  N   UNL     1       6.879   5.242  15.832  0.00  0.00    +0.000 N 
ATOM     15  N   UNL     1       7.702   5.526  14.756  0.00  0.00    +0.000 NA
ATOM     16  C   UNL     1       7.179   4.843  13.784  0.00  0.00    +0.000 A 
ATOM     17  C   UNL     1       7.637   4.774  12.382  0.00  0.00    +0.000 A 
ATOM     18  C   UNL     1       6.953   3.985  11.534  0.00  0.00    +0.000 A 
ATOM     19  C   UNL     1       5.800   3.222  11.980  0.00  0.00    +0.000 A 
ATOM     20  C   UNL     1       5.396   3.303  13.260  0.00  0.00    +0.000 A 
ATOM     21  N   UNL     1       6.087   4.107  14.121  0.00  0.00    +0.000 N 
ATOM     22  C   UNL     1       5.874   4.334  15.460  0.00  0.00    +0.000 A 
ATOM     23  O   UNL     1       5.019   3.846  16.184  0.00  0.00    +0.000 OA
ENDBRANCH  13  14
ENDBRANCH   1  13
TORSDOF 5
ENDMDL
MODEL 4
REMARK VINA RESULT:      -7.4      1.567      2.159
REMARK  Name = 
REMARK  6 active torsions:
REMARK  status: ('A' for Active; 'I' for Inactive)
REMARK    1  A    between atoms: C_1  and  C_2
REMARK    2  A    between atoms: C_2  and  C_3
REMARK    3  A    between atoms: C_7  and  C_8
REMARK    4  A    between atoms: N_10  and  C_11
REMARK    5  A    between atoms: C_11  and  C_12
REMARK    6  A    between atoms: C_12  and  N_13
REMARK                            x       y       z     vdW  Elec       q    Type
REMARK                         _______ _______ _______ _____ _____    ______ ____
ROOT
ATOM      1  C   UNL     1       5.807   6.278  17.988  0.00  0.00    +0.000 C 
ENDROOT
BRANCH   1   4
ATOM      2  C   UNL     1       3.667   5.196  18.694  0.00  0.00    +0.000 C 
ATOM      3  O   UNL     1       3.065   5.653  17.725  0.00  0.00    +0.000 OA
ATOM      4  N   UNL     1       5.018   5.434  18.864  0.00  0.00    +0.000 N 
ATOM      5  H   UNL     1       5.408   5.199  19.768  0.00  0.00    +0.000 HD
BRANCH   2  10
ATOM      6  C   UNL     1       3.297   3.036  20.071  0.00  0.00    +0.000 A 
ATOM      7  C   UNL     1       2.478   2.609  21.172  0.00  0.00    +0.000 A 
ATOM      8  C   UNL     1       1.646   3.598  21.636  0.00  0.00    +0.000 A 
ATOM      9  S   UNL     1       1.819   5.037  20.749  0.00  0.00    +0.000 S 
ATOM     10  C   UNL     1       3.040   4.365  19.729  0.00  0.00    +0.000 A 
BRANCH   6  12
ATOM     11  C   UNL     1       3.669   1.237  18.353  0.00  0.00    +0.000 C 
ATOM     12  C   UNL     1       4.299   2.119  19.420  0.00  0.00    +0.000 C 
ENDBRANCH   6  12
ENDBRANCH   2  10
ENDBRANCH   1   4
BRANCH   1  13
ATOM     13  C   UNL     1       7.056   5.581  17.444  0.00  0.00    +0.000 C 
BRANCH  13  14
ATOM     14  N   UNL     1       6.900   5.163  16.067  0.00  0.00    +0.000 N 
ATOM     15  N   UNL     1       7.686   5.655  15.039  0.00  0.00    +0.000 NA
ATOM     16  C   UNL     1       7.272   4.999  13.999  0.00  0.00    +0.000 A 
ATOM     17  C   UNL     1       7.750   5.123  12.606  0.00  0.00    +0.000 A 
ATOM     18  C   UNL     1       7.190   4.329  11.676  0.00  0.00    +0.000 A 
ATOM     19  C   UNL     1       6.148   3.378  12.025  0.00  0.00    +0.000 A 
ATOM     20  C   UNL     1       5.724   3.284  13.298  0.00  0.00    +0.000 A 
ATOM     21  N   UNL     1       6.290   4.093  14.244  0.00  0.00    +0.000 N 
ATOM     22  C   UNL     1       6.033   4.164  15.592  0.00  0.00    +0.000 A 
ATOM     23  O   UNL     1       5.247   3.499  16.250  0.00  0.00    +0.000 OA
ENDBRANCH  13  14
ENDBRANCH   1  13
TORSDOF 5
ENDMDL
MODEL 5
REMARK VINA RESULT:      -7.3      3.288      4.840
REMARK  Name = 
REMARK  6 active torsions:
REMARK  status: ('A' for Active; 'I' for Inactive)
REMARK    1  A    between atoms: C_1  and  C_2
REMARK    2  A    between atoms: C_2  and  C_3
REMARK    3  A    between atoms: C_7  and  C_8
REMARK    4  A    between atoms: N_10  and  C_11
REMARK    5  A    between atoms: C_11  and  C_12
REMARK    6  A    between atoms: C_12  and  N_13
REMARK                            x       y       z     vdW  Elec       q    Type
REMARK                         _______ _______ _______ _____ _____    ______ ____
ROOT
ATOM      1  C   UNL     1       2.064   3.942  18.344  0.00  0.00    +0.000 C 
ENDROOT
BRANCH   1   4
ATOM      2  C   UNL     1       2.234   6.215  19.369  0.00  0.00    +0.000 C 
ATOM      3  O   UNL     1       2.737   5.764  20.396  0.00  0.00    +0.000 OA
ATOM      4  N   UNL     1       1.913   5.384  18.312  0.00  0.00    +0.000 N 
ATOM      5  H   UNL     1       1.331   5.781  17.585  0.00  0.00    +0.000 HD
BRANCH   2  10
ATOM      6  C   UNL     1       1.279   8.537  19.995  0.00  0.00    +0.000 A 
ATOM      7  C   UNL     1       1.237   9.856  19.423  0.00  0.00    +0.000 A 
ATOM      8  C   UNL     1       1.861   9.930  18.202  0.00  0.00    +0.000 A 
ATOM      9  S   UNL     1       2.484   8.425  17.719  0.00  0.00    +0.000 S 
ATOM     10  C   UNL     1       1.944   7.639  19.159  0.00  0.00    +0.000 A 
BRANCH   6  12
ATOM     11  C   UNL     1       1.125   9.214  22.413  0.00  0.00    +0.000 C 
ATOM     12  C   UNL     1       0.674   8.233  21.341  0.00  0.00    +0.000 C 
ENDBRANCH   6  12
ENDBRANCH   2  10
ENDBRANCH   1   4
BRANCH   1  13
ATOM     13  C   UNL     1       3.261   3.444  17.531  0.00  0.00    +0.000 C 
BRANCH  13  14
ATOM     14  N   UNL     1       4.427   4.287  17.692  0.00  0.00    +0.000 N 
ATOM     15  N   UNL     1       4.686   5.374  16.876  0.00  0.00    +0.000 NA
ATOM     16  C   UNL     1       5.770   5.881  17.379  0.00  0.00    +0.000 A 
ATOM     17  C   UNL     1       6.520   7.061  16.901  0.00  0.00    +0.000 A 
ATOM     18  C   UNL     1       7.619   7.427  17.584  0.00  0.00    +0.000 A 
ATOM     19  C   UNL     1       8.058   6.689  18.757  0.00  0.00    +0.000 A 
ATOM     20  C   UNL     1       7.364   5.615  19.172  0.00  0.00    +0.000 A 
ATOM     21  N   UNL     1       6.249   5.239  18.476  0.00  0.00    +0.000 N 
ATOM     22  C   UNL     1       5.383   4.199  18.718  0.00  0.00    +0.000 A 
ATOM     23  O   UNL     1       5.412   3.386  19.628  0.00  0.00    +0.000 OA
ENDBRANCH  13  14
ENDBRANCH   1  13
TORSDOF 5
ENDMDL
MODEL 6
REMARK VINA RESULT:      -7.2      3.716      6.654
REMARK  Name = 
REMARK  6 active torsions:
REMARK  status: ('A' for Active; 'I' for Inactive)
REMARK    1  A    between atoms: C_1  and  C_2
REMARK    2  A    between atoms: C_2  and  C_3
REMARK    3  A    between atoms: C_7  and  C_8
REMARK    4  A    between atoms: N_10  and  C_11
REMARK    5  A    between atoms: C_11  and  C_12
REMARK    6  A    between atoms: C_12  and  N_13
REMARK                            x       y       z     vdW  Elec       q    Type
REMARK                         _______ _______ _______ _____ _____    ______ ____
ROOT
ATOM      1  C   UNL     1       4.041   7.260  17.308  0.00  0.00    +0.000 C 
ENDROOT
BRANCH   1   4
ATOM      2  C   UNL     1       2.182   8.653  18.231  0.00  0.00    +0.000 C 
ATOM      3  O   UNL     1       2.115   9.323  17.203  0.00  0.00    +0.000 OA
ATOM      4  N   UNL     1       3.078   7.606  18.336  0.00  0.00    +0.000 N 
ATOM      5  H   UNL     1       3.220   7.224  19.263  0.00  0.00    +0.000 HD
BRANCH   2  10
ATOM      6  C   UNL     1       0.294   9.789  19.588  0.00  0.00    +0.000 A 
ATOM      7  C   UNL     1      -0.298   9.661  20.892  0.00  0.00    +0.000 A 
ATOM      8  C   UNL     1       0.287   8.679  21.652  0.00  0.00    +0.000 A 
ATOM      9  S   UNL     1       1.559   7.914  20.826  0.00  0.00    +0.000 S 
ATOM     10  C   UNL     1       1.337   8.878  19.410  0.00  0.00    +0.000 A 
BRANCH   6  12
ATOM     11  C   UNL     1      -1.397  10.269  17.789  0.00  0.00    +0.000 C 
ATOM     12  C   UNL     1      -0.206  10.790  18.580  0.00  0.00    +0.000 C 
ENDBRANCH   6  12
ENDBRANCH   2  10
ENDBRANCH   1   4
BRANCH   1  13
ATOM     13  C   UNL     1       4.217   5.750  17.133  0.00  0.00    +0.000 C 
BRANCH  13  14
ATOM     14  N   UNL     1       3.635   4.996  18.224  0.00  0.00    +0.000 N 
ATOM     15  N   UNL     1       2.272   4.936  18.452  0.00  0.00    +0.000 NA
ATOM     16  C   UNL     1       2.168   4.130  19.465  0.00  0.00    +0.000 A 
ATOM     17  C   UNL     1       0.933   3.704  20.155  0.00  0.00    +0.000 A 
ATOM     18  C   UNL     1       1.052   2.844  21.181  0.00  0.00    +0.000 A 
ATOM     19  C   UNL     1       2.350   2.345  21.602  0.00  0.00    +0.000 A 
ATOM     20  C   UNL     1       3.462   2.750  20.963  0.00  0.00    +0.000 A 
ATOM     21  N   UNL     1       3.344   3.628  19.922  0.00  0.00    +0.000 N 
ATOM     22  C   UNL     1       4.325   4.162  19.121  0.00  0.00    +0.000 A 
ATOM     23  O   UNL     1       5.528   3.953  19.154  0.00  0.00    +0.000 OA
ENDBRANCH  13  14
ENDBRANCH   1  13
TORSDOF 5
ENDMDL
MODEL 7
REMARK VINA RESULT:      -7.2      1.049      1.241
REMARK  Name = 
REMARK  6 active torsions:
REMARK  status: ('A' for Active; 'I' for Inactive)
REMARK    1  A    between atoms: C_1  and  C_2
REMARK    2  A    between atoms: C_2  and  C_3
REMARK    3  A    between atoms: C_7  and  C_8
REMARK    4  A    between atoms: N_10  and  C_11
REMARK    5  A    between atoms: C_11  and  C_12
REMARK    6  A    between atoms: C_12  and  N_13
REMARK                            x       y       z     vdW  Elec       q    Type
REMARK                         _______ _______ _______ _____ _____    ______ ____
ROOT
ATOM      1  C   UNL     1       6.204   6.757  17.631  0.00  0.00    +0.000 C 
ENDROOT
BRANCH   1   4
ATOM      2  C   UNL     1       4.968   5.304  19.247  0.00  0.00    +0.000 C 
ATOM      3  O   UNL     1       5.993   5.064  19.882  0.00  0.00    +0.000 OA
ATOM      4  N   UNL     1       4.995   6.152  18.155  0.00  0.00    +0.000 N 
ATOM      5  H   UNL     1       4.172   6.156  17.566  0.00  0.00    +0.000 HD
BRANCH   2  10
ATOM      6  C   UNL     1       2.476   5.409  19.933  0.00  0.00    +0.000 A 
ATOM      7  C   UNL     1       1.395   4.484  20.145  0.00  0.00    +0.000 A 
ATOM      8  C   UNL     1       1.762   3.176  19.941  0.00  0.00    +0.000 A 
ATOM      9  S   UNL     1       3.401   3.038  19.518  0.00  0.00    +0.000 S 
ATOM     10  C   UNL     1       3.651   4.746  19.577  0.00  0.00    +0.000 A 
BRANCH   6  12
ATOM     11  C   UNL     1       2.139   7.595  18.737  0.00  0.00    +0.000 C 
ATOM     12  C   UNL     1       2.292   6.896  20.080  0.00  0.00    +0.000 C 
ENDBRANCH   6  12
ENDBRANCH   2  10
ENDBRANCH   1   4
BRANCH   1  13
ATOM     13  C   UNL     1       7.242   5.729  17.176  0.00  0.00    +0.000 C 
BRANCH  13  14
ATOM     14  N   UNL     1       6.977   5.228  15.844  0.00  0.00    +0.000 N 
ATOM     15  N   UNL     1       7.754   5.560  14.748  0.00  0.00    +0.000 NA
ATOM     16  C   UNL     1       7.226   4.874  13.781  0.00  0.00    +0.000 A 
ATOM     17  C   UNL     1       7.642   4.846  12.364  0.00  0.00    +0.000 A 
ATOM     18  C   UNL     1       6.961   4.047  11.524  0.00  0.00    +0.000 A 
ATOM     19  C   UNL     1       5.851   3.234  11.991  0.00  0.00    +0.000 A 
ATOM     20  C   UNL     1       5.485   3.278  13.285  0.00  0.00    +0.000 A 
ATOM     21  N   UNL     1       6.174   4.093  14.139  0.00  0.00    +0.000 N 
ATOM     22  C   UNL     1       5.994   4.289  15.487  0.00  0.00    +0.000 A 
ATOM     23  O   UNL     1       5.181   3.758  16.228  0.00  0.00    +0.000 OA
ENDBRANCH  13  14
ENDBRANCH   1  13
TORSDOF 5
ENDMDL
MODEL 8
REMARK VINA RESULT:      -7.2      1.118      1.142
REMARK  Name = 
REMARK  6 active torsions:
REMARK  status: ('A' for Active; 'I' for Inactive)
REMARK    1  A    between atoms: C_1  and  C_2
REMARK    2  A    between atoms: C_2  and  C_3
REMARK    3  A    between atoms: C_7  and  C_8
REMARK    4  A    between atoms: N_10  and  C_11
REMARK    5  A    between atoms: C_11  and  C_12
REMARK    6  A    between atoms: C_12  and  N_13
REMARK                            x       y       z     vdW  Elec       q    Type
REMARK                         _______ _______ _______ _____ _____    ______ ____
ROOT
ATOM      1  C   UNL     1       6.200   5.955  18.199  0.00  0.00    +0.000 C 
ENDROOT
BRANCH   1   4
ATOM      2  C   UNL     1       3.734   5.545  18.179  0.00  0.00    +0.000 C 
ATOM      3  O   UNL     1       3.537   6.500  17.430  0.00  0.00    +0.000 OA
ATOM      4  N   UNL     1       5.016   5.202  18.566  0.00  0.00    +0.000 N 
ATOM      5  H   UNL     1       5.096   4.539  19.327  0.00  0.00    +0.000 HD
BRANCH   2  10
ATOM      6  C   UNL     1       1.950   4.813  19.904  0.00  0.00    +0.000 A 
ATOM      7  C   UNL     1       0.962   3.777  20.032  0.00  0.00    +0.000 A 
ATOM      8  C   UNL     1       0.945   2.918  18.960  0.00  0.00    +0.000 A 
ATOM      9  S   UNL     1       2.120   3.327  17.804  0.00  0.00    +0.000 S 
ATOM     10  C   UNL     1       2.666   4.690  18.712  0.00  0.00    +0.000 A 
BRANCH   6  12
ATOM     11  C   UNL     1       1.175   7.049  20.758  0.00  0.00    +0.000 C 
ATOM     12  C   UNL     1       2.128   5.879  20.953  0.00  0.00    +0.000 C 
ENDBRANCH   6  12
ENDBRANCH   2  10
ENDBRANCH   1   4
BRANCH   1  13
ATOM     13  C   UNL     1       7.292   5.089  17.568  0.00  0.00    +0.000 C 
BRANCH  13  14
ATOM     14  N   UNL     1       7.054   4.839  16.161  0.00  0.00    +0.000 N 
ATOM     15  N   UNL     1       7.804   5.426  15.157  0.00  0.00    +0.000 NA
ATOM     16  C   UNL     1       7.318   4.908  14.071  0.00  0.00    +0.000 A 
ATOM     17  C   UNL     1       7.730   5.181  12.679  0.00  0.00    +0.000 A 
ATOM     18  C   UNL     1       7.099   4.517  11.695  0.00  0.00    +0.000 A 
ATOM     19  C   UNL     1       6.046   3.559  11.986  0.00  0.00    +0.000 A 
ATOM     20  C   UNL     1       5.682   3.329  13.260  0.00  0.00    +0.000 A 
ATOM     21  N   UNL     1       6.320   4.006  14.262  0.00  0.00    +0.000 N 
ATOM     22  C   UNL     1       6.133   3.926  15.621  0.00  0.00    +0.000 A 
ATOM     23  O   UNL     1       5.359   3.210  16.238  0.00  0.00    +0.000 OA
ENDBRANCH  13  14
ENDBRANCH   1  13
TORSDOF 5
ENDMDL
MODEL 9
REMARK VINA RESULT:      -7.1      2.575      6.565
REMARK  Name = 
REMARK  6 active torsions:
REMARK  status: ('A' for Active; 'I' for Inactive)
REMARK    1  A    between atoms: C_1  and  C_2
REMARK    2  A    between atoms: C_2  and  C_3
REMARK    3  A    between atoms: C_7  and  C_8
REMARK    4  A    between atoms: N_10  and  C_11
REMARK    5  A    between atoms: C_11  and  C_12
REMARK    6  A    between atoms: C_12  and  N_13
REMARK                            x       y       z     vdW  Elec       q    Type
REMARK                         _______ _______ _______ _____ _____    ______ ____
ROOT
ATOM      1  C   UNL     1       3.549   2.082  17.927  0.00  0.00    +0.000 C 
ENDROOT
BRANCH   1   4
ATOM      2  C   UNL     1       5.297   3.713  18.658  0.00  0.00    +0.000 C 
ATOM      3  O   UNL     1       5.291   3.272  19.805  0.00  0.00    +0.000 OA
ATOM      4  N   UNL     1       4.495   3.154  17.681  0.00  0.00    +0.000 N 
ATOM      5  H   UNL     1       4.400   3.677  16.820  0.00  0.00    +0.000 HD
BRANCH   2  10
ATOM      6  C   UNL     1       6.180   5.467  16.974  0.00  0.00    +0.000 A 
ATOM      7  C   UNL     1       7.129   6.548  16.969  0.00  0.00    +0.000 A 
ATOM      8  C   UNL     1       7.763   6.710  18.176  0.00  0.00    +0.000 A 
ATOM      9  S   UNL     1       7.248   5.564  19.319  0.00  0.00    +0.000 S 
ATOM     10  C   UNL     1       6.138   4.832  18.216  0.00  0.00    +0.000 A 
BRANCH   6  12
ATOM     11  C   UNL     1       6.143   4.328  14.732  0.00  0.00    +0.000 C 
ATOM     12  C   UNL     1       5.355   5.125  15.761  0.00  0.00    +0.000 C 
ENDBRANCH   6  12
ENDBRANCH   2  10
ENDBRANCH   1   4
BRANCH   1  13
ATOM     13  C   UNL     1       2.130   2.584  18.201  0.00  0.00    +0.000 C 
BRANCH  13  14
ATOM     14  N   UNL     1       2.104   3.970  18.617  0.00  0.00    +0.000 N 
ATOM     15  N   UNL     1       2.285   5.022  17.735  0.00  0.00    +0.000 NA
ATOM     16  C   UNL     1       2.136   6.074  18.481  0.00  0.00    +0.000 A 
ATOM     17  C   UNL     1       2.235   7.490  18.073  0.00  0.00    +0.000 A 
ATOM     18  C   UNL     1       2.029   8.431  19.011  0.00  0.00    +0.000 A 
ATOM     19  C   UNL     1       1.717   8.071  20.384  0.00  0.00    +0.000 A 
ATOM     20  C   UNL     1       1.637   6.776  20.736  0.00  0.00    +0.000 A 
ATOM     21  N   UNL     1       1.850   5.818  19.785  0.00  0.00    +0.000 N 
ATOM     22  C   UNL     1       1.806   4.449  19.904  0.00  0.00    +0.000 A 
ATOM     23  O   UNL     1       1.547   3.783  20.894  0.00  0.00    +0.000 OA
ENDBRANCH  13  14
ENDBRANCH   1  13
TORSDOF 5
ENDMDL
