MODEL 1
REMARK VINA RESULT:      -8.3      0.000      0.000
REMARK  Name = 
REMARK  6 active torsions:
REMARK  status: ('A' for Active; 'I' for Inactive)
REMARK    1  A    between atoms: C_2  and  C_4
REMARK    2  A    between atoms: C_7  and  N_8
REMARK    3  A    between atoms: C_9  and  C_11
REMARK    4  A    between atoms: C_14  and  C_15
REMARK    5  A    between atoms: N_17  and  C_18
REMARK    6  A    between atoms: C_21  and  C_22
REMARK                            x       y       z     vdW  Elec       q    Type
REMARK                         _______ _______ _______ _____ _____    ______ ____
ROOT
ATOM      1  C   UNL     1       1.433   8.597  19.706  0.00  0.00    +0.000 A 
ATOM      2  C   UNL     1       1.262   7.935  20.907  0.00  0.00    +0.000 A 
ATOM      3  C   UNL     1       0.437   8.730  21.660  0.00  0.00    +0.000 A 
ATOM      4  C   UNL     1       0.150   9.828  20.873  0.00  0.00    +0.000 A 
ATOM      5  O   UNL     1       0.757   9.726  19.711  0.00  0.00    +0.000 OA
ENDROOT
BRANCH   1   7
ATOM      6  N   UNL     1       3.016   6.988  18.714  0.00  0.00    +0.000 N 
ATOM      7  C   UNL     1       2.235   8.103  18.576  0.00  0.00    +0.000 C 
ATOM      8  O   UNL     1       2.159   8.702  17.518  0.00  0.00    +0.000 OA
ATOM      9  H   UNL     1       2.968   6.491  19.618  0.00  0.00    +0.000 HD
BRANCH   6  13
ATOM     10  C   UNL     1       5.560   5.192  15.776  0.00  0.00    +0.000 A 
ATOM     11  C   UNL     1       5.713   6.550  16.108  0.00  0.00    +0.000 A 
ATOM     12  C   UNL     1       4.892   7.158  17.055  0.00  0.00    +0.000 A 
ATOM     13  C   UNL     1       3.880   6.426  17.714  0.00  0.00    +0.000 A 
ATOM     14  C   UNL     1       3.734   5.068  17.389  0.00  0.00    +0.000 A 
ATOM     15  C   UNL     1       4.552   4.459  16.432  0.00  0.00    +0.000 A 
BRANCH  10  17
ATOM     16  N   UNL     1       6.201   3.404  14.303  0.00  0.00    +0.000 NA
ATOM     17  C   UNL     1       6.476   4.575  14.763  0.00  0.00    +0.000 C 
ATOM     18  N   UNL     1       7.637   5.246  14.283  0.00  0.00    +0.000 N 
ATOM     19  H   UNL     1       6.796   2.939  13.601  0.00  0.00    +0.000 HD
ATOM     20  H   UNL     1       8.234   4.799  13.572  0.00  0.00    +0.000 HD
ATOM     21  H   UNL     1       7.926   6.168  14.626  0.00  0.00    +0.000 HD
ENDBRANCH  10  17
ENDBRANCH   6  13
ENDBRANCH   1   7
BRANCH   4  22
ATOM     22  C   UNL     1      -0.721  10.944  21.274  0.00  0.00    +0.000 C 
ATOM     23  O   UNL     1      -1.239  11.602  20.387  0.00  0.00    +0.000 OA
ATOM     24  N   UNL     1      -0.897  11.260  22.594  0.00  0.00    +0.000 N 
ATOM     25  H   UNL     1      -0.360  10.714  23.287  0.00  0.00    +0.000 HD
BRANCH  24  26
ATOM     26  C   UNL     1      -1.715  12.328  23.098  0.00  0.00    +0.000 A 
ATOM     27  C   UNL     1      -3.081  12.178  23.402  0.00  0.00    +0.000 A 
ATOM     28  C   UNL     1      -3.840  13.249  23.862  0.00  0.00    +0.000 A 
ATOM     29  C   UNL     1      -3.276  14.528  24.042  0.00  0.00    +0.000 A 
ATOM     30  C   UNL     1      -1.898  14.671  23.760  0.00  0.00    +0.000 A 
ATOM     31  C   UNL     1      -1.133  13.589  23.304  0.00  0.00    +0.000 A 
BRANCH  29  32
ATOM     32  C   UNL     1      -4.118  15.693  24.518  0.00  0.00    +0.000 C 
ATOM     33  N   UNL     1      -5.405  15.689  24.419  0.00  0.00    +0.000 NA
ATOM     34  N   UNL     1      -3.524  16.856  25.081  0.00  0.00    +0.000 N 
ATOM     35  H   UNL     1      -5.973  14.930  24.030  0.00  0.00    +0.000 HD
ATOM     36  H   UNL     1      -2.512  16.974  25.198  0.00  0.00    +0.000 HD
ATOM     37  H   UNL     1      -4.127  17.635  25.387  0.00  0.00    +0.000 HD
ENDBRANCH  29  32
ENDBRANCH  24  26
ENDBRANCH   4  22
TORSDOF 6
ENDMDL
MODEL 2
REMARK VINA RESULT:      -8.2      0.199     12.240
REMARK  Name = 
REMARK  6 active torsions:
REMARK  status: ('A' for Active; 'I' for Inactive)
REMARK    1  A    between atoms: C_2  and  C_4
REMARK    2  A    between atoms: C_7  and  N_8
REMARK    3  A    between atoms: C_9  and  C_11
REMARK    4  A    between atoms: C_14  and  C_15
REMARK    5  A    between atoms: N_17  and  C_18
REMARK    6  A    between atoms: C_21  and  C_22
REMARK                            x       y       z     vdW  Elec       q    Type
REMARK                         _______ _______ _______ _____ _____    ______ ____
ROOT
ATOM      1  C   UNL     1       0.161   9.835  20.925  0.00  0.00    +0.000 A 
ATOM      2  C   UNL     1       0.513   8.798  21.768  0.00  0.00    +0.000 A 
ATOM      3  C   UNL     1       1.328   7.977  21.033  0.00  0.00    +0.000 A 
ATOM      4  C   UNL     1       1.428   8.563  19.787  0.00  0.00    +0.000 A 
ATOM      5  O   UNL     1       0.721   9.671  19.746  0.00  0.00    +0.000 OA
ENDROOT
BRANCH   1   7
ATOM      6  N   UNL     1      -0.866  11.315  22.610  0.00  0.00    +0.000 N 
ATOM      7  C   UNL     1      -0.698  10.971  21.296  0.00  0.00    +0.000 C 
ATOM      8  O   UNL     1      -1.228  11.603  20.398  0.00  0.00    +0.000 OA
ATOM      9  H   UNL     1      -0.324  10.780  23.308  0.00  0.00    +0.000 HD
BRANCH   6  13
ATOM     10  C   UNL     1      -3.479  14.371  24.080  0.00  0.00    +0.000 A 
ATOM     11  C   UNL     1      -2.145  14.678  23.756  0.00  0.00    +0.000 A 
ATOM     12  C   UNL     1      -1.274  13.698  23.284  0.00  0.00    +0.000 A 
ATOM     13  C   UNL     1      -1.707  12.365  23.113  0.00  0.00    +0.000 A 
ATOM     14  C   UNL     1      -3.041  12.061  23.428  0.00  0.00    +0.000 A 
ATOM     15  C   UNL     1      -3.913  13.042  23.911  0.00  0.00    +0.000 A 
BRANCH  10  17
ATOM     16  N   UNL     1      -3.891  16.408  25.288  0.00  0.00    +0.000 NA
ATOM     17  C   UNL     1      -4.385  15.460  24.570  0.00  0.00    +0.000 C 
ATOM     18  N   UNL     1      -5.775  15.487  24.258  0.00  0.00    +0.000 N 
ATOM     19  H   UNL     1      -4.471  17.182  25.643  0.00  0.00    +0.000 HD
ATOM     20  H   UNL     1      -6.364  16.261  24.596  0.00  0.00    +0.000 HD
ATOM     21  H   UNL     1      -6.234  14.750  23.713  0.00  0.00    +0.000 HD
ENDBRANCH  10  17
ENDBRANCH   6  13
ENDBRANCH   1   7
BRANCH   4  22
ATOM     22  C   UNL     1       2.223   8.028  18.669  0.00  0.00    +0.000 C 
ATOM     23  O   UNL     1       2.097   8.565  17.581  0.00  0.00    +0.000 OA
ATOM     24  N   UNL     1       3.031   6.937  18.839  0.00  0.00    +0.000 N 
ATOM     25  H   UNL     1       3.023   6.482  19.767  0.00  0.00    +0.000 HD
BRANCH  24  26
ATOM     26  C   UNL     1       3.842   6.328  17.822  0.00  0.00    +0.000 A 
ATOM     27  C   UNL     1       3.719   4.979  17.441  0.00  0.00    +0.000 A 
ATOM     28  C   UNL     1       4.545   4.424  16.469  0.00  0.00    +0.000 A 
ATOM     29  C   UNL     1       5.540   5.188  15.825  0.00  0.00    +0.000 A 
ATOM     30  C   UNL     1       5.645   6.550  16.190  0.00  0.00    +0.000 A 
ATOM     31  C   UNL     1       4.806   7.108  17.165  0.00  0.00    +0.000 A 
BRANCH  29  32
ATOM     32  C   UNL     1       6.451   4.568  14.787  0.00  0.00    +0.000 C 
ATOM     33  N   UNL     1       6.206   3.411  14.269  0.00  0.00    +0.000 NA
ATOM     34  N   UNL     1       7.631   5.227  14.348  0.00  0.00    +0.000 N 
ATOM     35  H   UNL     1       5.401   2.815  14.490  0.00  0.00    +0.000 HD
ATOM     36  H   UNL     1       7.932   6.143  14.699  0.00  0.00    +0.000 HD
ATOM     37  H   UNL     1       8.235   4.772  13.646  0.00  0.00    +0.000 HD
ENDBRANCH  29  32
ENDBRANCH  24  26
ENDBRANCH   4  22
TORSDOF 6
ENDMDL
MODEL 3
REMARK VINA RESULT:      -8.2      0.139      1.248
REMARK  Name = 
REMARK  6 active torsions:
REMARK  status: ('A' for Active; 'I' for Inactive)
REMARK    1  A    between atoms: C_2  and  C_4
REMARK    2  A    between atoms: C_7  and  N_8
REMARK    3  A    between atoms: C_9  and  C_11
REMARK    4  A    between atoms: C_14  and  C_15
REMARK    5  A    between atoms: N_17  and  C_18
REMARK    6  A    between atoms: C_21  and  C_22
REMARK                            x       y       z     vdW  Elec       q    Type
REMARK                         _______ _______ _______ _____ _____    ______ ____
ROOT
ATOM      1  C   UNL     1       1.466   8.501  19.806  0.00  0.00    +0.000 A 
ATOM      2  C   UNL     1       1.325   7.885  21.035  0.00  0.00    +0.000 A 
ATOM      3  C   UNL     1       0.516   8.707  21.776  0.00  0.00    +0.000 A 
ATOM      4  C   UNL     1       0.208   9.774  20.956  0.00  0.00    +0.000 A 
ATOM      5  O   UNL     1       0.789   9.629  19.785  0.00  0.00    +0.000 OA
ENDROOT
BRANCH   1   7
ATOM      6  N   UNL     1       3.075   6.893  18.853  0.00  0.00    +0.000 N 
ATOM      7  C   UNL     1       2.244   7.966  18.677  0.00  0.00    +0.000 C 
ATOM      8  O   UNL     1       2.101   8.491  17.587  0.00  0.00    +0.000 OA
ATOM      9  H   UNL     1       3.083   6.455  19.788  0.00  0.00    +0.000 HD
BRANCH   6  13
ATOM     10  C   UNL     1       5.636   5.250  15.842  0.00  0.00    +0.000 A 
ATOM     11  C   UNL     1       4.602   4.471  16.392  0.00  0.00    +0.000 A 
ATOM     12  C   UNL     1       3.762   4.982  17.379  0.00  0.00    +0.000 A 
ATOM     13  C   UNL     1       3.921   6.301  17.855  0.00  0.00    +0.000 A 
ATOM     14  C   UNL     1       4.947   7.082  17.299  0.00  0.00    +0.000 A 
ATOM     15  C   UNL     1       5.798   6.567  16.315  0.00  0.00    +0.000 A 
BRANCH  10  17
ATOM     16  N   UNL     1       7.585   5.286  14.434  0.00  0.00    +0.000 NA
ATOM     17  C   UNL     1       6.507   4.666  14.771  0.00  0.00    +0.000 C 
ATOM     18  N   UNL     1       6.188   3.440  14.120  0.00  0.00    +0.000 N 
ATOM     19  H   UNL     1       8.219   4.922  13.708  0.00  0.00    +0.000 HD
ATOM     20  H   UNL     1       6.819   3.058  13.401  0.00  0.00    +0.000 HD
ATOM     21  H   UNL     1       5.333   2.911  14.323  0.00  0.00    +0.000 HD
ENDBRANCH  10  17
ENDBRANCH   6  13
ENDBRANCH   1   7
BRANCH   4  22
ATOM     22  C   UNL     1      -0.656  10.903  21.334  0.00  0.00    +0.000 C 
ATOM     23  O   UNL     1      -1.114  11.588  20.435  0.00  0.00    +0.000 OA
ATOM     24  N   UNL     1      -0.890  11.199  22.650  0.00  0.00    +0.000 N 
ATOM     25  H   UNL     1      -0.401  10.628  23.358  0.00  0.00    +0.000 HD
BRANCH  24  26
ATOM     26  C   UNL     1      -1.707  12.278  23.133  0.00  0.00    +0.000 A 
ATOM     27  C   UNL     1      -3.066  12.128  23.466  0.00  0.00    +0.000 A 
ATOM     28  C   UNL     1      -3.826  13.208  23.904  0.00  0.00    +0.000 A 
ATOM     29  C   UNL     1      -3.269  14.497  24.032  0.00  0.00    +0.000 A 
ATOM     30  C   UNL     1      -1.896  14.640  23.720  0.00  0.00    +0.000 A 
ATOM     31  C   UNL     1      -1.132  13.549  23.287  0.00  0.00    +0.000 A 
BRANCH  29  32
ATOM     32  C   UNL     1      -4.111  15.670  24.484  0.00  0.00    +0.000 C 
ATOM     33  N   UNL     1      -3.585  16.718  25.027  0.00  0.00    +0.000 NA
ATOM     34  N   UNL     1      -5.526  15.665  24.348  0.00  0.00    +0.000 N 
ATOM     35  H   UNL     1      -2.584  16.864  25.198  0.00  0.00    +0.000 HD
ATOM     36  H   UNL     1      -6.051  14.883  23.943  0.00  0.00    +0.000 HD
ATOM     37  H   UNL     1      -6.070  16.477  24.676  0.00  0.00    +0.000 HD
ENDBRANCH  29  32
ENDBRANCH  24  26
ENDBRANCH   4  22
TORSDOF 6
ENDMDL
MODEL 4
REMARK VINA RESULT:      -8.2      0.141      1.272
REMARK  Name = 
REMARK  6 active torsions:
REMARK  status: ('A' for Active; 'I' for Inactive)
REMARK    1  A    between atoms: C_2  and  C_4
REMARK    2  A    between atoms: C_7  and  N_8
REMARK    3  A    between atoms: C_9  and  C_11
REMARK    4  A    between atoms: C_14  and  C_15
REMARK    5  A    between atoms: N_17  and  C_18
REMARK    6  A    between atoms: C_21  and  C_22
REMARK                            x       y       z     vdW  Elec       q    Type
REMARK                         _______ _______ _______ _____ _____    ______ ____
ROOT
ATOM      1  C   UNL     1       1.497   8.524  19.664  0.00  0.00    +0.000 A 
ATOM      2  C   UNL     1       1.316   7.893  20.880  0.00  0.00    +0.000 A 
ATOM      3  C   UNL     1       0.508   8.720  21.616  0.00  0.00    +0.000 A 
ATOM      4  C   UNL     1       0.240   9.805  20.804  0.00  0.00    +0.000 A 
ATOM      5  O   UNL     1       0.843   9.666  19.644  0.00  0.00    +0.000 OA
ENDROOT
BRANCH   1   7
ATOM      6  N   UNL     1       3.052   6.865  18.709  0.00  0.00    +0.000 N 
ATOM      7  C   UNL     1       2.288   7.988  18.545  0.00  0.00    +0.000 C 
ATOM      8  O   UNL     1       2.217   8.562  17.471  0.00  0.00    +0.000 OA
ATOM      9  H   UNL     1       2.999   6.392  19.625  0.00  0.00    +0.000 HD
BRANCH   6  13
ATOM     10  C   UNL     1       5.611   5.195  15.710  0.00  0.00    +0.000 A 
ATOM     11  C   UNL     1       4.717   4.370  16.415  0.00  0.00    +0.000 A 
ATOM     12  C   UNL     1       3.881   4.889  17.401  0.00  0.00    +0.000 A 
ATOM     13  C   UNL     1       3.903   6.265  17.720  0.00  0.00    +0.000 A 
ATOM     14  C   UNL     1       4.789   7.090  17.009  0.00  0.00    +0.000 A 
ATOM     15  C   UNL     1       5.636   6.568  16.026  0.00  0.00    +0.000 A 
BRANCH  10  17
ATOM     16  N   UNL     1       6.173   3.443  14.163  0.00  0.00    +0.000 NA
ATOM     17  C   UNL     1       6.481   4.597  14.647  0.00  0.00    +0.000 C 
ATOM     18  N   UNL     1       7.634   5.266  14.145  0.00  0.00    +0.000 N 
ATOM     19  H   UNL     1       6.735   2.992  13.426  0.00  0.00    +0.000 HD
ATOM     20  H   UNL     1       8.198   4.833  13.400  0.00  0.00    +0.000 HD
ATOM     21  H   UNL     1       7.947   6.174  14.504  0.00  0.00    +0.000 HD
ENDBRANCH  10  17
ENDBRANCH   6  13
ENDBRANCH   1   7
BRANCH   4  22
ATOM     22  C   UNL     1      -0.609  10.947  21.181  0.00  0.00    +0.000 C 
ATOM     23  O   UNL     1      -1.094  11.610  20.279  0.00  0.00    +0.000 OA
ATOM     24  N   UNL     1      -0.800  11.278  22.495  0.00  0.00    +0.000 N 
ATOM     25  H   UNL     1      -0.289  10.725  23.202  0.00  0.00    +0.000 HD
BRANCH  24  26
ATOM     26  C   UNL     1      -1.598  12.372  22.976  0.00  0.00    +0.000 A 
ATOM     27  C   UNL     1      -1.085  13.665  23.193  0.00  0.00    +0.000 A 
ATOM     28  C   UNL     1      -1.889  14.687  23.687  0.00  0.00    +0.000 A 
ATOM     29  C   UNL     1      -3.249  14.473  23.991  0.00  0.00    +0.000 A 
ATOM     30  C   UNL     1      -3.769  13.180  23.748  0.00  0.00    +0.000 A 
ATOM     31  C   UNL     1      -2.958  12.154  23.243  0.00  0.00    +0.000 A 
BRANCH  29  32
ATOM     32  C   UNL     1      -4.108  15.585  24.552  0.00  0.00    +0.000 C 
ATOM     33  N   UNL     1      -5.397  15.558  24.470  0.00  0.00    +0.000 NA
ATOM     34  N   UNL     1      -3.532  16.723  25.180  0.00  0.00    +0.000 N 
ATOM     35  H   UNL     1      -5.954  14.812  24.041  0.00  0.00    +0.000 HD
ATOM     36  H   UNL     1      -2.522  16.857  25.290  0.00  0.00    +0.000 HD
ATOM     37  H   UNL     1      -4.147  17.468  25.543  0.00  0.00    +0.000 HD
ENDBRANCH  29  32
ENDBRANCH  24  26
ENDBRANCH   4  22
TORSDOF 6
ENDMDL
MODEL 5
REMARK VINA RESULT:      -8.1      0.110     12.269
REMARK  Name = 
REMARK  6 active torsions:
REMARK  status: ('A' for Active; 'I' for Inactive)
REMARK    1  A    between atoms: C_2  and  C_4
REMARK    2  A    between atoms: C_7  and  N_8
REMARK    3  A    between atoms: C_9  and  C_11
REMARK    4  A    between atoms: C_14  and  C_15
REMARK    5  A    between atoms: N_17  and  C_18
REMARK    6  A    between atoms: C_21  and  C_22
REMARK                            x       y       z     vdW  Elec       q    Type
REMARK                         _______ _______ _______ _____ _____    ______ ____
ROOT
ATOM      1  C   UNL     1       0.152   9.875  20.816  0.00  0.00    +0.000 A 
ATOM      2  C   UNL     1       0.458   8.813  21.645  0.00  0.00    +0.000 A 
ATOM      3  C   UNL     1       1.283   7.995  20.919  0.00  0.00    +0.000 A 
ATOM      4  C   UNL     1       1.435   8.607  19.691  0.00  0.00    +0.000 A 
ATOM      5  O   UNL     1       0.749   9.728  19.653  0.00  0.00    +0.000 OA
ENDROOT
BRANCH   1   7
ATOM      6  N   UNL     1      -0.837  11.386  22.496  0.00  0.00    +0.000 N 
ATOM      7  C   UNL     1      -0.700  11.017  21.185  0.00  0.00    +0.000 C 
ATOM      8  O   UNL     1      -1.252  11.630  20.288  0.00  0.00    +0.000 OA
ATOM      9  H   UNL     1      -0.277  10.867  23.190  0.00  0.00    +0.000 HD
BRANCH   6  13
ATOM     10  C   UNL     1      -3.202  14.610  24.027  0.00  0.00    +0.000 A 
ATOM     11  C   UNL     1      -3.781  13.345  23.820  0.00  0.00    +0.000 A 
ATOM     12  C   UNL     1      -3.033  12.283  23.315  0.00  0.00    +0.000 A 
ATOM     13  C   UNL     1      -1.667  12.445  22.998  0.00  0.00    +0.000 A 
ATOM     14  C   UNL     1      -1.087  13.706  23.213  0.00  0.00    +0.000 A 
ATOM     15  C   UNL     1      -1.839  14.774  23.711  0.00  0.00    +0.000 A 
BRANCH  10  17
ATOM     16  N   UNL     1      -5.323  15.629  24.517  0.00  0.00    +0.000 NA
ATOM     17  C   UNL     1      -4.040  15.718  24.587  0.00  0.00    +0.000 C 
ATOM     18  N   UNL     1      -3.465  16.866  25.204  0.00  0.00    +0.000 N 
ATOM     19  H   UNL     1      -5.943  16.362  24.893  0.00  0.00    +0.000 HD
ATOM     20  H   UNL     1      -4.072  17.601  25.596  0.00  0.00    +0.000 HD
ATOM     21  H   UNL     1      -2.451  17.010  25.270  0.00  0.00    +0.000 HD
ENDBRANCH  10  17
ENDBRANCH   6  13
ENDBRANCH   1   7
BRANCH   4  22
ATOM     22  C   UNL     1       2.258   8.084  18.588  0.00  0.00    +0.000 C 
ATOM     23  O   UNL     1       2.182   8.652  17.511  0.00  0.00    +0.000 OA
ATOM     24  N   UNL     1       3.037   6.972  18.757  0.00  0.00    +0.000 N 
ATOM     25  H   UNL     1       2.986   6.494  19.671  0.00  0.00    +0.000 HD
BRANCH  24  26
ATOM     26  C   UNL     1       3.870   6.372  17.752  0.00  0.00    +0.000 A 
ATOM     27  C   UNL     1       3.760   5.025  17.361  0.00  0.00    +0.000 A 
ATOM     28  C   UNL     1       4.608   4.479  16.403  0.00  0.00    +0.000 A 
ATOM     29  C   UNL     1       5.613   5.250  15.784  0.00  0.00    +0.000 A 
ATOM     30  C   UNL     1       5.706   6.610  16.160  0.00  0.00    +0.000 A 
ATOM     31  C   UNL     1       4.845   7.159  17.120  0.00  0.00    +0.000 A 
BRANCH  29  32
ATOM     32  C   UNL     1       6.547   4.640  14.761  0.00  0.00    +0.000 C 
ATOM     33  N   UNL     1       7.657   5.209  14.426  0.00  0.00    +0.000 NA
ATOM     34  N   UNL     1       6.235   3.417  14.108  0.00  0.00    +0.000 N 
ATOM     35  H   UNL     1       8.013   6.094  14.803  0.00  0.00    +0.000 HD
ATOM     36  H   UNL     1       5.377   2.884  14.285  0.00  0.00    +0.000 HD
ATOM     37  H   UNL     1       6.890   3.033  13.409  0.00  0.00    +0.000 HD
ENDBRANCH  29  32
ENDBRANCH  24  26
ENDBRANCH   4  22
TORSDOF 6
ENDMDL
MODEL 6
REMARK VINA RESULT:      -8.1      0.288     12.274
REMARK  Name = 
REMARK  6 active torsions:
REMARK  status: ('A' for Active; 'I' for Inactive)
REMARK    1  A    between atoms: C_2  and  C_4
REMARK    2  A    between atoms: C_7  and  N_8
REMARK    3  A    between atoms: C_9  and  C_11
REMARK    4  A    between atoms: C_14  and  C_15
REMARK    5  A    between atoms: N_17  and  C_18
REMARK    6  A    between atoms: C_21  and  C_22
REMARK                            x       y       z     vdW  Elec       q    Type
REMARK                         _______ _______ _______ _____ _____    ______ ____
ROOT
ATOM      1  C   UNL     1       0.211   9.691  20.757  0.00  0.00    +0.000 A 
ATOM      2  C   UNL     1       0.469   8.579  21.536  0.00  0.00    +0.000 A 
ATOM      3  C   UNL     1       1.323   7.797  20.803  0.00  0.00    +0.000 A 
ATOM      4  C   UNL     1       1.538   8.478  19.622  0.00  0.00    +0.000 A 
ATOM      5  O   UNL     1       0.862   9.606  19.617  0.00  0.00    +0.000 OA
ENDROOT
BRANCH   1   7
ATOM      6  N   UNL     1      -0.715  11.217  22.458  0.00  0.00    +0.000 N 
ATOM      7  C   UNL     1      -0.650  10.817  21.151  0.00  0.00    +0.000 C 
ATOM      8  O   UNL     1      -1.275  11.391  20.276  0.00  0.00    +0.000 OA
ATOM      9  H   UNL     1      -0.098  10.732  23.128  0.00  0.00    +0.000 HD
BRANCH   6  13
ATOM     10  C   UNL     1      -3.291  14.262  24.016  0.00  0.00    +0.000 A 
ATOM     11  C   UNL     1      -2.005  14.593  23.553  0.00  0.00    +0.000 A 
ATOM     12  C   UNL     1      -1.146  13.618  23.049  0.00  0.00    +0.000 A 
ATOM     13  C   UNL     1      -1.544  12.265  22.986  0.00  0.00    +0.000 A 
ATOM     14  C   UNL     1      -2.831  11.936  23.440  0.00  0.00    +0.000 A 
ATOM     15  C   UNL     1      -3.690  12.913  23.954  0.00  0.00    +0.000 A 
BRANCH  10  17
ATOM     16  N   UNL     1      -3.713  16.200  25.374  0.00  0.00    +0.000 NA
ATOM     17  C   UNL     1      -4.186  15.346  24.534  0.00  0.00    +0.000 C 
ATOM     18  N   UNL     1      -5.544  15.469  24.122  0.00  0.00    +0.000 N 
ATOM     19  H   UNL     1      -4.287  16.967  25.755  0.00  0.00    +0.000 HD
ATOM     20  H   UNL     1      -6.126  16.238  24.485  0.00  0.00    +0.000 HD
ATOM     21  H   UNL     1      -5.989  14.808  23.476  0.00  0.00    +0.000 HD
ENDBRANCH  10  17
ENDBRANCH   6  13
ENDBRANCH   1   7
BRANCH   4  22
ATOM     22  C   UNL     1       2.409   8.013  18.531  0.00  0.00    +0.000 C 
ATOM     23  O   UNL     1       2.359   8.617  17.472  0.00  0.00    +0.000 OA
ATOM     24  N   UNL     1       3.206   6.911  18.688  0.00  0.00    +0.000 N 
ATOM     25  H   UNL     1       3.134   6.398  19.581  0.00  0.00    +0.000 HD
BRANCH  24  26
ATOM     26  C   UNL     1       4.086   6.365  17.692  0.00  0.00    +0.000 A 
ATOM     27  C   UNL     1       5.184   7.069  17.163  0.00  0.00    +0.000 A 
ATOM     28  C   UNL     1       5.994   6.511  16.179  0.00  0.00    +0.000 A 
ATOM     29  C   UNL     1       5.750   5.219  15.670  0.00  0.00    +0.000 A 
ATOM     30  C   UNL     1       4.661   4.504  16.220  0.00  0.00    +0.000 A 
ATOM     31  C   UNL     1       3.852   5.066  17.217  0.00  0.00    +0.000 A 
BRANCH  29  32
ATOM     32  C   UNL     1       6.622   4.632  14.581  0.00  0.00    +0.000 C 
ATOM     33  N   UNL     1       7.709   5.210  14.192  0.00  0.00    +0.000 NA
ATOM     34  N   UNL     1       6.272   3.421  13.923  0.00  0.00    +0.000 N 
ATOM     35  H   UNL     1       8.086   6.088  14.564  0.00  0.00    +0.000 HD
ATOM     36  H   UNL     1       5.427   2.882  14.142  0.00  0.00    +0.000 HD
ATOM     37  H   UNL     1       6.884   3.053  13.179  0.00  0.00    +0.000 HD
ENDBRANCH  29  32
ENDBRANCH  24  26
ENDBRANCH   4  22
TORSDOF 6
ENDMDL
MODEL 7
REMARK VINA RESULT:      -8.1      0.148      1.247
REMARK  Name = 
REMARK  6 active torsions:
REMARK  status: ('A' for Active; 'I' for Inactive)
REMARK    1  A    between atoms: C_2  and  C_4
REMARK    2  A    between atoms: C_7  and  N_8
REMARK    3  A    between atoms: C_9  and  C_11
REMARK    4  A    between atoms: C_14  and  C_15
REMARK    5  A    between atoms: N_17  and  C_18
REMARK    6  A    between atoms: C_21  and  C_22
REMARK                            x       y       z     vdW  Elec       q    Type
REMARK                         _______ _______ _______ _____ _____    ______ ____
ROOT
ATOM      1  C   UNL     1       1.457   8.639  19.635  0.00  0.00    +0.000 A 
ATOM      2  C   UNL     1       1.248   7.974  20.828  0.00  0.00    +0.000 A 
ATOM      3  C   UNL     1       0.430   8.785  21.571  0.00  0.00    +0.000 A 
ATOM      4  C   UNL     1       0.185   9.895  20.787  0.00  0.00    +0.000 A 
ATOM      5  O   UNL     1       0.811   9.785  19.636  0.00  0.00    +0.000 OA
ENDROOT
BRANCH   1   7
ATOM      6  N   UNL     1       3.039   7.012  18.669  0.00  0.00    +0.000 N 
ATOM      7  C   UNL     1       2.267   8.132  18.516  0.00  0.00    +0.000 C 
ATOM      8  O   UNL     1       2.204   8.724  17.452  0.00  0.00    +0.000 OA
ATOM      9  H   UNL     1       2.979   6.522  19.575  0.00  0.00    +0.000 HD
BRANCH   6  13
ATOM     10  C   UNL     1       5.603   5.179  15.771  0.00  0.00    +0.000 A 
ATOM     11  C   UNL     1       5.718   6.553  16.048  0.00  0.00    +0.000 A 
ATOM     12  C   UNL     1       4.889   7.173  16.980  0.00  0.00    +0.000 A 
ATOM     13  C   UNL     1       3.908   6.438  17.681  0.00  0.00    +0.000 A 
ATOM     14  C   UNL     1       3.801   5.064  17.412  0.00  0.00    +0.000 A 
ATOM     15  C   UNL     1       4.626   4.442  16.469  0.00  0.00    +0.000 A 
BRANCH  10  17
ATOM     16  N   UNL     1       7.650   5.125  14.512  0.00  0.00    +0.000 NA
ATOM     17  C   UNL     1       6.526   4.551  14.772  0.00  0.00    +0.000 C 
ATOM     18  N   UNL     1       6.208   3.332  14.107  0.00  0.00    +0.000 N 
ATOM     19  H   UNL     1       8.321   4.729  13.837  0.00  0.00    +0.000 HD
ATOM     20  H   UNL     1       6.875   2.919  13.440  0.00  0.00    +0.000 HD
ATOM     21  H   UNL     1       5.320   2.838  14.251  0.00  0.00    +0.000 HD
ENDBRANCH  10  17
ENDBRANCH   6  13
ENDBRANCH   1   7
BRANCH   4  22
ATOM     22  C   UNL     1      -0.663  11.031  21.181  0.00  0.00    +0.000 C 
ATOM     23  O   UNL     1      -1.226  11.648  20.292  0.00  0.00    +0.000 OA
ATOM     24  N   UNL     1      -0.771  11.408  22.492  0.00  0.00    +0.000 N 
ATOM     25  H   UNL     1      -0.199  10.893  23.180  0.00  0.00    +0.000 HD
BRANCH  24  26
ATOM     26  C   UNL     1      -1.561  12.500  22.987  0.00  0.00    +0.000 A 
ATOM     27  C   UNL     1      -1.066  13.811  23.124  0.00  0.00    +0.000 A 
ATOM     28  C   UNL     1      -1.859  14.833  23.635  0.00  0.00    +0.000 A 
ATOM     29  C   UNL     1      -3.190  14.601  24.038  0.00  0.00    +0.000 A 
ATOM     30  C   UNL     1      -3.694  13.289  23.876  0.00  0.00    +0.000 A 
ATOM     31  C   UNL     1      -2.895  12.263  23.354  0.00  0.00    +0.000 A 
BRANCH  29  32
ATOM     32  C   UNL     1      -4.037  15.714  24.617  0.00  0.00    +0.000 C 
ATOM     33  N   UNL     1      -3.512  16.718  25.236  0.00  0.00    +0.000 NA
ATOM     34  N   UNL     1      -5.455  15.695  24.519  0.00  0.00    +0.000 N 
ATOM     35  H   UNL     1      -2.509  16.867  25.393  0.00  0.00    +0.000 HD
ATOM     36  H   UNL     1      -5.980  14.944  24.060  0.00  0.00    +0.000 HD
ATOM     37  H   UNL     1      -6.002  16.466  24.933  0.00  0.00    +0.000 HD
ENDBRANCH  29  32
ENDBRANCH  24  26
ENDBRANCH   4  22
TORSDOF 6
ENDMDL
MODEL 8
REMARK VINA RESULT:      -8.1      0.179     12.300
REMARK  Name = 
REMARK  6 active torsions:
REMARK  status: ('A' for Active; 'I' for Inactive)
REMARK    1  A    between atoms: C_2  and  C_4
REMARK    2  A    between atoms: C_7  and  N_8
REMARK    3  A    between atoms: C_9  and  C_11
REMARK    4  A    between atoms: C_14  and  C_15
REMARK    5  A    between atoms: N_17  and  C_18
REMARK    6  A    between atoms: C_21  and  C_22
REMARK                            x       y       z     vdW  Elec       q    Type
REMARK                         _______ _______ _______ _____ _____    ______ ____
ROOT
ATOM      1  C   UNL     1       0.258   9.833  20.763  0.00  0.00    +0.000 A 
ATOM      2  C   UNL     1       0.530   8.750  21.577  0.00  0.00    +0.000 A 
ATOM      3  C   UNL     1       1.356   7.932  20.851  0.00  0.00    +0.000 A 
ATOM      4  C   UNL     1       1.543   8.566  19.638  0.00  0.00    +0.000 A 
ATOM      5  O   UNL     1       0.875   9.698  19.609  0.00  0.00    +0.000 OA
ENDROOT
BRANCH   1   7
ATOM      6  N   UNL     1      -0.797  11.284  22.455  0.00  0.00    +0.000 N 
ATOM      7  C   UNL     1      -0.582  10.981  21.138  0.00  0.00    +0.000 C 
ATOM      8  O   UNL     1      -1.053  11.660  20.241  0.00  0.00    +0.000 OA
ATOM      9  H   UNL     1      -0.301  10.710  23.155  0.00  0.00    +0.000 HD
BRANCH   6  13
ATOM     10  C   UNL     1      -3.163  14.504  23.994  0.00  0.00    +0.000 A 
ATOM     11  C   UNL     1      -3.743  13.242  23.775  0.00  0.00    +0.000 A 
ATOM     12  C   UNL     1      -2.996  12.182  23.267  0.00  0.00    +0.000 A 
ATOM     13  C   UNL     1      -1.627  12.342  22.959  0.00  0.00    +0.000 A 
ATOM     14  C   UNL     1      -1.045  13.600  23.187  0.00  0.00    +0.000 A 
ATOM     15  C   UNL     1      -1.797  14.667  23.687  0.00  0.00    +0.000 A 
BRANCH  10  17
ATOM     16  N   UNL     1      -3.417  16.621  25.103  0.00  0.00    +0.000 NA
ATOM     17  C   UNL     1      -4.001  15.611  24.556  0.00  0.00    +0.000 C 
ATOM     18  N   UNL     1      -5.424  15.590  24.497  0.00  0.00    +0.000 N 
ATOM     19  H   UNL     1      -3.949  17.411  25.498  0.00  0.00    +0.000 HD
ATOM     20  H   UNL     1      -5.968  16.378  24.877  0.00  0.00    +0.000 HD
ATOM     21  H   UNL     1      -5.950  14.805  24.098  0.00  0.00    +0.000 HD
ENDBRANCH  10  17
ENDBRANCH   6  13
ENDBRANCH   1   7
BRANCH   4  22
ATOM     22  C   UNL     1       2.379   8.051  18.541  0.00  0.00    +0.000 C 
ATOM     23  O   UNL     1       2.243   8.563  17.442  0.00  0.00    +0.000 OA
ATOM     24  N   UNL     1       3.236   7.004  18.742  0.00  0.00    +0.000 N 
ATOM     25  H   UNL     1       3.236   6.565  19.677  0.00  0.00    +0.000 HD
BRANCH  24  26
ATOM     26  C   UNL     1       4.090   6.417  17.747  0.00  0.00    +0.000 A 
ATOM     27  C   UNL     1       5.186   7.091  17.176  0.00  0.00    +0.000 A 
ATOM     28  C   UNL     1       5.969   6.494  16.194  0.00  0.00    +0.000 A 
ATOM     29  C   UNL     1       5.699   5.191  15.728  0.00  0.00    +0.000 A 
ATOM     30  C   UNL     1       4.612   4.506  16.320  0.00  0.00    +0.000 A 
ATOM     31  C   UNL     1       3.830   5.108  17.315  0.00  0.00    +0.000 A 
BRANCH  29  32
ATOM     32  C   UNL     1       6.542   4.560  14.640  0.00  0.00    +0.000 C 
ATOM     33  N   UNL     1       6.222   3.433  14.098  0.00  0.00    +0.000 NA
ATOM     34  N   UNL     1       7.737   5.175  14.177  0.00  0.00    +0.000 N 
ATOM     35  H   UNL     1       5.398   2.869  14.330  0.00  0.00    +0.000 HD
ATOM     36  H   UNL     1       8.094   6.064  14.543  0.00  0.00    +0.000 HD
ATOM     37  H   UNL     1       8.293   4.713  13.441  0.00  0.00    +0.000 HD
ENDBRANCH  29  32
ENDBRANCH  24  26
ENDBRANCH   4  22
TORSDOF 6
ENDMDL
MODEL 9
REMARK VINA RESULT:      -7.6      2.643     12.003
REMARK  Name = 
REMARK  6 active torsions:
REMARK  status: ('A' for Active; 'I' for Inactive)
REMARK    1  A    between atoms: C_2  and  C_4
REMARK    2  A    between atoms: C_7  and  N_8
REMARK    3  A    between atoms: C_9  and  C_11
REMARK    4  A    between atoms: C_14  and  C_15
REMARK    5  A    between atoms: N_17  and  C_18
REMARK    6  A    between atoms: C_21  and  C_22
REMARK                            x       y       z     vdW  Elec       q    Type
REMARK                         _______ _______ _______ _____ _____    ______ ____
ROOT
ATOM      1  C   UNL     1       0.291  10.957  20.203  0.00  0.00    +0.000 A 
ATOM      2  C   UNL     1       0.742  11.464  19.000  0.00  0.00    +0.000 A 
ATOM      3  C   UNL     1       1.429  10.444  18.396  0.00  0.00    +0.000 A 
ATOM      4  C   UNL     1       1.354   9.373  19.264  0.00  0.00    +0.000 A 
ATOM      5  O   UNL     1       0.671   9.705  20.338  0.00  0.00    +0.000 OA
ENDROOT
BRANCH   1   7
ATOM      6  N   UNL     1      -1.666  12.334  20.801  0.00  0.00    +0.000 N 
ATOM      7  C   UNL     1      -0.515  11.701  21.185  0.00  0.00    +0.000 C 
ATOM      8  O   UNL     1      -0.137  11.710  22.343  0.00  0.00    +0.000 OA
ATOM      9  H   UNL     1      -1.961  12.215  19.819  0.00  0.00    +0.000 HD
BRANCH   6  13
ATOM     10  C   UNL     1      -4.303  14.609  23.291  0.00  0.00    +0.000 A 
ATOM     11  C   UNL     1      -3.203  15.231  22.673  0.00  0.00    +0.000 A 
ATOM     12  C   UNL     1      -2.327  14.509  21.865  0.00  0.00    +0.000 A 
ATOM     13  C   UNL     1      -2.519  13.128  21.640  0.00  0.00    +0.000 A 
ATOM     14  C   UNL     1      -3.623  12.510  22.250  0.00  0.00    +0.000 A 
ATOM     15  C   UNL     1      -4.497  13.232  23.069  0.00  0.00    +0.000 A 
BRANCH  10  17
ATOM     16  N   UNL     1      -4.738  16.367  24.872  0.00  0.00    +0.000 NA
ATOM     17  C   UNL     1      -5.228  15.427  24.139  0.00  0.00    +0.000 C 
ATOM     18  N   UNL     1      -6.636  15.208  24.154  0.00  0.00    +0.000 N 
ATOM     19  H   UNL     1      -5.334  16.961  25.468  0.00  0.00    +0.000 HD
ATOM     20  H   UNL     1      -7.244  15.802  24.735  0.00  0.00    +0.000 HD
ATOM     21  H   UNL     1      -7.086  14.461  23.614  0.00  0.00    +0.000 HD
ENDBRANCH  10  17
ENDBRANCH   6  13
ENDBRANCH   1   7
BRANCH   4  22
ATOM     22  C   UNL     1       1.945   8.048  19.017  0.00  0.00    +0.000 C 
ATOM     23  O   UNL     1       2.146   7.728  17.858  0.00  0.00    +0.000 OA
ATOM     24  N   UNL     1       2.208   7.191  20.052  0.00  0.00    +0.000 N 
ATOM     25  H   UNL     1       1.932   7.495  20.999  0.00  0.00    +0.000 HD
BRANCH  24  26
ATOM     26  C   UNL     1       2.773   5.876  19.927  0.00  0.00    +0.000 A 
ATOM     27  C   UNL     1       4.040   5.631  19.363  0.00  0.00    +0.000 A 
ATOM     28  C   UNL     1       4.536   4.338  19.237  0.00  0.00    +0.000 A 
ATOM     29  C   UNL     1       3.793   3.219  19.667  0.00  0.00    +0.000 A 
ATOM     30  C   UNL     1       2.532   3.469  20.256  0.00  0.00    +0.000 A 
ATOM     31  C   UNL     1       2.038   4.774  20.388  0.00  0.00    +0.000 A 
BRANCH  29  32
ATOM     32  C   UNL     1       4.331   1.814  19.502  0.00  0.00    +0.000 C 
ATOM     33  N   UNL     1       5.237   1.334  20.287  0.00  0.00    +0.000 NA
ATOM     34  N   UNL     1       3.874   0.962  18.459  0.00  0.00    +0.000 N 
ATOM     35  H   UNL     1       5.668   1.828  21.076  0.00  0.00    +0.000 HD
ATOM     36  H   UNL     1       3.167   1.240  17.771  0.00  0.00    +0.000 HD
ATOM     37  H   UNL     1       4.269   0.013  18.370  0.00  0.00    +0.000 HD
ENDBRANCH  29  32
ENDBRANCH  24  26
ENDBRANCH   4  22
TORSDOF 6
ENDMDL
