MODEL 1
REMARK VINA RESULT:      -7.6      0.000      0.000
REMARK  Name = 
REMARK  8 active torsions:
REMARK  status: ('A' for Active; 'I' for Inactive)
REMARK    1  A    between atoms: C_1  and  C_2
REMARK    2  A    between atoms: C_2  and  O_3
REMARK    3  A    between atoms: O_3  and  C_4
REMARK    4  A    between atoms: C_4  and  C_6
REMARK    5  A    between atoms: C_6  and  C_7
REMARK    6  A    between atoms: C_6  and  C_9
REMARK    7  A    between atoms: N_14  and  C_15
REMARK    8  A    between atoms: C_15  and  C_16
REMARK                            x       y       z     vdW  Elec       q    Type
REMARK                         _______ _______ _______ _____ _____    ______ ____
ROOT
ATOM      1  C   UNL     1       2.709   6.264  19.009  0.00  0.00    +0.000 A 
ATOM      2  C   UNL     1       2.153   6.214  20.225  0.00  0.00    +0.000 A 
ATOM      3 CL   UNL     1       2.052   4.807  21.202  0.00  0.00    +0.000 Cl
ATOM      4  C   UNL     1       1.536   7.439  20.758  0.00  0.00    +0.000 A 
ATOM      5  N   UNL     1       1.355   8.530  20.090  0.00  0.00    +0.000 NA
ATOM      6  N   UNL     1       1.870   8.561  18.808  0.00  0.00    +0.000 N 
ATOM      7  C   UNL     1       2.735   7.586  18.320  0.00  0.00    +0.000 A 
ATOM      8  O   UNL     1       3.487   7.738  17.359  0.00  0.00    +0.000 OA
ENDROOT
BRANCH   1   9
ATOM      9  C   UNL     1       3.210   5.071  18.228  0.00  0.00    +0.000 C 
BRANCH   9  10
ATOM     10  C   UNL     1       4.485   4.483  18.807  0.00  0.00    +0.000 C 
ATOM     11  O   UNL     1       4.556   3.348  19.266  0.00  0.00    +0.000 OA
BRANCH  10  12
ATOM     12  O   UNL     1       5.454   5.429  18.941  0.00  0.00    +0.000 OA
BRANCH  12  14
ATOM     13  C   UNL     1       7.781   5.930  19.054  0.00  0.00    +0.000 C 
ATOM     14  C   UNL     1       6.719   5.096  18.359  0.00  0.00    +0.000 C 
ENDBRANCH  12  14
ENDBRANCH  10  12
ENDBRANCH   9  10
BRANCH   9  15
ATOM     15  C   UNL     1       2.126   4.027  18.014  0.00  0.00    +0.000 C 
ATOM     16  N   UNL     1       1.227   3.161  17.835  0.00  0.00    +0.000 NA
ENDBRANCH   9  15
ENDBRANCH   1   9
BRANCH   6  17
ATOM     17  C   UNL     1       1.642   9.789  18.045  0.00  0.00    +0.000 C 
BRANCH  17  18
ATOM     18  C   UNL     1       0.623  10.725  18.682  0.00  0.00    +0.000 A 
ATOM     19  C   UNL     1       1.087  11.615  19.671  0.00  0.00    +0.000 A 
ATOM     20  C   UNL     1       0.208  12.455  20.350  0.00  0.00    +0.000 A 
ATOM     21  C   UNL     1      -1.152  12.417  20.064  0.00  0.00    +0.000 A 
ATOM     22  C   UNL     1      -1.652  11.555  19.080  0.00  0.00    +0.000 A 
ATOM     23  C   UNL     1      -3.033  11.528  18.818  0.00  0.00    +0.000 A 
ATOM     24  C   UNL     1      -3.561  10.694  17.836  0.00  0.00    +0.000 A 
ATOM     25  C   UNL     1      -2.711   9.886  17.094  0.00  0.00    +0.000 A 
ATOM     26  C   UNL     1      -1.336   9.893  17.350  0.00  0.00    +0.000 A 
ATOM     27  C   UNL     1      -0.766  10.709  18.355  0.00  0.00    +0.000 A 
ENDBRANCH  17  18
ENDBRANCH   6  17
TORSDOF 7
ENDMDL
MODEL 2
REMARK VINA RESULT:      -7.6      1.180      2.516
REMARK  Name = 
REMARK  8 active torsions:
REMARK  status: ('A' for Active; 'I' for Inactive)
REMARK    1  A    between atoms: C_1  and  C_2
REMARK    2  A    between atoms: C_2  and  O_3
REMARK    3  A    between atoms: O_3  and  C_4
REMARK    4  A    between atoms: C_4  and  C_6
REMARK    5  A    between atoms: C_6  and  C_7
REMARK    6  A    between atoms: C_6  and  C_9
REMARK    7  A    between atoms: N_14  and  C_15
REMARK    8  A    between atoms: C_15  and  C_16
REMARK                            x       y       z     vdW  Elec       q    Type
REMARK                         _______ _______ _______ _____ _____    ______ ____
ROOT
ATOM      1  C   UNL     1       2.284   7.056  18.845  0.00  0.00    +0.000 A 
ATOM      2  C   UNL     1       1.981   6.790  20.121  0.00  0.00    +0.000 A 
ATOM      3 CL   UNL     1       2.190   5.267  20.883  0.00  0.00    +0.000 Cl
ATOM      4  C   UNL     1       1.379   7.861  20.931  0.00  0.00    +0.000 A 
ATOM      5  N   UNL     1       0.981   9.002  20.474  0.00  0.00    +0.000 NA
ATOM      6  N   UNL     1       1.233   9.253  19.139  0.00  0.00    +0.000 N 
ATOM      7  C   UNL     1       2.065   8.450  18.364  0.00  0.00    +0.000 A 
ATOM      8  O   UNL     1       2.600   8.806  17.316  0.00  0.00    +0.000 OA
ENDROOT
BRANCH   1   9
ATOM      9  C   UNL     1       2.722   6.035  17.821  0.00  0.00    +0.000 C 
BRANCH   9  10
ATOM     10  C   UNL     1       4.198   5.693  17.925  0.00  0.00    +0.000 C 
ATOM     11  O   UNL     1       5.093   6.515  17.753  0.00  0.00    +0.000 OA
BRANCH  10  12
ATOM     12  O   UNL     1       4.394   4.350  18.019  0.00  0.00    +0.000 OA
BRANCH  12  14
ATOM     13  C   UNL     1       4.353   2.607  19.643  0.00  0.00    +0.000 C 
ATOM     14  C   UNL     1       5.019   3.906  19.227  0.00  0.00    +0.000 C 
ENDBRANCH  12  14
ENDBRANCH  10  12
ENDBRANCH   9  10
BRANCH   9  15
ATOM     15  C   UNL     1       1.832   4.802  17.820  0.00  0.00    +0.000 C 
ATOM     16  N   UNL     1       1.093   3.781  17.820  0.00  0.00    +0.000 NA
ENDBRANCH   9  15
ENDBRANCH   1   9
BRANCH   6  17
ATOM     17  C   UNL     1       0.759  10.537  18.618  0.00  0.00    +0.000 C 
BRANCH  17  18
ATOM     18  C   UNL     1      -0.748  10.596  18.413  0.00  0.00    +0.000 A 
ATOM     19  C   UNL     1      -1.295   9.810  17.378  0.00  0.00    +0.000 A 
ATOM     20  C   UNL     1      -2.654   9.859  17.080  0.00  0.00    +0.000 A 
ATOM     21  C   UNL     1      -3.494  10.699  17.802  0.00  0.00    +0.000 A 
ATOM     22  C   UNL     1      -2.993  11.487  18.846  0.00  0.00    +0.000 A 
ATOM     23  C   UNL     1      -3.863  12.336  19.553  0.00  0.00    +0.000 A 
ATOM     24  C   UNL     1      -3.400  13.122  20.606  0.00  0.00    +0.000 A 
ATOM     25  C   UNL     1      -2.064  13.056  20.974  0.00  0.00    +0.000 A 
ATOM     26  C   UNL     1      -1.184  12.224  20.273  0.00  0.00    +0.000 A 
ATOM     27  C   UNL     1      -1.612  11.430  19.184  0.00  0.00    +0.000 A 
ENDBRANCH  17  18
ENDBRANCH   6  17
TORSDOF 7
ENDMDL
MODEL 3
REMARK VINA RESULT:      -7.5      1.140      2.386
REMARK  Name = 
REMARK  8 active torsions:
REMARK  status: ('A' for Active; 'I' for Inactive)
REMARK    1  A    between atoms: C_1  and  C_2
REMARK    2  A    between atoms: C_2  and  O_3
REMARK    3  A    between atoms: O_3  and  C_4
REMARK    4  A    between atoms: C_4  and  C_6
REMARK    5  A    between atoms: C_6  and  C_7
REMARK    6  A    between atoms: C_6  and  C_9
REMARK    7  A    between atoms: N_14  and  C_15
REMARK    8  A    between atoms: C_15  and  C_16
REMARK                            x       y       z     vdW  Elec       q    Type
REMARK                         _______ _______ _______ _____ _____    ______ ____
ROOT
ATOM      1  C   UNL     1       2.417   6.735  18.833  0.00  0.00    +0.000 A 
ATOM      2  C   UNL     1       2.077   6.519  20.110  0.00  0.00    +0.000 A 
ATOM      3 CL   UNL     1       2.191   5.008  20.913  0.00  0.00    +0.000 Cl
ATOM      4  C   UNL     1       1.517   7.641  20.880  0.00  0.00    +0.000 A 
ATOM      5  N   UNL     1       1.188   8.788  20.386  0.00  0.00    +0.000 NA
ATOM      6  N   UNL     1       1.477   8.991  19.051  0.00  0.00    +0.000 N 
ATOM      7  C   UNL     1       2.280   8.126  18.314  0.00  0.00    +0.000 A 
ATOM      8  O   UNL     1       2.853   8.426  17.268  0.00  0.00    +0.000 OA
ENDROOT
BRANCH   1   9
ATOM      9  C   UNL     1       2.820   5.667  17.844  0.00  0.00    +0.000 C 
BRANCH   9  10
ATOM     10  C   UNL     1       4.264   5.225  18.011  0.00  0.00    +0.000 C 
ATOM     11  O   UNL     1       5.083   5.844  18.682  0.00  0.00    +0.000 OA
BRANCH  10  12
ATOM     12  O   UNL     1       4.573   4.201  17.169  0.00  0.00    +0.000 OA
BRANCH  12  14
ATOM     13  C   UNL     1       5.596   5.192  15.259  0.00  0.00    +0.000 C 
ATOM     14  C   UNL     1       5.825   4.328  16.487  0.00  0.00    +0.000 C 
ENDBRANCH  12  14
ENDBRANCH  10  12
ENDBRANCH   9  10
BRANCH   9  15
ATOM     15  C   UNL     1       1.846   4.499  17.829  0.00  0.00    +0.000 C 
ATOM     16  N   UNL     1       1.039   3.531  17.816  0.00  0.00    +0.000 NA
ENDBRANCH   9  15
ENDBRANCH   1   9
BRANCH   6  17
ATOM     17  C   UNL     1       1.081  10.284  18.488  0.00  0.00    +0.000 C 
BRANCH  17  18
ATOM     18  C   UNL     1      -0.427  10.480  18.410  0.00  0.00    +0.000 A 
ATOM     19  C   UNL     1      -1.126   9.762  17.418  0.00  0.00    +0.000 A 
ATOM     20  C   UNL     1      -2.495   9.937  17.236  0.00  0.00    +0.000 A 
ATOM     21  C   UNL     1      -3.193  10.839  18.030  0.00  0.00    +0.000 A 
ATOM     22  C   UNL     1      -2.538  11.564  19.034  0.00  0.00    +0.000 A 
ATOM     23  C   UNL     1      -3.266  12.479  19.816  0.00  0.00    +0.000 A 
ATOM     24  C   UNL     1      -2.649  13.204  20.831  0.00  0.00    +0.000 A 
ATOM     25  C   UNL     1      -1.299  13.013  21.087  0.00  0.00    +0.000 A 
ATOM     26  C   UNL     1      -0.558  12.116  20.310  0.00  0.00    +0.000 A 
ATOM     27  C   UNL     1      -1.145  11.378  19.255  0.00  0.00    +0.000 A 
ENDBRANCH  17  18
ENDBRANCH   6  17
TORSDOF 7
ENDMDL
MODEL 4
REMARK VINA RESULT:      -7.5      0.968      1.093
REMARK  Name = 
REMARK  8 active torsions:
REMARK  status: ('A' for Active; 'I' for Inactive)
REMARK    1  A    between atoms: C_1  and  C_2
REMARK    2  A    between atoms: C_2  and  O_3
REMARK    3  A    between atoms: O_3  and  C_4
REMARK    4  A    between atoms: C_4  and  C_6
REMARK    5  A    between atoms: C_6  and  C_7
REMARK    6  A    between atoms: C_6  and  C_9
REMARK    7  A    between atoms: N_14  and  C_15
REMARK    8  A    between atoms: C_15  and  C_16
REMARK                            x       y       z     vdW  Elec       q    Type
REMARK                         _______ _______ _______ _____ _____    ______ ____
ROOT
ATOM      1  C   UNL     1       2.555   6.555  18.801  0.00  0.00    +0.000 A 
ATOM      2  C   UNL     1       2.095   6.448  20.054  0.00  0.00    +0.000 A 
ATOM      3 CL   UNL     1       2.062   4.995  20.966  0.00  0.00    +0.000 Cl
ATOM      4  C   UNL     1       1.529   7.647  20.692  0.00  0.00    +0.000 A 
ATOM      5  N   UNL     1       1.303   8.769  20.094  0.00  0.00    +0.000 NA
ATOM      6  N   UNL     1       1.717   8.861  18.779  0.00  0.00    +0.000 N 
ATOM      7  C   UNL     1       2.536   7.910  18.178  0.00  0.00    +0.000 A 
ATOM      8  O   UNL     1       3.211   8.107  17.170  0.00  0.00    +0.000 OA
ENDROOT
BRANCH   1   9
ATOM      9  C   UNL     1       2.986   5.401  17.928  0.00  0.00    +0.000 C 
BRANCH   9  10
ATOM     10  C   UNL     1       4.385   4.906  18.255  0.00  0.00    +0.000 C 
ATOM     11  O   UNL     1       4.632   4.158  19.194  0.00  0.00    +0.000 OA
BRANCH  10  12
ATOM     12  O   UNL     1       5.328   5.556  17.519  0.00  0.00    +0.000 OA
BRANCH  12  14
ATOM     13  C   UNL     1       5.870   4.108  15.707  0.00  0.00    +0.000 C 
ATOM     14  C   UNL     1       5.202   5.413  16.100  0.00  0.00    +0.000 C 
ENDBRANCH  12  14
ENDBRANCH  10  12
ENDBRANCH   9  10
BRANCH   9  15
ATOM     15  C   UNL     1       1.958   4.282  17.903  0.00  0.00    +0.000 C 
ATOM     16  N   UNL     1       1.106   3.352  17.883  0.00  0.00    +0.000 NA
ENDBRANCH   9  15
ENDBRANCH   1   9
BRANCH   6  17
ATOM     17  C   UNL     1       1.438  10.126  18.096  0.00  0.00    +0.000 C 
BRANCH  17  18
ATOM     18  C   UNL     1       0.295  10.918  18.718  0.00  0.00    +0.000 A 
ATOM     19  C   UNL     1       0.610  11.792  19.778  0.00  0.00    +0.000 A 
ATOM     20  C   UNL     1      -0.387  12.500  20.445  0.00  0.00    +0.000 A 
ATOM     21  C   UNL     1      -1.717  12.342  20.075  0.00  0.00    +0.000 A 
ATOM     22  C   UNL     1      -2.071  11.493  19.020  0.00  0.00    +0.000 A 
ATOM     23  C   UNL     1      -3.426  11.343  18.674  0.00  0.00    +0.000 A 
ATOM     24  C   UNL     1      -3.811  10.518  17.621  0.00  0.00    +0.000 A 
ATOM     25  C   UNL     1      -2.843   9.843  16.891  0.00  0.00    +0.000 A 
ATOM     26  C   UNL     1      -1.492   9.972  17.230  0.00  0.00    +0.000 A 
ATOM     27  C   UNL     1      -1.065  10.782  18.307  0.00  0.00    +0.000 A 
ENDBRANCH  17  18
ENDBRANCH   6  17
TORSDOF 7
ENDMDL
MODEL 5
REMARK VINA RESULT:      -7.4      1.004      1.581
REMARK  Name = 
REMARK  8 active torsions:
REMARK  status: ('A' for Active; 'I' for Inactive)
REMARK    1  A    between atoms: C_1  and  C_2
REMARK    2  A    between atoms: C_2  and  O_3
REMARK    3  A    between atoms: O_3  and  C_4
REMARK    4  A    between atoms: C_4  and  C_6
REMARK    5  A    between atoms: C_6  and  C_7
REMARK    6  A    between atoms: C_6  and  C_9
REMARK    7  A    between atoms: N_14  and  C_15
REMARK    8  A    between atoms: C_15  and  C_16
REMARK                            x       y       z     vdW  Elec       q    Type
REMARK                         _______ _______ _______ _____ _____    ______ ____
ROOT
ATOM      1  C   UNL     1       2.547   6.702  18.926  0.00  0.00    +0.000 A 
ATOM      2  C   UNL     1       2.041   6.600  20.161  0.00  0.00    +0.000 A 
ATOM      3 CL   UNL     1       2.022   5.163  21.099  0.00  0.00    +0.000 Cl
ATOM      4  C   UNL     1       1.408   7.789  20.753  0.00  0.00    +0.000 A 
ATOM      5  N   UNL     1       1.167   8.891  20.125  0.00  0.00    +0.000 NA
ATOM      6  N   UNL     1       1.631   8.975  18.827  0.00  0.00    +0.000 N 
ATOM      7  C   UNL     1       2.506   8.043  18.277  0.00  0.00    +0.000 A 
ATOM      8  O   UNL     1       3.214   8.246  17.293  0.00  0.00    +0.000 OA
ENDROOT
BRANCH   1   9
ATOM      9  C   UNL     1       3.054   5.548  18.093  0.00  0.00    +0.000 C 
BRANCH   9  10
ATOM     10  C   UNL     1       4.284   4.887  18.690  0.00  0.00    +0.000 C 
ATOM     11  O   UNL     1       5.144   5.502  19.311  0.00  0.00    +0.000 OA
BRANCH  10  12
ATOM     12  O   UNL     1       4.409   3.597  18.272  0.00  0.00    +0.000 OA
BRANCH  12  14
ATOM     13  C   UNL     1       3.613   1.387  18.669  0.00  0.00    +0.000 C 
ATOM     14  C   UNL     1       4.266   2.607  19.295  0.00  0.00    +0.000 C 
ENDBRANCH  12  14
ENDBRANCH  10  12
ENDBRANCH   9  10
BRANCH   9  15
ATOM     15  C   UNL     1       1.955   4.552  17.759  0.00  0.00    +0.000 C 
ATOM     16  N   UNL     1       1.043   3.726  17.484  0.00  0.00    +0.000 NA
ENDBRANCH   9  15
ENDBRANCH   1   9
BRANCH   6  17
ATOM     17  C   UNL     1       1.336  10.217  18.109  0.00  0.00    +0.000 C 
BRANCH  17  18
ATOM     18  C   UNL     1       0.176  11.006  18.703  0.00  0.00    +0.000 A 
ATOM     19  C   UNL     1       0.469  11.906  19.748  0.00  0.00    +0.000 A 
ATOM     20  C   UNL     1      -0.543  12.613  20.391  0.00  0.00    +0.000 A 
ATOM     21  C   UNL     1      -1.868  12.431  20.012  0.00  0.00    +0.000 A 
ATOM     22  C   UNL     1      -2.200  11.556  18.970  0.00  0.00    +0.000 A 
ATOM     23  C   UNL     1      -3.549  11.382  18.615  0.00  0.00    +0.000 A 
ATOM     24  C   UNL     1      -3.913  10.531  17.575  0.00  0.00    +0.000 A 
ATOM     25  C   UNL     1      -2.929   9.854  16.868  0.00  0.00    +0.000 A 
ATOM     26  C   UNL     1      -1.584  10.007  17.217  0.00  0.00    +0.000 A 
ATOM     27  C   UNL     1      -1.178  10.845  18.282  0.00  0.00    +0.000 A 
ENDBRANCH  17  18
ENDBRANCH   6  17
TORSDOF 7
ENDMDL
MODEL 6
REMARK VINA RESULT:      -7.3      0.719      2.230
REMARK  Name = 
REMARK  8 active torsions:
REMARK  status: ('A' for Active; 'I' for Inactive)
REMARK    1  A    between atoms: C_1  and  C_2
REMARK    2  A    between atoms: C_2  and  O_3
REMARK    3  A    between atoms: O_3  and  C_4
REMARK    4  A    between atoms: C_4  and  C_6
REMARK    5  A    between atoms: C_6  and  C_7
REMARK    6  A    between atoms: C_6  and  C_9
REMARK    7  A    between atoms: N_14  and  C_15
REMARK    8  A    between atoms: C_15  and  C_16
REMARK                            x       y       z     vdW  Elec       q    Type
REMARK                         _______ _______ _______ _____ _____    ______ ____
ROOT
ATOM      1  C   UNL     1       2.972   6.084  18.924  0.00  0.00    +0.000 A 
ATOM      2  C   UNL     1       2.389   5.971  20.124  0.00  0.00    +0.000 A 
ATOM      3 CL   UNL     1       2.339   4.533  21.059  0.00  0.00    +0.000 Cl
ATOM      4  C   UNL     1       1.695   7.146  20.674  0.00  0.00    +0.000 A 
ATOM      5  N   UNL     1       1.473   8.244  20.032  0.00  0.00    +0.000 NA
ATOM      6  N   UNL     1       2.017   8.339  18.765  0.00  0.00    +0.000 N 
ATOM      7  C   UNL     1       2.945   7.425  18.273  0.00  0.00    +0.000 A 
ATOM      8  O   UNL     1       3.711   7.644  17.337  0.00  0.00    +0.000 OA
ENDROOT
BRANCH   1   9
ATOM      9  C   UNL     1       3.554   4.942  18.125  0.00  0.00    +0.000 C 
BRANCH   9  10
ATOM     10  C   UNL     1       4.883   4.457  18.676  0.00  0.00    +0.000 C 
ATOM     11  O   UNL     1       5.006   3.426  19.329  0.00  0.00    +0.000 OA
BRANCH  10  12
ATOM     12  O   UNL     1       5.855   5.400  18.535  0.00  0.00    +0.000 OA
BRANCH  12  14
ATOM     13  C   UNL     1       7.003   4.578  16.616  0.00  0.00    +0.000 C 
ATOM     14  C   UNL     1       7.125   4.908  18.093  0.00  0.00    +0.000 C 
ENDBRANCH  12  14
ENDBRANCH  10  12
ENDBRANCH   9  10
BRANCH   9  15
ATOM     15  C   UNL     1       2.555   3.814  17.922  0.00  0.00    +0.000 C 
ATOM     16  N   UNL     1       1.726   2.879  17.753  0.00  0.00    +0.000 NA
ENDBRANCH   9  15
ENDBRANCH   1   9
BRANCH   6  17
ATOM     17  C   UNL     1       1.744   9.576  18.030  0.00  0.00    +0.000 C 
BRANCH  17  18
ATOM     18  C   UNL     1       0.370  10.166  18.317  0.00  0.00    +0.000 A 
ATOM     19  C   UNL     1      -0.728   9.629  17.616  0.00  0.00    +0.000 A 
ATOM     20  C   UNL     1      -2.007  10.159  17.770  0.00  0.00    +0.000 A 
ATOM     21  C   UNL     1      -2.214  11.241  18.617  0.00  0.00    +0.000 A 
ATOM     22  C   UNL     1      -1.152  11.796  19.341  0.00  0.00    +0.000 A 
ATOM     23  C   UNL     1      -1.387  12.898  20.183  0.00  0.00    +0.000 A 
ATOM     24  C   UNL     1      -0.356  13.465  20.927  0.00  0.00    +0.000 A 
ATOM     25  C   UNL     1       0.921  12.928  20.850  0.00  0.00    +0.000 A 
ATOM     26  C   UNL     1       1.173  11.839  20.008  0.00  0.00    +0.000 A 
ATOM     27  C   UNL     1       0.157  11.252  19.219  0.00  0.00    +0.000 A 
ENDBRANCH  17  18
ENDBRANCH   6  17
TORSDOF 7
ENDMDL
MODEL 7
REMARK VINA RESULT:      -7.2      2.896      4.873
REMARK  Name = 
REMARK  8 active torsions:
REMARK  status: ('A' for Active; 'I' for Inactive)
REMARK    1  A    between atoms: C_1  and  C_2
REMARK    2  A    between atoms: C_2  and  O_3
REMARK    3  A    between atoms: O_3  and  C_4
REMARK    4  A    between atoms: C_4  and  C_6
REMARK    5  A    between atoms: C_6  and  C_7
REMARK    6  A    between atoms: C_6  and  C_9
REMARK    7  A    between atoms: N_14  and  C_15
REMARK    8  A    between atoms: C_15  and  C_16
REMARK                            x       y       z     vdW  Elec       q    Type
REMARK                         _______ _______ _______ _____ _____    ______ ____
ROOT
ATOM      1  C   UNL     1       5.921   5.137  17.841  0.00  0.00    +0.000 A 
ATOM      2  C   UNL     1       5.511   4.417  16.790  0.00  0.00    +0.000 A 
ATOM      3 CL   UNL     1       6.516   3.908  15.496  0.00  0.00    +0.000 Cl
ATOM      4  C   UNL     1       4.084   4.068  16.700  0.00  0.00    +0.000 A 
ATOM      5  N   UNL     1       3.159   4.522  17.479  0.00  0.00    +0.000 NA
ATOM      6  N   UNL     1       3.573   5.321  18.527  0.00  0.00    +0.000 N 
ATOM      7  C   UNL     1       4.910   5.458  18.888  0.00  0.00    +0.000 A 
ATOM      8  O   UNL     1       5.300   5.845  19.988  0.00  0.00    +0.000 OA
ENDROOT
BRANCH   1   9
ATOM      9  C   UNL     1       7.294   5.747  17.998  0.00  0.00    +0.000 C 
BRANCH   9  10
ATOM     10  C   UNL     1       7.331   7.218  17.623  0.00  0.00    +0.000 C 
ATOM     11  O   UNL     1       6.718   7.684  16.668  0.00  0.00    +0.000 OA
BRANCH  10  12
ATOM     12  O   UNL     1       8.274   7.892  18.336  0.00  0.00    +0.000 OA
BRANCH  12  14
ATOM     13  C   UNL     1       9.158   9.937  19.179  0.00  0.00    +0.000 C 
ATOM     14  C   UNL     1       8.371   9.291  18.052  0.00  0.00    +0.000 C 
ENDBRANCH  12  14
ENDBRANCH  10  12
ENDBRANCH   9  10
BRANCH   9  15
ATOM     15  C   UNL     1       7.891   5.475  19.370  0.00  0.00    +0.000 C 
ATOM     16  N   UNL     1       8.385   5.249  20.508  0.00  0.00    +0.000 NA
ENDBRANCH   9  15
ENDBRANCH   1   9
BRANCH   6  17
ATOM     17  C   UNL     1       2.520   5.854  19.394  0.00  0.00    +0.000 C 
BRANCH  17  18
ATOM     18  C   UNL     1       2.119   7.285  19.061  0.00  0.00    +0.000 A 
ATOM     19  C   UNL     1       2.421   7.761  17.769  0.00  0.00    +0.000 A 
ATOM     20  C   UNL     1       2.150   9.078  17.408  0.00  0.00    +0.000 A 
ATOM     21  C   UNL     1       1.583   9.949  18.331  0.00  0.00    +0.000 A 
ATOM     22  C   UNL     1       1.257   9.513  19.621  0.00  0.00    +0.000 A 
ATOM     23  C   UNL     1       0.695  10.418  20.538  0.00  0.00    +0.000 A 
ATOM     24  C   UNL     1       0.346  10.013  21.824  0.00  0.00    +0.000 A 
ATOM     25  C   UNL     1       0.542   8.693  22.203  0.00  0.00    +0.000 A 
ATOM     26  C   UNL     1       1.111   7.783  21.306  0.00  0.00    +0.000 A 
ATOM     27  C   UNL     1       1.500   8.163  20.000  0.00  0.00    +0.000 A 
ENDBRANCH  17  18
ENDBRANCH   6  17
TORSDOF 7
ENDMDL
MODEL 8
REMARK VINA RESULT:      -7.1      2.596      7.716
REMARK  Name = 
REMARK  8 active torsions:
REMARK  status: ('A' for Active; 'I' for Inactive)
REMARK    1  A    between atoms: C_1  and  C_2
REMARK    2  A    between atoms: C_2  and  O_3
REMARK    3  A    between atoms: O_3  and  C_4
REMARK    4  A    between atoms: C_4  and  C_6
REMARK    5  A    between atoms: C_6  and  C_7
REMARK    6  A    between atoms: C_6  and  C_9
REMARK    7  A    between atoms: N_14  and  C_15
REMARK    8  A    between atoms: C_15  and  C_16
REMARK                            x       y       z     vdW  Elec       q    Type
REMARK                         _______ _______ _______ _____ _____    ______ ____
ROOT
ATOM      1  C   UNL     1       0.873   9.808  19.708  0.00  0.00    +0.000 A 
ATOM      2  C   UNL     1       0.801   9.143  20.868  0.00  0.00    +0.000 A 
ATOM      3 CL   UNL     1       0.085   9.751  22.304  0.00  0.00    +0.000 Cl
ATOM      4  C   UNL     1       1.418   7.810  20.945  0.00  0.00    +0.000 A 
ATOM      5  N   UNL     1       2.156   7.280  20.028  0.00  0.00    +0.000 NA
ATOM      6  N   UNL     1       2.288   7.995  18.853  0.00  0.00    +0.000 N 
ATOM      7  C   UNL     1       1.504   9.105  18.554  0.00  0.00    +0.000 A 
ATOM      8  O   UNL     1       1.324   9.548  17.421  0.00  0.00    +0.000 OA
ENDROOT
BRANCH   1   9
ATOM      9  C   UNL     1       0.473  11.250  19.502  0.00  0.00    +0.000 C 
BRANCH   9  10
ATOM     10  C   UNL     1      -1.029  11.461  19.588  0.00  0.00    +0.000 C 
ATOM     11  O   UNL     1      -1.558  12.204  20.409  0.00  0.00    +0.000 OA
BRANCH  10  12
ATOM     12  O   UNL     1      -1.703  10.579  18.800  0.00  0.00    +0.000 OA
BRANCH  12  14
ATOM     13  C   UNL     1      -3.549  11.340  17.502  0.00  0.00    +0.000 C 
ATOM     14  C   UNL     1      -2.056  11.066  17.502  0.00  0.00    +0.000 C 
ENDBRANCH  12  14
ENDBRANCH  10  12
ENDBRANCH   9  10
BRANCH   9  15
ATOM     15  C   UNL     1       1.253  12.198  20.398  0.00  0.00    +0.000 C 
ATOM     16  N   UNL     1       1.900  12.983  21.142  0.00  0.00    +0.000 NA
ENDBRANCH   9  15
ENDBRANCH   1   9
BRANCH   6  17
ATOM     17  C   UNL     1       3.145   7.403  17.823  0.00  0.00    +0.000 C 
BRANCH  17  18
ATOM     18  C   UNL     1       3.833   6.118  18.265  0.00  0.00    +0.000 A 
ATOM     19  C   UNL     1       5.183   6.206  18.661  0.00  0.00    +0.000 A 
ATOM     20  C   UNL     1       5.903   5.067  19.013  0.00  0.00    +0.000 A 
ATOM     21  C   UNL     1       5.296   3.818  18.967  0.00  0.00    +0.000 A 
ATOM     22  C   UNL     1       3.953   3.689  18.591  0.00  0.00    +0.000 A 
ATOM     23  C   UNL     1       3.366   2.412  18.542  0.00  0.00    +0.000 A 
ATOM     24  C   UNL     1       2.030   2.249  18.185  0.00  0.00    +0.000 A 
ATOM     25  C   UNL     1       1.260   3.365  17.887  0.00  0.00    +0.000 A 
ATOM     26  C   UNL     1       1.832   4.640  17.920  0.00  0.00    +0.000 A 
ATOM     27  C   UNL     1       3.192   4.843  18.254  0.00  0.00    +0.000 A 
ENDBRANCH  17  18
ENDBRANCH   6  17
TORSDOF 7
ENDMDL
MODEL 9
REMARK VINA RESULT:      -7.1      2.250      3.076
REMARK  Name = 
REMARK  8 active torsions:
REMARK  status: ('A' for Active; 'I' for Inactive)
REMARK    1  A    between atoms: C_1  and  C_2
REMARK    2  A    between atoms: C_2  and  O_3
REMARK    3  A    between atoms: O_3  and  C_4
REMARK    4  A    between atoms: C_4  and  C_6
REMARK    5  A    between atoms: C_6  and  C_7
REMARK    6  A    between atoms: C_6  and  C_9
REMARK    7  A    between atoms: N_14  and  C_15
REMARK    8  A    between atoms: C_15  and  C_16
REMARK                            x       y       z     vdW  Elec       q    Type
REMARK                         _______ _______ _______ _____ _____    ______ ____
ROOT
ATOM      1  C   UNL     1       3.258   6.221  18.964  0.00  0.00    +0.000 A 
ATOM      2  C   UNL     1       3.582   6.887  17.849  0.00  0.00    +0.000 A 
ATOM      3 CL   UNL     1       4.771   6.388  16.718  0.00  0.00    +0.000 Cl
ATOM      4  C   UNL     1       2.910   8.169  17.586  0.00  0.00    +0.000 A 
ATOM      5  N   UNL     1       2.133   8.784  18.414  0.00  0.00    +0.000 NA
ATOM      6  N   UNL     1       1.850   8.127  19.597  0.00  0.00    +0.000 N 
ATOM      7  C   UNL     1       2.174   6.791  19.813  0.00  0.00    +0.000 A 
ATOM      8  O   UNL     1       1.648   6.074  20.662  0.00  0.00    +0.000 OA
ENDROOT
BRANCH   1   9
ATOM      9  C   UNL     1       3.977   5.001  19.492  0.00  0.00    +0.000 C 
BRANCH   9  10
ATOM     10  C   UNL     1       3.552   3.721  18.794  0.00  0.00    +0.000 C 
ATOM     11  O   UNL     1       3.967   3.386  17.689  0.00  0.00    +0.000 OA
BRANCH  10  12
ATOM     12  O   UNL     1       2.518   3.118  19.443  0.00  0.00    +0.000 OA
BRANCH  12  14
ATOM     13  C   UNL     1       1.490   2.724  21.556  0.00  0.00    +0.000 C 
ATOM     14  C   UNL     1       2.798   2.702  20.784  0.00  0.00    +0.000 C 
ENDBRANCH  12  14
ENDBRANCH  10  12
ENDBRANCH   9  10
BRANCH   9  15
ATOM     15  C   UNL     1       5.486   5.186  19.513  0.00  0.00    +0.000 C 
ATOM     16  N   UNL     1       6.737   5.340  19.532  0.00  0.00    +0.000 NA
ENDBRANCH   9  15
ENDBRANCH   1   9
BRANCH   6  17
ATOM     17  C   UNL     1       0.988   8.837  20.545  0.00  0.00    +0.000 C 
BRANCH  17  18
ATOM     18  C   UNL     1       0.668  10.266  20.129  0.00  0.00    +0.000 A 
ATOM     19  C   UNL     1       1.400  11.302  20.745  0.00  0.00    +0.000 A 
ATOM     20  C   UNL     1       1.121  12.639  20.471  0.00  0.00    +0.000 A 
ATOM     21  C   UNL     1       0.102  12.969  19.585  0.00  0.00    +0.000 A 
ATOM     22  C   UNL     1      -0.641  11.970  18.944  0.00  0.00    +0.000 A 
ATOM     23  C   UNL     1      -1.674  12.332  18.061  0.00  0.00    +0.000 A 
ATOM     24  C   UNL     1      -2.422  11.365  17.396  0.00  0.00    +0.000 A 
ATOM     25  C   UNL     1      -2.135  10.021  17.594  0.00  0.00    +0.000 A 
ATOM     26  C   UNL     1      -1.118   9.645  18.477  0.00  0.00    +0.000 A 
ATOM     27  C   UNL     1      -0.353  10.599  19.189  0.00  0.00    +0.000 A 
ENDBRANCH  17  18
ENDBRANCH   6  17
TORSDOF 7
ENDMDL
