MODEL 1
REMARK VINA RESULT:      -7.0      0.000      0.000
REMARK  Name = 
REMARK  11 active torsions:
REMARK  status: ('A' for Active; 'I' for Inactive)
REMARK    1  A    between atoms: C_1  and  C_2
REMARK    2  A    between atoms: C_4  and  O_5
REMARK    3  A    between atoms: O_5  and  C_6
REMARK    4  A    between atoms: C_10  and  O_11
REMARK    5  A    between atoms: C_13  and  O_14
REMARK    6  A    between atoms: C_18  and  C_19
REMARK    7  A    between atoms: C_22  and  O_23
REMARK    8  A    between atoms: C_24  and  O_25
REMARK    9  A    between atoms: C_27  and  O_28
REMARK   10  A    between atoms: C_29  and  O_30
REMARK   11  A    between atoms: C_31  and  O_32
REMARK                            x       y       z     vdW  Elec       q    Type
REMARK                         _______ _______ _______ _____ _____    ______ ____
ROOT
ATOM      1  C   UNL     1       2.420   7.481  18.875  0.00  0.00    +0.000 C 
ATOM      2  C   UNL     1       2.179   8.928  18.449  0.00  0.00    +0.000 C 
ATOM      3  O   UNL     1       2.686   9.448  17.450  0.00  0.00    +0.000 OA
ATOM      4  C   UNL     1       1.296   9.742  19.298  0.00  0.00    +0.000 A 
ATOM      5  C   UNL     1       1.083  11.100  19.031  0.00  0.00    +0.000 A 
ATOM      6  C   UNL     1       0.210  11.848  19.811  0.00  0.00    +0.000 A 
ATOM      7  C   UNL     1      -0.461  11.220  20.858  0.00  0.00    +0.000 A 
ATOM      8  C   UNL     1      -0.240   9.878  21.153  0.00  0.00    +0.000 A 
ATOM      9  C   UNL     1       0.655   9.135  20.378  0.00  0.00    +0.000 A 
ATOM     10  O   UNL     1       0.897   7.848  20.785  0.00  0.00    +0.000 OA
ATOM     11  C   UNL     1       1.215   6.964  19.692  0.00  0.00    +0.000 C 
ENDROOT
BRANCH  11  12
ATOM     12  C   UNL     1       1.469   5.573  20.278  0.00  0.00    +0.000 A 
ATOM     13  C   UNL     1       2.369   5.381  21.343  0.00  0.00    +0.000 A 
ATOM     14  C   UNL     1       2.583   4.108  21.891  0.00  0.00    +0.000 A 
ATOM     15  C   UNL     1       1.897   3.018  21.372  0.00  0.00    +0.000 A 
ATOM     16  C   UNL     1       1.015   3.189  20.312  0.00  0.00    +0.000 A 
ATOM     17  C   UNL     1       0.802   4.447  19.761  0.00  0.00    +0.000 A 
BRANCH  15  18
ATOM     18  O   UNL     1       2.048   1.756  21.876  0.00  0.00    +0.000 OA
ATOM     19  H   UNL     1       1.597   1.717  22.736  0.00  0.00    +0.000 HD
ENDBRANCH  15  18
BRANCH  16  20
ATOM     20  O   UNL     1       0.333   2.116  19.810  0.00  0.00    +0.000 OA
ATOM     21  H   UNL     1       0.416   2.205  18.840  0.00  0.00    +0.000 HD
ENDBRANCH  16  20
ENDBRANCH  11  12
BRANCH   5  22
ATOM     22  O   UNL     1       1.715  11.774  18.013  0.00  0.00    +0.000 OA
ATOM     23  H   UNL     1       2.667  11.529  18.024  0.00  0.00    +0.000 HD
ENDBRANCH   5  22
BRANCH   7  24
ATOM     24  O   UNL     1      -1.342  11.910  21.639  0.00  0.00    +0.000 OA
ATOM     25  H   UNL     1      -0.847  12.398  22.319  0.00  0.00    +0.000 HD
ENDBRANCH   7  24
BRANCH   1  26
ATOM     26  O   UNL     1       2.808   6.620  17.803  0.00  0.00    +0.000 OA
BRANCH  26  30
ATOM     27  C   UNL     1       7.458   7.325  17.450  0.00  0.00    +0.000 C 
ATOM     28  C   UNL     1       6.431   6.250  17.794  0.00  0.00    +0.000 C 
ATOM     29  O   UNL     1       5.133   6.811  17.615  0.00  0.00    +0.000 OA
ATOM     30  C   UNL     1       4.058   5.949  17.970  0.00  0.00    +0.000 C 
ATOM     31  C   UNL     1       4.082   4.694  17.075  0.00  0.00    +0.000 C 
ATOM     32  C   UNL     1       5.452   4.006  17.199  0.00  0.00    +0.000 C 
ATOM     33  C   UNL     1       6.589   5.000  16.917  0.00  0.00    +0.000 C 
BRANCH  31  34
ATOM     34  O   UNL     1       3.038   3.770  17.400  0.00  0.00    +0.000 OA
ATOM     35  H   UNL     1       3.089   3.030  16.770  0.00  0.00    +0.000 HD
ENDBRANCH  31  34
BRANCH  32  36
ATOM     36  O   UNL     1       5.627   3.422  18.514  0.00  0.00    +0.000 OA
ATOM     37  H   UNL     1       4.986   3.781  19.144  0.00  0.00    +0.000 HD
ENDBRANCH  32  36
BRANCH  33  38
ATOM     38  O   UNL     1       7.855   4.386  17.163  0.00  0.00    +0.000 OA
ATOM     39  H   UNL     1       7.686   3.618  17.747  0.00  0.00    +0.000 HD
ENDBRANCH  33  38
ENDBRANCH  26  30
ENDBRANCH   1  26
TORSDOF 10
ENDMDL
MODEL 2
REMARK VINA RESULT:      -7.0      1.906      2.823
REMARK  Name = 
REMARK  11 active torsions:
REMARK  status: ('A' for Active; 'I' for Inactive)
REMARK    1  A    between atoms: C_1  and  C_2
REMARK    2  A    between atoms: C_4  and  O_5
REMARK    3  A    between atoms: O_5  and  C_6
REMARK    4  A    between atoms: C_10  and  O_11
REMARK    5  A    between atoms: C_13  and  O_14
REMARK    6  A    between atoms: C_18  and  C_19
REMARK    7  A    between atoms: C_22  and  O_23
REMARK    8  A    between atoms: C_24  and  O_25
REMARK    9  A    between atoms: C_27  and  O_28
REMARK   10  A    between atoms: C_29  and  O_30
REMARK   11  A    between atoms: C_31  and  O_32
REMARK                            x       y       z     vdW  Elec       q    Type
REMARK                         _______ _______ _______ _____ _____    ______ ____
ROOT
ATOM      1  C   UNL     1       2.959   7.040  18.183  0.00  0.00    +0.000 C 
ATOM      2  C   UNL     1       2.467   8.460  18.456  0.00  0.00    +0.000 C 
ATOM      3  O   UNL     1       2.728   9.432  17.739  0.00  0.00    +0.000 OA
ATOM      4  C   UNL     1       1.644   8.669  19.657  0.00  0.00    +0.000 A 
ATOM      5  C   UNL     1       1.218   9.950  20.031  0.00  0.00    +0.000 A 
ATOM      6  C   UNL     1       0.401  10.130  21.140  0.00  0.00    +0.000 A 
ATOM      7  C   UNL     1       0.003   9.012  21.869  0.00  0.00    +0.000 A 
ATOM      8  C   UNL     1       0.439   7.736  21.526  0.00  0.00    +0.000 A 
ATOM      9  C   UNL     1       1.277   7.562  20.422  0.00  0.00    +0.000 A 
ATOM     10  O   UNL     1       1.746   6.293  20.202  0.00  0.00    +0.000 OA
ATOM     11  C   UNL     1       1.985   6.016  18.808  0.00  0.00    +0.000 C 
ENDROOT
BRANCH  11  12
ATOM     12  C   UNL     1       2.509   4.582  18.701  0.00  0.00    +0.000 A 
ATOM     13  C   UNL     1       1.908   3.645  17.840  0.00  0.00    +0.000 A 
ATOM     14  C   UNL     1       2.403   2.339  17.729  0.00  0.00    +0.000 A 
ATOM     15  C   UNL     1       3.507   1.961  18.484  0.00  0.00    +0.000 A 
ATOM     16  C   UNL     1       4.103   2.871  19.349  0.00  0.00    +0.000 A 
ATOM     17  C   UNL     1       3.614   4.166  19.467  0.00  0.00    +0.000 A 
BRANCH  15  18
ATOM     18  O   UNL     1       4.048   0.709  18.404  0.00  0.00    +0.000 OA
ATOM     19  H   UNL     1       3.417   0.134  17.939  0.00  0.00    +0.000 HD
ENDBRANCH  15  18
BRANCH  16  20
ATOM     20  O   UNL     1       5.195   2.500  20.082  0.00  0.00    +0.000 OA
ATOM     21  H   UNL     1       5.956   2.871  19.594  0.00  0.00    +0.000 HD
ENDBRANCH  16  20
ENDBRANCH  11  12
BRANCH   5  22
ATOM     22  O   UNL     1       1.578  11.090  19.352  0.00  0.00    +0.000 OA
ATOM     23  H   UNL     1       2.054  11.683  19.974  0.00  0.00    +0.000 HD
ENDBRANCH   5  22
BRANCH   7  24
ATOM     24  O   UNL     1      -0.815   9.139  22.955  0.00  0.00    +0.000 OA
ATOM     25  H   UNL     1      -1.740   9.149  22.655  0.00  0.00    +0.000 HD
ENDBRANCH   7  24
BRANCH   1  26
ATOM     26  O   UNL     1       3.267   6.789  16.812  0.00  0.00    +0.000 OA
BRANCH  26  30
ATOM     27  C   UNL     1       5.654   2.840  15.834  0.00  0.00    +0.000 C 
ATOM     28  C   UNL     1       5.853   4.336  16.067  0.00  0.00    +0.000 C 
ATOM     29  O   UNL     1       4.583   4.903  16.379  0.00  0.00    +0.000 OA
ATOM     30  C   UNL     1       4.589   6.315  16.551  0.00  0.00    +0.000 C 
ATOM     31  C   UNL     1       5.503   6.689  17.736  0.00  0.00    +0.000 C 
ATOM     32  C   UNL     1       6.912   6.122  17.493  0.00  0.00    +0.000 C 
ATOM     33  C   UNL     1       6.849   4.615  17.201  0.00  0.00    +0.000 C 
BRANCH  31  34
ATOM     34  O   UNL     1       5.574   8.104  17.946  0.00  0.00    +0.000 OA
ATOM     35  H   UNL     1       6.454   8.307  18.309  0.00  0.00    +0.000 HD
ENDBRANCH  31  34
BRANCH  32  36
ATOM     36  O   UNL     1       7.569   6.807  16.398  0.00  0.00    +0.000 OA
ATOM     37  H   UNL     1       7.797   7.716  16.640  0.00  0.00    +0.000 HD
ENDBRANCH  32  36
BRANCH  33  38
ATOM     38  O   UNL     1       8.143   4.127  16.847  0.00  0.00    +0.000 OA
ATOM     39  H   UNL     1       8.780   4.547  17.460  0.00  0.00    +0.000 HD
ENDBRANCH  33  38
ENDBRANCH  26  30
ENDBRANCH   1  26
TORSDOF 10
ENDMDL
MODEL 3
REMARK VINA RESULT:      -6.7      1.169      1.480
REMARK  Name = 
REMARK  11 active torsions:
REMARK  status: ('A' for Active; 'I' for Inactive)
REMARK    1  A    between atoms: C_1  and  C_2
REMARK    2  A    between atoms: C_4  and  O_5
REMARK    3  A    between atoms: O_5  and  C_6
REMARK    4  A    between atoms: C_10  and  O_11
REMARK    5  A    between atoms: C_13  and  O_14
REMARK    6  A    between atoms: C_18  and  C_19
REMARK    7  A    between atoms: C_22  and  O_23
REMARK    8  A    between atoms: C_24  and  O_25
REMARK    9  A    between atoms: C_27  and  O_28
REMARK   10  A    between atoms: C_29  and  O_30
REMARK   11  A    between atoms: C_31  and  O_32
REMARK                            x       y       z     vdW  Elec       q    Type
REMARK                         _______ _______ _______ _____ _____    ______ ____
ROOT
ATOM      1  C   UNL     1       2.592   7.132  18.815  0.00  0.00    +0.000 C 
ATOM      2  C   UNL     1       2.059   8.531  18.513  0.00  0.00    +0.000 C 
ATOM      3  O   UNL     1       2.227   9.117  17.438  0.00  0.00    +0.000 OA
ATOM      4  C   UNL     1       1.312   9.213  19.580  0.00  0.00    +0.000 A 
ATOM      5  C   UNL     1       0.857  10.528  19.422  0.00  0.00    +0.000 A 
ATOM      6  C   UNL     1       0.111  11.146  20.417  0.00  0.00    +0.000 A 
ATOM      7  C   UNL     1      -0.188  10.430  21.574  0.00  0.00    +0.000 A 
ATOM      8  C   UNL     1       0.279   9.132  21.758  0.00  0.00    +0.000 A 
ATOM      9  C   UNL     1       1.047   8.522  20.763  0.00  0.00    +0.000 A 
ATOM     10  O   UNL     1       1.554   7.282  21.052  0.00  0.00    +0.000 OA
ATOM     11  C   UNL     1       1.709   6.451  19.885  0.00  0.00    +0.000 C 
ENDROOT
BRANCH  11  12
ATOM     12  C   UNL     1       2.287   5.109  20.341  0.00  0.00    +0.000 A 
ATOM     13  C   UNL     1       1.565   4.254  21.195  0.00  0.00    +0.000 A 
ATOM     14  C   UNL     1       2.088   3.017  21.594  0.00  0.00    +0.000 A 
ATOM     15  C   UNL     1       3.343   2.628  21.141  0.00  0.00    +0.000 A 
ATOM     16  C   UNL     1       4.074   3.468  20.309  0.00  0.00    +0.000 A 
ATOM     17  C   UNL     1       3.562   4.698  19.913  0.00  0.00    +0.000 A 
BRANCH  15  18
ATOM     18  O   UNL     1       3.898   1.426  21.478  0.00  0.00    +0.000 OA
ATOM     19  H   UNL     1       4.589   1.587  22.144  0.00  0.00    +0.000 HD
ENDBRANCH  15  18
BRANCH  16  20
ATOM     20  O   UNL     1       5.303   3.078  19.855  0.00  0.00    +0.000 OA
ATOM     21  H   UNL     1       5.134   2.732  18.957  0.00  0.00    +0.000 HD
ENDBRANCH  16  20
ENDBRANCH  11  12
BRANCH   5  22
ATOM     22  O   UNL     1       1.119  11.284  18.304  0.00  0.00    +0.000 OA
ATOM     23  H   UNL     1       1.092  10.694  17.518  0.00  0.00    +0.000 HD
ENDBRANCH   5  22
BRANCH   7  24
ATOM     24  O   UNL     1      -0.933  10.989  22.571  0.00  0.00    +0.000 OA
ATOM     25  H   UNL     1      -1.679  10.399  22.778  0.00  0.00    +0.000 HD
ENDBRANCH   7  24
BRANCH   1  26
ATOM     26  O   UNL     1       2.816   6.335  17.652  0.00  0.00    +0.000 OA
BRANCH  26  30
ATOM     27  C   UNL     1       7.341   7.561  17.134  0.00  0.00    +0.000 C 
ATOM     28  C   UNL     1       6.436   6.338  17.255  0.00  0.00    +0.000 C 
ATOM     29  O   UNL     1       5.089   6.796  17.339  0.00  0.00    +0.000 OA
ATOM     30  C   UNL     1       4.123   5.770  17.531  0.00  0.00    +0.000 C 
ATOM     31  C   UNL     1       4.146   4.803  16.330  0.00  0.00    +0.000 C 
ATOM     32  C   UNL     1       5.569   4.245  16.153  0.00  0.00    +0.000 C 
ATOM     33  C   UNL     1       6.595   5.385  16.062  0.00  0.00    +0.000 C 
BRANCH  31  34
ATOM     34  O   UNL     1       3.212   3.728  16.474  0.00  0.00    +0.000 OA
ATOM     35  H   UNL     1       3.390   3.082  15.768  0.00  0.00    +0.000 HD
ENDBRANCH  31  34
BRANCH  32  36
ATOM     36  O   UNL     1       5.920   3.355  17.242  0.00  0.00    +0.000 OA
ATOM     37  H   UNL     1       6.777   2.931  17.086  0.00  0.00    +0.000 HD
ENDBRANCH  32  36
BRANCH  33  38
ATOM     38  O   UNL     1       7.920   4.855  16.031  0.00  0.00    +0.000 OA
ATOM     39  H   UNL     1       7.834   3.880  16.061  0.00  0.00    +0.000 HD
ENDBRANCH  33  38
ENDBRANCH  26  30
ENDBRANCH   1  26
TORSDOF 10
ENDMDL
MODEL 4
REMARK VINA RESULT:      -6.7      6.539      9.159
REMARK  Name = 
REMARK  11 active torsions:
REMARK  status: ('A' for Active; 'I' for Inactive)
REMARK    1  A    between atoms: C_1  and  C_2
REMARK    2  A    between atoms: C_4  and  O_5
REMARK    3  A    between atoms: O_5  and  C_6
REMARK    4  A    between atoms: C_10  and  O_11
REMARK    5  A    between atoms: C_13  and  O_14
REMARK    6  A    between atoms: C_18  and  C_19
REMARK    7  A    between atoms: C_22  and  O_23
REMARK    8  A    between atoms: C_24  and  O_25
REMARK    9  A    between atoms: C_27  and  O_28
REMARK   10  A    between atoms: C_29  and  O_30
REMARK   11  A    between atoms: C_31  and  O_32
REMARK                            x       y       z     vdW  Elec       q    Type
REMARK                         _______ _______ _______ _____ _____    ______ ____
ROOT
ATOM      1  C   UNL     1      -0.151  12.284  20.385  0.00  0.00    +0.000 C 
ATOM      2  C   UNL     1       1.005  12.560  19.426  0.00  0.00    +0.000 C 
ATOM      3  O   UNL     1       1.498  11.712  18.675  0.00  0.00    +0.000 OA
ATOM      4  C   UNL     1       1.563  13.920  19.416  0.00  0.00    +0.000 A 
ATOM      5  C   UNL     1       2.676  14.243  18.630  0.00  0.00    +0.000 A 
ATOM      6  C   UNL     1       3.165  15.543  18.592  0.00  0.00    +0.000 A 
ATOM      7  C   UNL     1       2.521  16.525  19.342  0.00  0.00    +0.000 A 
ATOM      8  C   UNL     1       1.431  16.215  20.149  0.00  0.00    +0.000 A 
ATOM      9  C   UNL     1       0.956  14.902  20.200  0.00  0.00    +0.000 A 
ATOM     10  O   UNL     1      -0.057  14.651  21.089  0.00  0.00    +0.000 OA
ATOM     11  C   UNL     1      -0.932  13.589  20.659  0.00  0.00    +0.000 C 
ENDROOT
BRANCH  11  12
ATOM     12  C   UNL     1      -2.005  13.404  21.735  0.00  0.00    +0.000 A 
ATOM     13  C   UNL     1      -1.868  12.436  22.746  0.00  0.00    +0.000 A 
ATOM     14  C   UNL     1      -2.842  12.284  23.742  0.00  0.00    +0.000 A 
ATOM     15  C   UNL     1      -3.964  13.103  23.729  0.00  0.00    +0.000 A 
ATOM     16  C   UNL     1      -4.121  14.054  22.729  0.00  0.00    +0.000 A 
ATOM     17  C   UNL     1      -3.161  14.207  21.736  0.00  0.00    +0.000 A 
BRANCH  15  18
ATOM     18  O   UNL     1      -4.939  13.016  24.684  0.00  0.00    +0.000 OA
ATOM     19  H   UNL     1      -5.028  12.083  24.943  0.00  0.00    +0.000 HD
ENDBRANCH  15  18
BRANCH  16  20
ATOM     20  O   UNL     1      -5.221  14.866  22.725  0.00  0.00    +0.000 OA
ATOM     21  H   UNL     1      -5.744  14.566  21.955  0.00  0.00    +0.000 HD
ENDBRANCH  16  20
ENDBRANCH  11  12
BRANCH   5  22
ATOM     22  O   UNL     1       3.352  13.319  17.869  0.00  0.00    +0.000 OA
ATOM     23  H   UNL     1       4.016  12.874  18.441  0.00  0.00    +0.000 HD
ENDBRANCH   5  22
BRANCH   7  24
ATOM     24  O   UNL     1       2.955  17.819  19.321  0.00  0.00    +0.000 OA
ATOM     25  H   UNL     1       3.900  17.840  19.551  0.00  0.00    +0.000 HD
ENDBRANCH   7  24
BRANCH   1  26
ATOM     26  O   UNL     1      -0.974  11.183  19.997  0.00  0.00    +0.000 OA
BRANCH  26  30
ATOM     27  C   UNL     1      -5.481  12.135  18.984  0.00  0.00    +0.000 C 
ATOM     28  C   UNL     1      -4.128  11.895  18.320  0.00  0.00    +0.000 C 
ATOM     29  O   UNL     1      -3.183  11.601  19.347  0.00  0.00    +0.000 OA
ATOM     30  C   UNL     1      -1.847  11.424  18.891  0.00  0.00    +0.000 C 
ATOM     31  C   UNL     1      -1.782  10.224  17.926  0.00  0.00    +0.000 C 
ATOM     32  C   UNL     1      -2.771  10.446  16.769  0.00  0.00    +0.000 C 
ATOM     33  C   UNL     1      -4.180  10.744  17.306  0.00  0.00    +0.000 C 
BRANCH  31  34
ATOM     34  O   UNL     1      -0.464  10.008  17.409  0.00  0.00    +0.000 OA
ATOM     35  H   UNL     1      -0.470   9.166  16.921  0.00  0.00    +0.000 HD
ENDBRANCH  31  34
BRANCH  32  36
ATOM     36  O   UNL     1      -2.335  11.528  15.909  0.00  0.00    +0.000 OA
ATOM     37  H   UNL     1      -2.197  11.220  15.002  0.00  0.00    +0.000 HD
ENDBRANCH  32  36
BRANCH  33  38
ATOM     38  O   UNL     1      -5.057  11.079  16.231  0.00  0.00    +0.000 OA
ATOM     39  H   UNL     1      -5.344  10.234  15.828  0.00  0.00    +0.000 HD
ENDBRANCH  33  38
ENDBRANCH  26  30
ENDBRANCH   1  26
TORSDOF 10
ENDMDL
MODEL 5
REMARK VINA RESULT:      -6.5      1.854      2.479
REMARK  Name = 
REMARK  11 active torsions:
REMARK  status: ('A' for Active; 'I' for Inactive)
REMARK    1  A    between atoms: C_1  and  C_2
REMARK    2  A    between atoms: C_4  and  O_5
REMARK    3  A    between atoms: O_5  and  C_6
REMARK    4  A    between atoms: C_10  and  O_11
REMARK    5  A    between atoms: C_13  and  O_14
REMARK    6  A    between atoms: C_18  and  C_19
REMARK    7  A    between atoms: C_22  and  O_23
REMARK    8  A    between atoms: C_24  and  O_25
REMARK    9  A    between atoms: C_27  and  O_28
REMARK   10  A    between atoms: C_29  and  O_30
REMARK   11  A    between atoms: C_31  and  O_32
REMARK                            x       y       z     vdW  Elec       q    Type
REMARK                         _______ _______ _______ _____ _____    ______ ____
ROOT
ATOM      1  C   UNL     1       3.074   7.409  18.077  0.00  0.00    +0.000 C 
ATOM      2  C   UNL     1       2.517   8.822  18.235  0.00  0.00    +0.000 C 
ATOM      3  O   UNL     1       2.721   9.740  17.434  0.00  0.00    +0.000 OA
ATOM      4  C   UNL     1       1.699   9.095  19.426  0.00  0.00    +0.000 A 
ATOM      5  C   UNL     1       1.215  10.382  19.697  0.00  0.00    +0.000 A 
ATOM      6  C   UNL     1       0.404  10.618  20.799  0.00  0.00    +0.000 A 
ATOM      7  C   UNL     1       0.069   9.549  21.627  0.00  0.00    +0.000 A 
ATOM      8  C   UNL     1       0.563   8.271  21.388  0.00  0.00    +0.000 A 
ATOM      9  C   UNL     1       1.396   8.042  20.290  0.00  0.00    +0.000 A 
ATOM     10  O   UNL     1       1.923   6.782  20.172  0.00  0.00    +0.000 OA
ATOM     11  C   UNL     1       2.159   6.397  18.803  0.00  0.00    +0.000 C 
ENDROOT
BRANCH  11  12
ATOM     12  C   UNL     1       2.751   4.986  18.811  0.00  0.00    +0.000 A 
ATOM     13  C   UNL     1       3.891   4.675  19.576  0.00  0.00    +0.000 A 
ATOM     14  C   UNL     1       4.418   3.377  19.598  0.00  0.00    +0.000 A 
ATOM     15  C   UNL     1       3.806   2.380  18.848  0.00  0.00    +0.000 A 
ATOM     16  C   UNL     1       2.689   2.674  18.077  0.00  0.00    +0.000 A 
ATOM     17  C   UNL     1       2.164   3.960  18.048  0.00  0.00    +0.000 A 
BRANCH  15  18
ATOM     18  O   UNL     1       4.261   1.090  18.844  0.00  0.00    +0.000 OA
ATOM     19  H   UNL     1       4.623   0.900  17.962  0.00  0.00    +0.000 HD
ENDBRANCH  15  18
BRANCH  16  20
ATOM     20  O   UNL     1       2.083   1.688  17.349  0.00  0.00    +0.000 OA
ATOM     21  H   UNL     1       2.723   1.478  16.641  0.00  0.00    +0.000 HD
ENDBRANCH  16  20
ENDBRANCH  11  12
BRANCH   5  22
ATOM     22  O   UNL     1       1.510  11.474  18.916  0.00  0.00    +0.000 OA
ATOM     23  H   UNL     1       0.721  12.060  18.893  0.00  0.00    +0.000 HD
ENDBRANCH   5  22
BRANCH   7  24
ATOM     24  O   UNL     1      -0.741   9.730  22.711  0.00  0.00    +0.000 OA
ATOM     25  H   UNL     1      -0.389   9.216  23.458  0.00  0.00    +0.000 HD
ENDBRANCH   7  24
BRANCH   1  26
ATOM     26  O   UNL     1       3.377   7.055  16.727  0.00  0.00    +0.000 OA
BRANCH  26  30
ATOM     27  C   UNL     1       5.666   3.033  15.817  0.00  0.00    +0.000 C 
ATOM     28  C   UNL     1       5.905   4.522  16.054  0.00  0.00    +0.000 C 
ATOM     29  O   UNL     1       4.646   5.129  16.332  0.00  0.00    +0.000 OA
ATOM     30  C   UNL     1       4.691   6.540  16.503  0.00  0.00    +0.000 C 
ATOM     31  C   UNL     1       5.583   6.888  17.712  0.00  0.00    +0.000 C 
ATOM     32  C   UNL     1       6.980   6.277  17.507  0.00  0.00    +0.000 C 
ATOM     33  C   UNL     1       6.878   4.772  17.214  0.00  0.00    +0.000 C 
BRANCH  31  34
ATOM     34  O   UNL     1       5.692   8.300  17.924  0.00  0.00    +0.000 OA
ATOM     35  H   UNL     1       6.444   8.454  18.522  0.00  0.00    +0.000 HD
ENDBRANCH  31  34
BRANCH  32  36
ATOM     36  O   UNL     1       7.688   6.940  16.430  0.00  0.00    +0.000 OA
ATOM     37  H   UNL     1       7.083   7.196  15.719  0.00  0.00    +0.000 HD
ENDBRANCH  32  36
BRANCH  33  38
ATOM     38  O   UNL     1       8.166   4.243  16.896  0.00  0.00    +0.000 OA
ATOM     39  H   UNL     1       8.036   3.299  16.676  0.00  0.00    +0.000 HD
ENDBRANCH  33  38
ENDBRANCH  26  30
ENDBRANCH   1  26
TORSDOF 10
ENDMDL
MODEL 6
REMARK VINA RESULT:      -6.5      6.742      9.739
REMARK  Name = 
REMARK  11 active torsions:
REMARK  status: ('A' for Active; 'I' for Inactive)
REMARK    1  A    between atoms: C_1  and  C_2
REMARK    2  A    between atoms: C_4  and  O_5
REMARK    3  A    between atoms: O_5  and  C_6
REMARK    4  A    between atoms: C_10  and  O_11
REMARK    5  A    between atoms: C_13  and  O_14
REMARK    6  A    between atoms: C_18  and  C_19
REMARK    7  A    between atoms: C_22  and  O_23
REMARK    8  A    between atoms: C_24  and  O_25
REMARK    9  A    between atoms: C_27  and  O_28
REMARK   10  A    between atoms: C_29  and  O_30
REMARK   11  A    between atoms: C_31  and  O_32
REMARK                            x       y       z     vdW  Elec       q    Type
REMARK                         _______ _______ _______ _____ _____    ______ ____
ROOT
ATOM      1  C   UNL     1      -1.514  13.139  21.287  0.00  0.00    +0.000 C 
ATOM      2  C   UNL     1      -2.467  13.080  22.479  0.00  0.00    +0.000 C 
ATOM      3  O   UNL     1      -3.433  12.314  22.553  0.00  0.00    +0.000 OA
ATOM      4  C   UNL     1      -2.212  14.005  23.593  0.00  0.00    +0.000 A 
ATOM      5  C   UNL     1      -3.081  14.078  24.690  0.00  0.00    +0.000 A 
ATOM      6  C   UNL     1      -2.804  14.921  25.759  0.00  0.00    +0.000 A 
ATOM      7  C   UNL     1      -1.640  15.686  25.727  0.00  0.00    +0.000 A 
ATOM      8  C   UNL     1      -0.781  15.645  24.633  0.00  0.00    +0.000 A 
ATOM      9  C   UNL     1      -1.074  14.811  23.551  0.00  0.00    +0.000 A 
ATOM     10  O   UNL     1      -0.237  14.894  22.468  0.00  0.00    +0.000 OA
ATOM     11  C   UNL     1      -0.130  13.653  21.744  0.00  0.00    +0.000 C 
ENDROOT
BRANCH  11  12
ATOM     12  C   UNL     1       0.819  13.883  20.565  0.00  0.00    +0.000 A 
ATOM     13  C   UNL     1       1.684  12.869  20.114  0.00  0.00    +0.000 A 
ATOM     14  C   UNL     1       2.537  13.075  19.021  0.00  0.00    +0.000 A 
ATOM     15  C   UNL     1       2.528  14.303  18.372  0.00  0.00    +0.000 A 
ATOM     16  C   UNL     1       1.689  15.319  18.813  0.00  0.00    +0.000 A 
ATOM     17  C   UNL     1       0.845  15.122  19.899  0.00  0.00    +0.000 A 
BRANCH  15  18
ATOM     18  O   UNL     1       3.321  14.559  17.287  0.00  0.00    +0.000 OA
ATOM     19  H   UNL     1       2.787  14.430  16.485  0.00  0.00    +0.000 HD
ENDBRANCH  15  18
BRANCH  16  20
ATOM     20  O   UNL     1       1.674  16.523  18.165  0.00  0.00    +0.000 OA
ATOM     21  H   UNL     1       0.730  16.775  18.138  0.00  0.00    +0.000 HD
ENDBRANCH  16  20
ENDBRANCH  11  12
BRANCH   5  22
ATOM     22  O   UNL     1      -4.242  13.348  24.778  0.00  0.00    +0.000 OA
ATOM     23  H   UNL     1      -4.153  12.715  25.525  0.00  0.00    +0.000 HD
ENDBRANCH   5  22
BRANCH   7  24
ATOM     24  O   UNL     1      -1.318  16.514  26.763  0.00  0.00    +0.000 OA
ATOM     25  H   UNL     1      -0.828  17.279  26.416  0.00  0.00    +0.000 HD
ENDBRANCH   7  24
BRANCH   1  26
ATOM     26  O   UNL     1      -1.464  11.933  20.525  0.00  0.00    +0.000 OA
BRANCH  26  30
ATOM     27  C   UNL     1      -5.798  11.998  18.666  0.00  0.00    +0.000 C 
ATOM     28  C   UNL     1      -4.324  11.986  18.271  0.00  0.00    +0.000 C 
ATOM     29  O   UNL     1      -3.551  11.910  19.466  0.00  0.00    +0.000 OA
ATOM     30  C   UNL     1      -2.143  11.966  19.269  0.00  0.00    +0.000 C 
ATOM     31  C   UNL     1      -1.691  10.762  18.418  0.00  0.00    +0.000 C 
ATOM     32  C   UNL     1      -2.470  10.755  17.091  0.00  0.00    +0.000 C 
ATOM     33  C   UNL     1      -3.984  10.808  17.348  0.00  0.00    +0.000 C 
BRANCH  31  34
ATOM     34  O   UNL     1      -0.282  10.773  18.159  0.00  0.00    +0.000 OA
ATOM     35  H   UNL     1      -0.065   9.967  17.660  0.00  0.00    +0.000 HD
ENDBRANCH  31  34
BRANCH  32  36
ATOM     36  O   UNL     1      -2.076  11.865  16.247  0.00  0.00    +0.000 OA
ATOM     37  H   UNL     1      -1.112  11.946  16.203  0.00  0.00    +0.000 HD
ENDBRANCH  32  36
BRANCH  33  38
ATOM     38  O   UNL     1      -4.689  10.934  16.113  0.00  0.00    +0.000 OA
ATOM     39  H   UNL     1      -5.643  10.910  16.330  0.00  0.00    +0.000 HD
ENDBRANCH  33  38
ENDBRANCH  26  30
ENDBRANCH   1  26
TORSDOF 10
ENDMDL
MODEL 7
REMARK VINA RESULT:      -6.4      1.671      2.413
REMARK  Name = 
REMARK  11 active torsions:
REMARK  status: ('A' for Active; 'I' for Inactive)
REMARK    1  A    between atoms: C_1  and  C_2
REMARK    2  A    between atoms: C_4  and  O_5
REMARK    3  A    between atoms: O_5  and  C_6
REMARK    4  A    between atoms: C_10  and  O_11
REMARK    5  A    between atoms: C_13  and  O_14
REMARK    6  A    between atoms: C_18  and  C_19
REMARK    7  A    between atoms: C_22  and  O_23
REMARK    8  A    between atoms: C_24  and  O_25
REMARK    9  A    between atoms: C_27  and  O_28
REMARK   10  A    between atoms: C_29  and  O_30
REMARK   11  A    between atoms: C_31  and  O_32
REMARK                            x       y       z     vdW  Elec       q    Type
REMARK                         _______ _______ _______ _____ _____    ______ ____
ROOT
ATOM      1  C   UNL     1       3.100   6.350  18.543  0.00  0.00    +0.000 C 
ATOM      2  C   UNL     1       2.676   7.721  18.021  0.00  0.00    +0.000 C 
ATOM      3  O   UNL     1       2.978   8.160  16.906  0.00  0.00    +0.000 OA
ATOM      4  C   UNL     1       1.869   8.563  18.916  0.00  0.00    +0.000 A 
ATOM      5  C   UNL     1       1.505   9.867  18.554  0.00  0.00    +0.000 A 
ATOM      6  C   UNL     1       0.701  10.636  19.386  0.00  0.00    +0.000 A 
ATOM      7  C   UNL     1       0.255  10.084  20.585  0.00  0.00    +0.000 A 
ATOM      8  C   UNL     1       0.630   8.801  20.972  0.00  0.00    +0.000 A 
ATOM      9  C   UNL     1       1.455   8.039  20.141  0.00  0.00    +0.000 A 
ATOM     10  O   UNL     1       1.863   6.824  20.628  0.00  0.00    +0.000 OA
ATOM     11  C   UNL     1       2.083   5.847  19.592  0.00  0.00    +0.000 C 
ENDROOT
BRANCH  11  12
ATOM     12  C   UNL     1       2.540   4.550  20.264  0.00  0.00    +0.000 A 
ATOM     13  C   UNL     1       1.824   3.992  21.339  0.00  0.00    +0.000 A 
ATOM     14  C   UNL     1       2.234   2.793  21.939  0.00  0.00    +0.000 A 
ATOM     15  C   UNL     1       3.367   2.145  21.464  0.00  0.00    +0.000 A 
ATOM     16  C   UNL     1       4.092   2.691  20.411  0.00  0.00    +0.000 A 
ATOM     17  C   UNL     1       3.694   3.882  19.816  0.00  0.00    +0.000 A 
BRANCH  15  18
ATOM     18  O   UNL     1       3.805   0.963  21.993  0.00  0.00    +0.000 OA
ATOM     19  H   UNL     1       4.198   1.148  22.863  0.00  0.00    +0.000 HD
ENDBRANCH  15  18
BRANCH  16  20
ATOM     20  O   UNL     1       5.200   2.045  19.939  0.00  0.00    +0.000 OA
ATOM     21  H   UNL     1       5.346   2.427  19.050  0.00  0.00    +0.000 HD
ENDBRANCH  16  20
ENDBRANCH  11  12
BRANCH   5  22
ATOM     22  O   UNL     1       1.913  10.464  17.386  0.00  0.00    +0.000 OA
ATOM     23  H   UNL     1       2.767  10.059  17.114  0.00  0.00    +0.000 HD
ENDBRANCH   5  22
BRANCH   7  24
ATOM     24  O   UNL     1      -0.551  10.796  21.426  0.00  0.00    +0.000 OA
ATOM     25  H   UNL     1      -0.406  10.490  22.338  0.00  0.00    +0.000 HD
ENDBRANCH   7  24
BRANCH   1  26
ATOM     26  O   UNL     1       3.390   5.404  17.514  0.00  0.00    +0.000 OA
BRANCH  26  30
ATOM     27  C   UNL     1       5.504   4.228  13.464  0.00  0.00    +0.000 C 
ATOM     28  C   UNL     1       5.692   5.091  14.709  0.00  0.00    +0.000 C 
ATOM     29  O   UNL     1       4.577   4.869  15.568  0.00  0.00    +0.000 OA
ATOM     30  C   UNL     1       4.569   5.664  16.748  0.00  0.00    +0.000 C 
ATOM     31  C   UNL     1       5.809   5.337  17.603  0.00  0.00    +0.000 C 
ATOM     32  C   UNL     1       7.079   5.550  16.761  0.00  0.00    +0.000 C 
ATOM     33  C   UNL     1       6.998   4.762  15.445  0.00  0.00    +0.000 C 
BRANCH  31  34
ATOM     34  O   UNL     1       5.875   6.126  18.797  0.00  0.00    +0.000 OA
ATOM     35  H   UNL     1       6.071   5.527  19.539  0.00  0.00    +0.000 HD
ENDBRANCH  31  34
BRANCH  32  36
ATOM     36  O   UNL     1       7.289   6.956  16.479  0.00  0.00    +0.000 OA
ATOM     37  H   UNL     1       6.602   7.502  16.888  0.00  0.00    +0.000 HD
ENDBRANCH  32  36
BRANCH  33  38
ATOM     38  O   UNL     1       8.119   5.071  14.616  0.00  0.00    +0.000 OA
ATOM     39  H   UNL     1       7.840   5.799  14.024  0.00  0.00    +0.000 HD
ENDBRANCH  33  38
ENDBRANCH  26  30
ENDBRANCH   1  26
TORSDOF 10
ENDMDL
MODEL 8
REMARK VINA RESULT:      -6.4      1.148      1.445
REMARK  Name = 
REMARK  11 active torsions:
REMARK  status: ('A' for Active; 'I' for Inactive)
REMARK    1  A    between atoms: C_1  and  C_2
REMARK    2  A    between atoms: C_4  and  O_5
REMARK    3  A    between atoms: O_5  and  C_6
REMARK    4  A    between atoms: C_10  and  O_11
REMARK    5  A    between atoms: C_13  and  O_14
REMARK    6  A    between atoms: C_18  and  C_19
REMARK    7  A    between atoms: C_22  and  O_23
REMARK    8  A    between atoms: C_24  and  O_25
REMARK    9  A    between atoms: C_27  and  O_28
REMARK   10  A    between atoms: C_29  and  O_30
REMARK   11  A    between atoms: C_31  and  O_32
REMARK                            x       y       z     vdW  Elec       q    Type
REMARK                         _______ _______ _______ _____ _____    ______ ____
ROOT
ATOM      1  C   UNL     1       2.652   7.020  18.654  0.00  0.00    +0.000 C 
ATOM      2  C   UNL     1       2.427   8.468  18.220  0.00  0.00    +0.000 C 
ATOM      3  O   UNL     1       2.944   8.978  17.221  0.00  0.00    +0.000 OA
ATOM      4  C   UNL     1       1.549   9.295  19.061  0.00  0.00    +0.000 A 
ATOM      5  C   UNL     1       1.352  10.654  18.788  0.00  0.00    +0.000 A 
ATOM      6  C   UNL     1       0.483  11.415  19.560  0.00  0.00    +0.000 A 
ATOM      7  C   UNL     1      -0.199  10.799  20.608  0.00  0.00    +0.000 A 
ATOM      8  C   UNL     1       0.007   9.456  20.909  0.00  0.00    +0.000 A 
ATOM      9  C   UNL     1       0.898   8.700  20.143  0.00  0.00    +0.000 A 
ATOM     10  O   UNL     1       1.125   7.413  20.556  0.00  0.00    +0.000 OA
ATOM     11  C   UNL     1       1.438   6.520  19.470  0.00  0.00    +0.000 C 
ENDROOT
BRANCH  11  12
ATOM     12  C   UNL     1       1.676   5.129  20.063  0.00  0.00    +0.000 A 
ATOM     13  C   UNL     1       2.098   4.965  21.395  0.00  0.00    +0.000 A 
ATOM     14  C   UNL     1       2.294   3.689  21.942  0.00  0.00    +0.000 A 
ATOM     15  C   UNL     1       2.070   2.567  21.154  0.00  0.00    +0.000 A 
ATOM     16  C   UNL     1       1.665   2.714  19.833  0.00  0.00    +0.000 A 
ATOM     17  C   UNL     1       1.474   3.976  19.283  0.00  0.00    +0.000 A 
BRANCH  15  18
ATOM     18  O   UNL     1       2.224   1.297  21.635  0.00  0.00    +0.000 OA
ATOM     19  H   UNL     1       3.173   1.141  21.778  0.00  0.00    +0.000 HD
ENDBRANCH  15  18
BRANCH  16  20
ATOM     20  O   UNL     1       1.435   1.608  19.063  0.00  0.00    +0.000 OA
ATOM     21  H   UNL     1       0.488   1.668  18.826  0.00  0.00    +0.000 HD
ENDBRANCH  16  20
ENDBRANCH  11  12
BRANCH   5  22
ATOM     22  O   UNL     1       1.994  11.317  17.769  0.00  0.00    +0.000 OA
ATOM     23  H   UNL     1       2.482  12.078  18.154  0.00  0.00    +0.000 HD
ENDBRANCH   5  22
BRANCH   7  24
ATOM     24  O   UNL     1      -1.076  11.501  21.382  0.00  0.00    +0.000 OA
ATOM     25  H   UNL     1      -0.577  12.107  21.956  0.00  0.00    +0.000 HD
ENDBRANCH   7  24
BRANCH   1  26
ATOM     26  O   UNL     1       3.035   6.151  17.589  0.00  0.00    +0.000 OA
BRANCH  26  30
ATOM     27  C   UNL     1       6.189   4.656  14.416  0.00  0.00    +0.000 C 
ATOM     28  C   UNL     1       6.086   5.230  15.827  0.00  0.00    +0.000 C 
ATOM     29  O   UNL     1       4.704   5.390  16.134  0.00  0.00    +0.000 OA
ATOM     30  C   UNL     1       4.442   5.989  17.398  0.00  0.00    +0.000 C 
ATOM     31  C   UNL     1       5.005   5.097  18.522  0.00  0.00    +0.000 C 
ATOM     32  C   UNL     1       6.507   4.864  18.283  0.00  0.00    +0.000 C 
ATOM     33  C   UNL     1       6.756   4.321  16.867  0.00  0.00    +0.000 C 
BRANCH  31  34
ATOM     34  O   UNL     1       4.797   5.659  19.823  0.00  0.00    +0.000 OA
ATOM     35  H   UNL     1       3.884   5.993  19.860  0.00  0.00    +0.000 HD
ENDBRANCH  31  34
BRANCH  32  36
ATOM     36  O   UNL     1       7.264   6.084  18.482  0.00  0.00    +0.000 OA
ATOM     37  H   UNL     1       7.314   6.601  17.665  0.00  0.00    +0.000 HD
ENDBRANCH  32  36
BRANCH  33  38
ATOM     38  O   UNL     1       8.158   4.234  16.612  0.00  0.00    +0.000 OA
ATOM     39  H   UNL     1       8.458   5.136  16.379  0.00  0.00    +0.000 HD
ENDBRANCH  33  38
ENDBRANCH  26  30
ENDBRANCH   1  26
TORSDOF 10
ENDMDL
MODEL 9
REMARK VINA RESULT:      -6.4      6.683      9.593
REMARK  Name = 
REMARK  11 active torsions:
REMARK  status: ('A' for Active; 'I' for Inactive)
REMARK    1  A    between atoms: C_1  and  C_2
REMARK    2  A    between atoms: C_4  and  O_5
REMARK    3  A    between atoms: O_5  and  C_6
REMARK    4  A    between atoms: C_10  and  O_11
REMARK    5  A    between atoms: C_13  and  O_14
REMARK    6  A    between atoms: C_18  and  C_19
REMARK    7  A    between atoms: C_22  and  O_23
REMARK    8  A    between atoms: C_24  and  O_25
REMARK    9  A    between atoms: C_27  and  O_28
REMARK   10  A    between atoms: C_29  and  O_30
REMARK   11  A    between atoms: C_31  and  O_32
REMARK                            x       y       z     vdW  Elec       q    Type
REMARK                         _______ _______ _______ _____ _____    ______ ____
ROOT
ATOM      1  C   UNL     1      -1.445  13.222  21.149  0.00  0.00    +0.000 C 
ATOM      2  C   UNL     1      -2.374  13.139  22.358  0.00  0.00    +0.000 C 
ATOM      3  O   UNL     1      -3.312  12.341  22.456  0.00  0.00    +0.000 OA
ATOM      4  C   UNL     1      -2.132  14.081  23.461  0.00  0.00    +0.000 A 
ATOM      5  C   UNL     1      -2.983  14.133  24.572  0.00  0.00    +0.000 A 
ATOM      6  C   UNL     1      -2.717  14.992  25.630  0.00  0.00    +0.000 A 
ATOM      7  C   UNL     1      -1.581  15.797  25.572  0.00  0.00    +0.000 A 
ATOM      8  C   UNL     1      -0.741  15.777  24.464  0.00  0.00    +0.000 A 
ATOM      9  C   UNL     1      -1.023  14.925  23.393  0.00  0.00    +0.000 A 
ATOM     10  O   UNL     1      -0.209  15.029  22.295  0.00  0.00    +0.000 OA
ATOM     11  C   UNL     1      -0.071  13.787  21.577  0.00  0.00    +0.000 C 
ENDROOT
BRANCH  11  12
ATOM     12  C   UNL     1       0.848  14.039  20.380  0.00  0.00    +0.000 A 
ATOM     13  C   UNL     1       1.265  15.339  20.040  0.00  0.00    +0.000 A 
ATOM     14  C   UNL     1       2.124  15.565  18.955  0.00  0.00    +0.000 A 
ATOM     15  C   UNL     1       2.569  14.486  18.201  0.00  0.00    +0.000 A 
ATOM     16  C   UNL     1       2.154  13.198  18.516  0.00  0.00    +0.000 A 
ATOM     17  C   UNL     1       1.299  12.968  19.587  0.00  0.00    +0.000 A 
BRANCH  15  18
ATOM     18  O   UNL     1       3.422  14.640  17.145  0.00  0.00    +0.000 OA
ATOM     19  H   UNL     1       3.255  15.509  16.743  0.00  0.00    +0.000 HD
ENDBRANCH  15  18
BRANCH  16  20
ATOM     20  O   UNL     1       2.602  12.137  17.779  0.00  0.00    +0.000 OA
ATOM     21  H   UNL     1       1.857  11.921  17.184  0.00  0.00    +0.000 HD
ENDBRANCH  16  20
ENDBRANCH  11  12
BRANCH   5  22
ATOM     22  O   UNL     1      -4.116  13.364  24.687  0.00  0.00    +0.000 OA
ATOM     23  H   UNL     1      -4.544  13.310  23.803  0.00  0.00    +0.000 HD
ENDBRANCH   5  22
BRANCH   7  24
ATOM     24  O   UNL     1      -1.270  16.644  26.596  0.00  0.00    +0.000 OA
ATOM     25  H   UNL     1      -2.043  16.732  27.181  0.00  0.00    +0.000 HD
ENDBRANCH   7  24
BRANCH   1  26
ATOM     26  O   UNL     1      -1.367  12.012  20.396  0.00  0.00    +0.000 OA
BRANCH  26  30
ATOM     27  C   UNL     1      -5.773  12.075  18.714  0.00  0.00    +0.000 C 
ATOM     28  C   UNL     1      -4.317  12.016  18.260  0.00  0.00    +0.000 C 
ATOM     29  O   UNL     1      -3.497  11.981  19.425  0.00  0.00    +0.000 OA
ATOM     30  C   UNL     1      -2.098  12.000  19.168  0.00  0.00    +0.000 C 
ATOM     31  C   UNL     1      -1.703  10.749  18.357  0.00  0.00    +0.000 C 
ATOM     32  C   UNL     1      -2.536  10.695  17.065  0.00  0.00    +0.000 C 
ATOM     33  C   UNL     1      -4.037  10.790  17.381  0.00  0.00    +0.000 C 
BRANCH  31  34
ATOM     34  O   UNL     1      -0.306  10.720  18.040  0.00  0.00    +0.000 OA
ATOM     35  H   UNL     1       0.107  11.504  18.445  0.00  0.00    +0.000 HD
ENDBRANCH  31  34
BRANCH  32  36
ATOM     36  O   UNL     1      -2.159  11.756  16.154  0.00  0.00    +0.000 OA
ATOM     37  H   UNL     1      -1.366  12.218  16.464  0.00  0.00    +0.000 HD
ENDBRANCH  32  36
BRANCH  33  38
ATOM     38  O   UNL     1      -4.792  10.871  16.172  0.00  0.00    +0.000 OA
ATOM     39  H   UNL     1      -4.201  10.574  15.451  0.00  0.00    +0.000 HD
ENDBRANCH  33  38
ENDBRANCH  26  30
ENDBRANCH   1  26
TORSDOF 10
ENDMDL
