MODEL 1
REMARK VINA RESULT:      -6.8      0.000      0.000
REMARK  Name = 
REMARK  7 active torsions:
REMARK  status: ('A' for Active; 'I' for Inactive)
REMARK    1  A    between atoms: C_1  and  O_2
REMARK    2  A    between atoms: O_2  and  C_3
REMARK    3  A    between atoms: C_3  and  C_13
REMARK    4  A    between atoms: C_4  and  C_5
REMARK    5  A    between atoms: C_8  and  O_9
REMARK    6  A    between atoms: O_9  and  C_10
REMARK    7  A    between atoms: N_15  and  C_16
REMARK                            x       y       z     vdW  Elec       q    Type
REMARK                         _______ _______ _______ _____ _____    ______ ____
ROOT
ATOM      1  C   UNL     1       2.196   6.524  19.649  0.00  0.00    +0.000 C 
ATOM      2  C   UNL     1       2.069   7.866  19.650  0.00  0.00    +0.000 C 
ENDROOT
BRANCH   2   3
ATOM      3  C   UNL     1       1.202   8.666  20.546  0.00  0.00    +0.000 A 
ATOM      4  C   UNL     1       1.352   8.547  21.932  0.00  0.00    +0.000 A 
ATOM      5  C   UNL     1       0.636   9.380  22.804  0.00  0.00    +0.000 A 
ATOM      6  C   UNL     1      -0.219  10.361  22.305  0.00  0.00    +0.000 A 
ATOM      7  C   UNL     1      -0.403  10.467  20.929  0.00  0.00    +0.000 A 
ATOM      8  C   UNL     1       0.311   9.635  20.060  0.00  0.00    +0.000 A 
BRANCH   6   9
ATOM      9  O   UNL     1      -0.844  11.142  23.238  0.00  0.00    +0.000 OA
ATOM     10  C   UNL     1      -1.209  12.444  22.783  0.00  0.00    +0.000 C 
ENDBRANCH   6   9
ENDBRANCH   2   3
BRANCH   1  11
ATOM     11  C   UNL     1       2.959   5.845  18.524  0.00  0.00    +0.000 C 
ATOM     12  O   UNL     1       2.390   4.975  17.873  0.00  0.00    +0.000 OA
ATOM     13  N   UNL     1       4.280   6.234  18.362  0.00  0.00    +0.000 N 
ATOM     14  H   UNL     1       4.659   6.904  19.016  0.00  0.00    +0.000 HD
BRANCH  13  15
ATOM     15  C   UNL     1       5.199   5.675  17.433  0.00  0.00    +0.000 A 
ATOM     16  C   UNL     1       6.310   4.915  17.806  0.00  0.00    +0.000 A 
ATOM     17  C   UNL     1       7.227   4.453  16.855  0.00  0.00    +0.000 A 
ATOM     18  C   UNL     1       7.037   4.740  15.510  0.00  0.00    +0.000 A 
ATOM     19  C   UNL     1       5.916   5.467  15.115  0.00  0.00    +0.000 A 
ATOM     20  C   UNL     1       4.997   5.929  16.068  0.00  0.00    +0.000 A 
ENDBRANCH  13  15
ENDBRANCH   1  11
BRANCH   1  22
ATOM     21  C   UNL     1       2.161   4.649  21.149  0.00  0.00    +0.000 C 
ATOM     22  O   UNL     1       1.491   5.766  20.580  0.00  0.00    +0.000 OA
ENDBRANCH   1  22
TORSDOF 5
ENDMDL
MODEL 2
REMARK VINA RESULT:      -6.7      1.888      8.191
REMARK  Name = 
REMARK  7 active torsions:
REMARK  status: ('A' for Active; 'I' for Inactive)
REMARK    1  A    between atoms: C_1  and  O_2
REMARK    2  A    between atoms: O_2  and  C_3
REMARK    3  A    between atoms: C_3  and  C_13
REMARK    4  A    between atoms: C_4  and  C_5
REMARK    5  A    between atoms: C_8  and  O_9
REMARK    6  A    between atoms: O_9  and  C_10
REMARK    7  A    between atoms: N_15  and  C_16
REMARK                            x       y       z     vdW  Elec       q    Type
REMARK                         _______ _______ _______ _____ _____    ______ ____
ROOT
ATOM      1  C   UNL     1       3.051   5.792  19.421  0.00  0.00    +0.000 C 
ATOM      2  C   UNL     1       3.589   6.431  18.362  0.00  0.00    +0.000 C 
ENDROOT
BRANCH   2   3
ATOM      3  C   UNL     1       4.734   5.967  17.545  0.00  0.00    +0.000 A 
ATOM      4  C   UNL     1       4.510   5.071  16.493  0.00  0.00    +0.000 A 
ATOM      5  C   UNL     1       5.550   4.711  15.625  0.00  0.00    +0.000 A 
ATOM      6  C   UNL     1       6.822   5.261  15.775  0.00  0.00    +0.000 A 
ATOM      7  C   UNL     1       7.067   6.128  16.837  0.00  0.00    +0.000 A 
ATOM      8  C   UNL     1       6.028   6.485  17.704  0.00  0.00    +0.000 A 
BRANCH   6   9
ATOM      9  O   UNL     1       7.757   4.871  14.856  0.00  0.00    +0.000 OA
ATOM     10  C   UNL     1       7.275   4.765  13.518  0.00  0.00    +0.000 C 
ENDBRANCH   6   9
ENDBRANCH   2   3
BRANCH   1  11
ATOM     11  C   UNL     1       2.023   6.504  20.281  0.00  0.00    +0.000 C 
ATOM     12  O   UNL     1       1.232   5.826  20.930  0.00  0.00    +0.000 OA
ATOM     13  N   UNL     1       2.026   7.889  20.216  0.00  0.00    +0.000 N 
ATOM     14  H   UNL     1       2.675   8.330  19.581  0.00  0.00    +0.000 HD
BRANCH  13  15
ATOM     15  C   UNL     1       1.104   8.751  20.869  0.00  0.00    +0.000 A 
ATOM     16  C   UNL     1       0.247   9.622  20.192  0.00  0.00    +0.000 A 
ATOM     17  C   UNL     1      -0.588  10.505  20.886  0.00  0.00    +0.000 A 
ATOM     18  C   UNL     1      -0.581  10.522  22.274  0.00  0.00    +0.000 A 
ATOM     19  C   UNL     1       0.241   9.636  22.967  0.00  0.00    +0.000 A 
ATOM     20  C   UNL     1       1.077   8.750  22.271  0.00  0.00    +0.000 A 
ENDBRANCH  13  15
ENDBRANCH   1  11
BRANCH   1  22
ATOM     21  C   UNL     1       2.874   3.398  19.361  0.00  0.00    +0.000 C 
ATOM     22  O   UNL     1       3.563   4.557  19.810  0.00  0.00    +0.000 OA
ENDBRANCH   1  22
TORSDOF 5
ENDMDL
MODEL 3
REMARK VINA RESULT:      -6.6      1.880      8.128
REMARK  Name = 
REMARK  7 active torsions:
REMARK  status: ('A' for Active; 'I' for Inactive)
REMARK    1  A    between atoms: C_1  and  O_2
REMARK    2  A    between atoms: O_2  and  C_3
REMARK    3  A    between atoms: C_3  and  C_13
REMARK    4  A    between atoms: C_4  and  C_5
REMARK    5  A    between atoms: C_8  and  O_9
REMARK    6  A    between atoms: O_9  and  C_10
REMARK    7  A    between atoms: N_15  and  C_16
REMARK                            x       y       z     vdW  Elec       q    Type
REMARK                         _______ _______ _______ _____ _____    ______ ____
ROOT
ATOM      1  C   UNL     1       3.014   5.746  19.399  0.00  0.00    +0.000 C 
ATOM      2  C   UNL     1       3.641   6.415  18.411  0.00  0.00    +0.000 C 
ENDROOT
BRANCH   2   3
ATOM      3  C   UNL     1       4.765   5.915  17.586  0.00  0.00    +0.000 A 
ATOM      4  C   UNL     1       4.508   5.012  16.548  0.00  0.00    +0.000 A 
ATOM      5  C   UNL     1       5.529   4.617  15.673  0.00  0.00    +0.000 A 
ATOM      6  C   UNL     1       6.816   5.139  15.802  0.00  0.00    +0.000 A 
ATOM      7  C   UNL     1       7.093   6.012  16.850  0.00  0.00    +0.000 A 
ATOM      8  C   UNL     1       6.073   6.404  17.724  0.00  0.00    +0.000 A 
BRANCH   6   9
ATOM      9  O   UNL     1       7.730   4.715  14.877  0.00  0.00    +0.000 OA
ATOM     10  C   UNL     1       7.292   4.790  13.522  0.00  0.00    +0.000 C 
ENDBRANCH   6   9
ENDBRANCH   2   3
BRANCH   1  11
ATOM     11  C   UNL     1       2.027   6.479  20.290  0.00  0.00    +0.000 C 
ATOM     12  O   UNL     1       1.205   5.819  20.920  0.00  0.00    +0.000 OA
ATOM     13  N   UNL     1       2.101   7.863  20.274  0.00  0.00    +0.000 N 
ATOM     14  H   UNL     1       2.769   8.292  19.650  0.00  0.00    +0.000 HD
BRANCH  13  15
ATOM     15  C   UNL     1       1.227   8.746  20.962  0.00  0.00    +0.000 A 
ATOM     16  C   UNL     1       1.065   8.749  22.350  0.00  0.00    +0.000 A 
ATOM     17  C   UNL     1       0.133   9.589  22.971  0.00  0.00    +0.000 A 
ATOM     18  C   UNL     1      -0.646  10.447  22.208  0.00  0.00    +0.000 A 
ATOM     19  C   UNL     1      -0.475  10.483  20.825  0.00  0.00    +0.000 A 
ATOM     20  C   UNL     1       0.460   9.642  20.203  0.00  0.00    +0.000 A 
ENDBRANCH  13  15
ENDBRANCH   1  11
BRANCH   1  22
ATOM     21  C   UNL     1       2.583   3.392  19.195  0.00  0.00    +0.000 C 
ATOM     22  O   UNL     1       3.400   4.442  19.697  0.00  0.00    +0.000 OA
ENDBRANCH   1  22
TORSDOF 5
ENDMDL
MODEL 4
REMARK VINA RESULT:      -6.5      2.030      8.117
REMARK  Name = 
REMARK  7 active torsions:
REMARK  status: ('A' for Active; 'I' for Inactive)
REMARK    1  A    between atoms: C_1  and  O_2
REMARK    2  A    between atoms: O_2  and  C_3
REMARK    3  A    between atoms: C_3  and  C_13
REMARK    4  A    between atoms: C_4  and  C_5
REMARK    5  A    between atoms: C_8  and  O_9
REMARK    6  A    between atoms: O_9  and  C_10
REMARK    7  A    between atoms: N_15  and  C_16
REMARK                            x       y       z     vdW  Elec       q    Type
REMARK                         _______ _______ _______ _____ _____    ______ ____
ROOT
ATOM      1  C   UNL     1       2.384   6.990  19.553  0.00  0.00    +0.000 C 
ATOM      2  C   UNL     1       2.884   7.137  18.310  0.00  0.00    +0.000 C 
ENDROOT
BRANCH   2   3
ATOM      3  C   UNL     1       3.832   6.224  17.631  0.00  0.00    +0.000 A 
ATOM      4  C   UNL     1       3.466   4.890  17.413  0.00  0.00    +0.000 A 
ATOM      5  C   UNL     1       4.287   4.035  16.665  0.00  0.00    +0.000 A 
ATOM      6  C   UNL     1       5.471   4.504  16.098  0.00  0.00    +0.000 A 
ATOM      7  C   UNL     1       5.864   5.819  16.335  0.00  0.00    +0.000 A 
ATOM      8  C   UNL     1       5.044   6.671  17.083  0.00  0.00    +0.000 A 
BRANCH   6   9
ATOM      9  O   UNL     1       6.182   3.599  15.359  0.00  0.00    +0.000 OA
ATOM     10  C   UNL     1       6.252   3.888  13.964  0.00  0.00    +0.000 C 
ENDBRANCH   6   9
ENDBRANCH   2   3
BRANCH   1  11
ATOM     11  C   UNL     1       1.595   8.126  20.181  0.00  0.00    +0.000 C 
ATOM     12  O   UNL     1       1.269   8.030  21.360  0.00  0.00    +0.000 OA
ATOM     13  N   UNL     1       1.254   9.172  19.338  0.00  0.00    +0.000 N 
ATOM     14  H   UNL     1       1.512   9.096  18.364  0.00  0.00    +0.000 HD
BRANCH  13  15
ATOM     15  C   UNL     1       0.453  10.291  19.689  0.00  0.00    +0.000 A 
ATOM     16  C   UNL     1       0.836  11.253  20.628  0.00  0.00    +0.000 A 
ATOM     17  C   UNL     1      -0.024  12.294  20.995  0.00  0.00    +0.000 A 
ATOM     18  C   UNL     1      -1.282  12.392  20.416  0.00  0.00    +0.000 A 
ATOM     19  C   UNL     1      -1.669  11.462  19.452  0.00  0.00    +0.000 A 
ATOM     20  C   UNL     1      -0.806  10.420  19.085  0.00  0.00    +0.000 A 
ENDBRANCH  13  15
ENDBRANCH   1  11
BRANCH   1  22
ATOM     21  C   UNL     1       1.717   4.915  20.560  0.00  0.00    +0.000 C 
ATOM     22  O   UNL     1       2.736   5.874  20.307  0.00  0.00    +0.000 OA
ENDBRANCH   1  22
TORSDOF 5
ENDMDL
MODEL 5
REMARK VINA RESULT:      -6.5      1.933      8.174
REMARK  Name = 
REMARK  7 active torsions:
REMARK  status: ('A' for Active; 'I' for Inactive)
REMARK    1  A    between atoms: C_1  and  O_2
REMARK    2  A    between atoms: O_2  and  C_3
REMARK    3  A    between atoms: C_3  and  C_13
REMARK    4  A    between atoms: C_4  and  C_5
REMARK    5  A    between atoms: C_8  and  O_9
REMARK    6  A    between atoms: O_9  and  C_10
REMARK    7  A    between atoms: N_15  and  C_16
REMARK                            x       y       z     vdW  Elec       q    Type
REMARK                         _______ _______ _______ _____ _____    ______ ____
ROOT
ATOM      1  C   UNL     1       2.914   5.916  19.490  0.00  0.00    +0.000 C 
ATOM      2  C   UNL     1       3.119   6.352  18.230  0.00  0.00    +0.000 C 
ENDROOT
BRANCH   2   3
ATOM      3  C   UNL     1       4.207   5.928  17.320  0.00  0.00    +0.000 A 
ATOM      4  C   UNL     1       5.335   6.745  17.170  0.00  0.00    +0.000 A 
ATOM      5  C   UNL     1       6.435   6.315  16.414  0.00  0.00    +0.000 A 
ATOM      6  C   UNL     1       6.439   5.054  15.821  0.00  0.00    +0.000 A 
ATOM      7  C   UNL     1       5.311   4.245  15.934  0.00  0.00    +0.000 A 
ATOM      8  C   UNL     1       4.213   4.676  16.688  0.00  0.00    +0.000 A 
BRANCH   6   9
ATOM      9  O   UNL     1       7.574   4.718  15.135  0.00  0.00    +0.000 OA
ATOM     10  C   UNL     1       7.510   4.935  13.727  0.00  0.00    +0.000 C 
ENDBRANCH   6   9
ENDBRANCH   2   3
BRANCH   1  11
ATOM     11  C   UNL     1       1.884   6.610  20.363  0.00  0.00    +0.000 C 
ATOM     12  O   UNL     1       1.068   5.919  20.966  0.00  0.00    +0.000 OA
ATOM     13  N   UNL     1       1.916   7.995  20.362  0.00  0.00    +0.000 N 
ATOM     14  H   UNL     1       2.585   8.452  19.759  0.00  0.00    +0.000 HD
BRANCH  13  15
ATOM     15  C   UNL     1       0.998   8.845  21.037  0.00  0.00    +0.000 A 
ATOM     16  C   UNL     1       0.180   9.772  20.386  0.00  0.00    +0.000 A 
ATOM     17  C   UNL     1      -0.650  10.639  21.106  0.00  0.00    +0.000 A 
ATOM     18  C   UNL     1      -0.679  10.583  22.492  0.00  0.00    +0.000 A 
ATOM     19  C   UNL     1       0.103   9.640  23.157  0.00  0.00    +0.000 A 
ATOM     20  C   UNL     1       0.935   8.771  22.436  0.00  0.00    +0.000 A 
ENDBRANCH  13  15
ENDBRANCH   1  11
BRANCH   1  22
ATOM     21  C   UNL     1       3.284   3.612  20.056  0.00  0.00    +0.000 C 
ATOM     22  O   UNL     1       3.761   4.951  20.028  0.00  0.00    +0.000 OA
ENDBRANCH   1  22
TORSDOF 5
ENDMDL
MODEL 6
REMARK VINA RESULT:      -6.5      2.067      8.143
REMARK  Name = 
REMARK  7 active torsions:
REMARK  status: ('A' for Active; 'I' for Inactive)
REMARK    1  A    between atoms: C_1  and  O_2
REMARK    2  A    between atoms: O_2  and  C_3
REMARK    3  A    between atoms: C_3  and  C_13
REMARK    4  A    between atoms: C_4  and  C_5
REMARK    5  A    between atoms: C_8  and  O_9
REMARK    6  A    between atoms: O_9  and  C_10
REMARK    7  A    between atoms: N_15  and  C_16
REMARK                            x       y       z     vdW  Elec       q    Type
REMARK                         _______ _______ _______ _____ _____    ______ ____
ROOT
ATOM      1  C   UNL     1       2.354   7.018  19.604  0.00  0.00    +0.000 C 
ATOM      2  C   UNL     1       2.781   7.121  18.330  0.00  0.00    +0.000 C 
ENDROOT
BRANCH   2   3
ATOM      3  C   UNL     1       3.732   6.216  17.646  0.00  0.00    +0.000 A 
ATOM      4  C   UNL     1       3.399   4.866  17.482  0.00  0.00    +0.000 A 
ATOM      5  C   UNL     1       4.219   4.011  16.731  0.00  0.00    +0.000 A 
ATOM      6  C   UNL     1       5.368   4.497  16.109  0.00  0.00    +0.000 A 
ATOM      7  C   UNL     1       5.729   5.829  16.291  0.00  0.00    +0.000 A 
ATOM      8  C   UNL     1       4.910   6.681  17.042  0.00  0.00    +0.000 A 
BRANCH   6   9
ATOM      9  O   UNL     1       6.080   3.590  15.372  0.00  0.00    +0.000 OA
ATOM     10  C   UNL     1       6.250   3.934  13.999  0.00  0.00    +0.000 C 
ENDBRANCH   6   9
ENDBRANCH   2   3
BRANCH   1  11
ATOM     11  C   UNL     1       1.549   8.150  20.218  0.00  0.00    +0.000 C 
ATOM     12  O   UNL     1       1.211   8.057  21.394  0.00  0.00    +0.000 OA
ATOM     13  N   UNL     1       1.209   9.189  19.366  0.00  0.00    +0.000 N 
ATOM     14  H   UNL     1       1.477   9.111  18.396  0.00  0.00    +0.000 HD
BRANCH  13  15
ATOM     15  C   UNL     1       0.395  10.303  19.704  0.00  0.00    +0.000 A 
ATOM     16  C   UNL     1      -0.930  10.450  19.282  0.00  0.00    +0.000 A 
ATOM     17  C   UNL     1      -1.663  11.604  19.579  0.00  0.00    +0.000 A 
ATOM     18  C   UNL     1      -1.080  12.628  20.312  0.00  0.00    +0.000 A 
ATOM     19  C   UNL     1       0.228  12.486  20.771  0.00  0.00    +0.000 A 
ATOM     20  C   UNL     1       0.962  11.328  20.474  0.00  0.00    +0.000 A 
ENDBRANCH  13  15
ENDBRANCH   1  11
BRANCH   1  22
ATOM     21  C   UNL     1       1.857   4.925  20.672  0.00  0.00    +0.000 C 
ATOM     22  O   UNL     1       2.794   5.957  20.392  0.00  0.00    +0.000 OA
ENDBRANCH   1  22
TORSDOF 5
ENDMDL
MODEL 7
REMARK VINA RESULT:      -6.4      4.660      6.987
REMARK  Name = 
REMARK  7 active torsions:
REMARK  status: ('A' for Active; 'I' for Inactive)
REMARK    1  A    between atoms: C_1  and  O_2
REMARK    2  A    between atoms: O_2  and  C_3
REMARK    3  A    between atoms: C_3  and  C_13
REMARK    4  A    between atoms: C_4  and  C_5
REMARK    5  A    between atoms: C_8  and  O_9
REMARK    6  A    between atoms: O_9  and  C_10
REMARK    7  A    between atoms: N_15  and  C_16
REMARK                            x       y       z     vdW  Elec       q    Type
REMARK                         _______ _______ _______ _____ _____    ______ ____
ROOT
ATOM      1  C   UNL     1       6.562   6.628  17.561  0.00  0.00    +0.000 C 
ATOM      2  C   UNL     1       5.698   6.117  18.460  0.00  0.00    +0.000 C 
ENDROOT
BRANCH   2   3
ATOM      3  C   UNL     1       4.456   5.368  18.158  0.00  0.00    +0.000 A 
ATOM      4  C   UNL     1       4.490   3.969  18.115  0.00  0.00    +0.000 A 
ATOM      5  C   UNL     1       3.311   3.228  17.956  0.00  0.00    +0.000 A 
ATOM      6  C   UNL     1       2.076   3.871  17.866  0.00  0.00    +0.000 A 
ATOM      7  C   UNL     1       2.032   5.262  17.873  0.00  0.00    +0.000 A 
ATOM      8  C   UNL     1       3.210   6.000  18.031  0.00  0.00    +0.000 A 
BRANCH   6   9
ATOM      9  O   UNL     1       0.984   3.056  17.746  0.00  0.00    +0.000 OA
ATOM     10  C   UNL     1       0.780   2.162  18.838  0.00  0.00    +0.000 C 
ENDBRANCH   6   9
ENDBRANCH   2   3
BRANCH   1  11
ATOM     11  C   UNL     1       7.670   7.554  18.031  0.00  0.00    +0.000 C 
ATOM     12  O   UNL     1       8.582   7.082  18.703  0.00  0.00    +0.000 OA
ATOM     13  N   UNL     1       7.526   8.894  17.704  0.00  0.00    +0.000 N 
ATOM     14  H   UNL     1       6.687   9.173  17.216  0.00  0.00    +0.000 HD
BRANCH  13  15
ATOM     15  C   UNL     1       8.394   9.943  18.109  0.00  0.00    +0.000 A 
ATOM     16  C   UNL     1       9.309   9.828  19.159  0.00  0.00    +0.000 A 
ATOM     17  C   UNL     1      10.087  10.917  19.567  0.00  0.00    +0.000 A 
ATOM     18  C   UNL     1       9.965  12.139  18.921  0.00  0.00    +0.000 A 
ATOM     19  C   UNL     1       9.083  12.264  17.849  0.00  0.00    +0.000 A 
ATOM     20  C   UNL     1       8.304  11.172  17.439  0.00  0.00    +0.000 A 
ENDBRANCH  13  15
ENDBRANCH   1  11
BRANCH   1  22
ATOM     21  C   UNL     1       6.907   5.285  15.601  0.00  0.00    +0.000 C 
ATOM     22  O   UNL     1       6.331   6.438  16.202  0.00  0.00    +0.000 OA
ENDBRANCH   1  22
TORSDOF 5
ENDMDL
MODEL 8
REMARK VINA RESULT:      -6.4      4.634      7.084
REMARK  Name = 
REMARK  7 active torsions:
REMARK  status: ('A' for Active; 'I' for Inactive)
REMARK    1  A    between atoms: C_1  and  O_2
REMARK    2  A    between atoms: O_2  and  C_3
REMARK    3  A    between atoms: C_3  and  C_13
REMARK    4  A    between atoms: C_4  and  C_5
REMARK    5  A    between atoms: C_8  and  O_9
REMARK    6  A    between atoms: O_9  and  C_10
REMARK    7  A    between atoms: N_15  and  C_16
REMARK                            x       y       z     vdW  Elec       q    Type
REMARK                         _______ _______ _______ _____ _____    ______ ____
ROOT
ATOM      1  C   UNL     1       6.722   6.719  17.691  0.00  0.00    +0.000 C 
ATOM      2  C   UNL     1       5.881   6.124  18.560  0.00  0.00    +0.000 C 
ENDROOT
BRANCH   2   3
ATOM      3  C   UNL     1       4.612   5.438  18.225  0.00  0.00    +0.000 A 
ATOM      4  C   UNL     1       4.582   4.040  18.160  0.00  0.00    +0.000 A 
ATOM      5  C   UNL     1       3.373   3.357  17.969  0.00  0.00    +0.000 A 
ATOM      6  C   UNL     1       2.171   4.057  17.868  0.00  0.00    +0.000 A 
ATOM      7  C   UNL     1       2.190   5.448  17.898  0.00  0.00    +0.000 A 
ATOM      8  C   UNL     1       3.398   6.129  18.087  0.00  0.00    +0.000 A 
BRANCH   6   9
ATOM      9  O   UNL     1       1.045   3.295  17.717  0.00  0.00    +0.000 OA
ATOM     10  C   UNL     1       0.822   2.341  18.754  0.00  0.00    +0.000 C 
ENDBRANCH   6   9
ENDBRANCH   2   3
BRANCH   1  11
ATOM     11  C   UNL     1       7.869   7.565  18.218  0.00  0.00    +0.000 C 
ATOM     12  O   UNL     1       8.692   7.037  18.959  0.00  0.00    +0.000 OA
ATOM     13  N   UNL     1       7.856   8.903  17.856  0.00  0.00    +0.000 N 
ATOM     14  H   UNL     1       7.077   9.236  17.307  0.00  0.00    +0.000 HD
BRANCH  13  15
ATOM     15  C   UNL     1       8.778   9.888  18.300  0.00  0.00    +0.000 A 
ATOM     16  C   UNL     1       9.518  10.700  17.436  0.00  0.00    +0.000 A 
ATOM     17  C   UNL     1      10.470  11.602  17.924  0.00  0.00    +0.000 A 
ATOM     18  C   UNL     1      10.688  11.711  19.291  0.00  0.00    +0.000 A 
ATOM     19  C   UNL     1       9.935  10.935  20.170  0.00  0.00    +0.000 A 
ATOM     20  C   UNL     1       8.980  10.032  19.680  0.00  0.00    +0.000 A 
ENDBRANCH  13  15
ENDBRANCH   1  11
BRANCH   1  22
ATOM     21  C   UNL     1       6.866   5.548  15.599  0.00  0.00    +0.000 C 
ATOM     22  O   UNL     1       6.436   6.690  16.329  0.00  0.00    +0.000 OA
ENDBRANCH   1  22
TORSDOF 5
ENDMDL
MODEL 9
REMARK VINA RESULT:      -6.3      3.426      8.078
REMARK  Name = 
REMARK  7 active torsions:
REMARK  status: ('A' for Active; 'I' for Inactive)
REMARK    1  A    between atoms: C_1  and  O_2
REMARK    2  A    between atoms: O_2  and  C_3
REMARK    3  A    between atoms: C_3  and  C_13
REMARK    4  A    between atoms: C_4  and  C_5
REMARK    5  A    between atoms: C_8  and  O_9
REMARK    6  A    between atoms: O_9  and  C_10
REMARK    7  A    between atoms: N_15  and  C_16
REMARK                            x       y       z     vdW  Elec       q    Type
REMARK                         _______ _______ _______ _____ _____    ______ ____
ROOT
ATOM      1  C   UNL     1       1.404   8.817  18.798  0.00  0.00    +0.000 C 
ATOM      2  C   UNL     1       1.918   7.957  17.896  0.00  0.00    +0.000 C 
ENDROOT
BRANCH   2   3
ATOM      3  C   UNL     1       3.050   7.027  18.114  0.00  0.00    +0.000 A 
ATOM      4  C   UNL     1       4.207   7.158  17.337  0.00  0.00    +0.000 A 
ATOM      5  C   UNL     1       5.341   6.377  17.602  0.00  0.00    +0.000 A 
ATOM      6  C   UNL     1       5.347   5.474  18.665  0.00  0.00    +0.000 A 
ATOM      7  C   UNL     1       4.193   5.310  19.425  0.00  0.00    +0.000 A 
ATOM      8  C   UNL     1       3.061   6.089  19.158  0.00  0.00    +0.000 A 
BRANCH   6   9
ATOM      9  O   UNL     1       6.514   4.786  18.859  0.00  0.00    +0.000 OA
ATOM     10  C   UNL     1       7.358   4.700  17.713  0.00  0.00    +0.000 C 
ENDBRANCH   6   9
ENDBRANCH   2   3
BRANCH   1  11
ATOM     11  C   UNL     1       0.388   9.853  18.350  0.00  0.00    +0.000 C 
ATOM     12  O   UNL     1       0.653  11.040  18.509  0.00  0.00    +0.000 OA
ATOM     13  N   UNL     1      -0.803   9.359  17.840  0.00  0.00    +0.000 N 
ATOM     14  H   UNL     1      -0.935   8.357  17.836  0.00  0.00    +0.000 HD
BRANCH  13  15
ATOM     15  C   UNL     1      -1.920  10.141  17.440  0.00  0.00    +0.000 A 
ATOM     16  C   UNL     1      -2.653  10.946  18.315  0.00  0.00    +0.000 A 
ATOM     17  C   UNL     1      -3.792  11.637  17.885  0.00  0.00    +0.000 A 
ATOM     18  C   UNL     1      -4.209  11.536  16.565  0.00  0.00    +0.000 A 
ATOM     19  C   UNL     1      -3.470  10.765  15.669  0.00  0.00    +0.000 A 
ATOM     20  C   UNL     1      -2.328  10.074  16.100  0.00  0.00    +0.000 A 
ENDBRANCH  13  15
ENDBRANCH   1  11
BRANCH   1  22
ATOM     21  C   UNL     1       1.066   8.479  21.151  0.00  0.00    +0.000 C 
ATOM     22  O   UNL     1       1.929   8.856  20.087  0.00  0.00    +0.000 OA
ENDBRANCH   1  22
TORSDOF 5
ENDMDL
