MODEL 1
REMARK VINA RESULT:      -6.7      0.000      0.000
REMARK  Name = 
REMARK  4 active torsions:
REMARK  status: ('A' for Active; 'I' for Inactive)
REMARK    1  A    between atoms: C_1  and  N_2
REMARK    2  A    between atoms: C_13  and  N_14
REMARK    3  A    between atoms: C_15  and  C_16
REMARK    4  A    between atoms: C_18  and  C_19
REMARK                            x       y       z     vdW  Elec       q    Type
REMARK                         _______ _______ _______ _____ _____    ______ ____
ROOT
ATOM      1  C   UNL     1      -4.039  13.535  20.795  0.00  0.00    +0.000 C 
ATOM      2  N   UNL     1      -4.531  12.565  19.807  0.00  0.00    +0.000 N 
ATOM      3  C   UNL     1      -5.893  12.392  19.747  0.00  0.00    +0.000 A 
ATOM      4  C   UNL     1      -6.469  11.466  18.885  0.00  0.00    +0.000 A 
ATOM      5  C   UNL     1      -5.656  10.679  18.089  0.00  0.00    +0.000 A 
ATOM      6  C   UNL     1      -4.265  10.822  18.149  0.00  0.00    +0.000 A 
ATOM      7  C   UNL     1      -3.465   9.996  17.355  0.00  0.00    +0.000 A 
ATOM      8  C   UNL     1      -2.081  10.096  17.407  0.00  0.00    +0.000 A 
ATOM      9  C   UNL     1      -1.466  11.062  18.210  0.00  0.00    +0.000 A 
ATOM     10  C   UNL     1      -2.258  11.940  18.979  0.00  0.00    +0.000 A 
ATOM     11  C   UNL     1      -3.689  11.801  19.005  0.00  0.00    +0.000 A 
ATOM     12  O   UNL     1      -1.634  12.938  19.644  0.00  0.00    +0.000 OA
ATOM     13  C   UNL     1      -0.329  13.286  19.469  0.00  0.00    +0.000 C 
ATOM     14  C   UNL     1       0.540  12.469  18.810  0.00  0.00    +0.000 C 
ATOM     15  C   UNL     1       0.053  11.171  18.207  0.00  0.00    +0.000 C 
ENDROOT
BRANCH  15  16
ATOM     16  C   UNL     1       0.680   9.974  18.866  0.00  0.00    +0.000 A 
ATOM     17  C   UNL     1       1.564   9.153  18.145  0.00  0.00    +0.000 A 
ATOM     18  C   UNL     1       2.152   8.046  18.760  0.00  0.00    +0.000 A 
ATOM     19  C   UNL     1       1.869   7.757  20.098  0.00  0.00    +0.000 A 
ATOM     20  C   UNL     1       0.994   8.573  20.821  0.00  0.00    +0.000 A 
ATOM     21  C   UNL     1       0.398   9.677  20.209  0.00  0.00    +0.000 A 
ENDBRANCH  15  16
BRANCH  13  22
ATOM     22  N   UNL     1       0.105  14.518  20.036  0.00  0.00    +0.000 N 
ATOM     23  H   UNL     1       1.105  14.666  20.229  0.00  0.00    +0.000 HD
ATOM     24  H   UNL     1      -0.539  15.300  20.226  0.00  0.00    +0.000 HD
ENDBRANCH  13  22
BRANCH  14  25
ATOM     25  C   UNL     1       1.956  12.961  18.560  0.00  0.00    +0.000 C 
ATOM     26  N   UNL     1       3.131  13.369  18.354  0.00  0.00    +0.000 NA
ENDBRANCH  14  25
TORSDOF 3
ENDMDL
MODEL 2
REMARK VINA RESULT:      -6.6      1.981      6.101
REMARK  Name = 
REMARK  4 active torsions:
REMARK  status: ('A' for Active; 'I' for Inactive)
REMARK    1  A    between atoms: C_1  and  N_2
REMARK    2  A    between atoms: C_13  and  N_14
REMARK    3  A    between atoms: C_15  and  C_16
REMARK    4  A    between atoms: C_18  and  C_19
REMARK                            x       y       z     vdW  Elec       q    Type
REMARK                         _______ _______ _______ _____ _____    ______ ____
ROOT
ATOM      1  C   UNL     1       2.971   8.177  17.540  0.00  0.00    +0.000 C 
ATOM      2  N   UNL     1       2.443   7.624  18.795  0.00  0.00    +0.000 N 
ATOM      3  C   UNL     1       2.771   6.320  19.074  0.00  0.00    +0.000 A 
ATOM      4  C   UNL     1       2.288   5.677  20.207  0.00  0.00    +0.000 A 
ATOM      5  C   UNL     1       1.436   6.353  21.063  0.00  0.00    +0.000 A 
ATOM      6  C   UNL     1       1.071   7.675  20.788  0.00  0.00    +0.000 A 
ATOM      7  C   UNL     1       0.186   8.327  21.652  0.00  0.00    +0.000 A 
ATOM      8  C   UNL     1      -0.215   9.631  21.396  0.00  0.00    +0.000 A 
ATOM      9  C   UNL     1       0.301  10.334  20.304  0.00  0.00    +0.000 A 
ATOM     10  C   UNL     1       1.235   9.712  19.450  0.00  0.00    +0.000 A 
ATOM     11  C   UNL     1       1.602   8.336  19.646  0.00  0.00    +0.000 A 
ATOM     12  O   UNL     1       1.805  10.462  18.479  0.00  0.00    +0.000 OA
ATOM     13  C   UNL     1       1.703  11.817  18.390  0.00  0.00    +0.000 C 
ATOM     14  C   UNL     1       0.777  12.507  19.114  0.00  0.00    +0.000 C 
ATOM     15  C   UNL     1      -0.128  11.779  20.081  0.00  0.00    +0.000 C 
ENDROOT
BRANCH  15  16
ATOM     16  C   UNL     1      -1.572  11.853  19.667  0.00  0.00    +0.000 A 
ATOM     17  C   UNL     1      -2.499  12.549  20.462  0.00  0.00    +0.000 A 
ATOM     18  C   UNL     1      -3.838  12.625  20.073  0.00  0.00    +0.000 A 
ATOM     19  C   UNL     1      -4.257  12.015  18.888  0.00  0.00    +0.000 A 
ATOM     20  C   UNL     1      -3.338  11.325  18.091  0.00  0.00    +0.000 A 
ATOM     21  C   UNL     1      -2.000  11.240  18.479  0.00  0.00    +0.000 A 
ENDBRANCH  15  16
BRANCH  13  22
ATOM     22  N   UNL     1       2.572  12.484  17.480  0.00  0.00    +0.000 N 
ATOM     23  H   UNL     1       2.183  12.931  16.638  0.00  0.00    +0.000 HD
ATOM     24  H   UNL     1       3.584  12.581  17.648  0.00  0.00    +0.000 HD
ENDBRANCH  13  22
BRANCH  14  25
ATOM     25  C   UNL     1       0.782  14.026  19.045  0.00  0.00    +0.000 C 
ATOM     26  N   UNL     1       0.786  15.285  18.988  0.00  0.00    +0.000 NA
ENDBRANCH  14  25
TORSDOF 3
ENDMDL
MODEL 3
REMARK VINA RESULT:      -6.6      1.950      5.978
REMARK  Name = 
REMARK  4 active torsions:
REMARK  status: ('A' for Active; 'I' for Inactive)
REMARK    1  A    between atoms: C_1  and  N_2
REMARK    2  A    between atoms: C_13  and  N_14
REMARK    3  A    between atoms: C_15  and  C_16
REMARK    4  A    between atoms: C_18  and  C_19
REMARK                            x       y       z     vdW  Elec       q    Type
REMARK                         _______ _______ _______ _____ _____    ______ ____
ROOT
ATOM      1  C   UNL     1       2.841   8.377  17.566  0.00  0.00    +0.000 C 
ATOM      2  N   UNL     1       2.332   7.819  18.826  0.00  0.00    +0.000 N 
ATOM      3  C   UNL     1       2.672   6.517  19.099  0.00  0.00    +0.000 A 
ATOM      4  C   UNL     1       2.207   5.869  20.238  0.00  0.00    +0.000 A 
ATOM      5  C   UNL     1       1.361   6.538  21.105  0.00  0.00    +0.000 A 
ATOM      6  C   UNL     1       0.984   7.858  20.837  0.00  0.00    +0.000 A 
ATOM      7  C   UNL     1       0.106   8.503  21.713  0.00  0.00    +0.000 A 
ATOM      8  C   UNL     1      -0.306   9.805  21.464  0.00  0.00    +0.000 A 
ATOM      9  C   UNL     1       0.192  10.513  20.367  0.00  0.00    +0.000 A 
ATOM     10  C   UNL     1       1.120   9.898  19.500  0.00  0.00    +0.000 A 
ATOM     11  C   UNL     1       1.497   8.524  19.689  0.00  0.00    +0.000 A 
ATOM     12  O   UNL     1       1.672  10.654  18.524  0.00  0.00    +0.000 OA
ATOM     13  C   UNL     1       1.560  12.008  18.438  0.00  0.00    +0.000 C 
ATOM     14  C   UNL     1       0.639  12.691  19.174  0.00  0.00    +0.000 C 
ATOM     15  C   UNL     1      -0.249  11.955  20.152  0.00  0.00    +0.000 C 
ENDROOT
BRANCH  15  16
ATOM     16  C   UNL     1      -1.698  12.021  19.756  0.00  0.00    +0.000 A 
ATOM     17  C   UNL     1      -2.133  11.417  18.564  0.00  0.00    +0.000 A 
ATOM     18  C   UNL     1      -3.481  11.472  18.201  0.00  0.00    +0.000 A 
ATOM     19  C   UNL     1      -4.401  12.121  19.029  0.00  0.00    +0.000 A 
ATOM     20  C   UNL     1      -3.975  12.720  20.218  0.00  0.00    +0.000 A 
ATOM     21  C   UNL     1      -2.628  12.674  20.581  0.00  0.00    +0.000 A 
ENDBRANCH  15  16
BRANCH  13  22
ATOM     22  N   UNL     1       2.414  12.682  17.519  0.00  0.00    +0.000 N 
ATOM     23  H   UNL     1       2.300  13.693  17.365  0.00  0.00    +0.000 HD
ATOM     24  H   UNL     1       3.182  12.207  17.023  0.00  0.00    +0.000 HD
ENDBRANCH  13  22
BRANCH  14  25
ATOM     25  C   UNL     1       0.633  14.209  19.108  0.00  0.00    +0.000 C 
ATOM     26  N   UNL     1       0.629  15.469  19.053  0.00  0.00    +0.000 NA
ENDBRANCH  14  25
TORSDOF 3
ENDMDL
MODEL 4
REMARK VINA RESULT:      -6.5      0.476      1.097
REMARK  Name = 
REMARK  4 active torsions:
REMARK  status: ('A' for Active; 'I' for Inactive)
REMARK    1  A    between atoms: C_1  and  N_2
REMARK    2  A    between atoms: C_13  and  N_14
REMARK    3  A    between atoms: C_15  and  C_16
REMARK    4  A    between atoms: C_18  and  C_19
REMARK                            x       y       z     vdW  Elec       q    Type
REMARK                         _______ _______ _______ _____ _____    ______ ____
ROOT
ATOM      1  C   UNL     1      -4.340  13.173  21.097  0.00  0.00    +0.000 C 
ATOM      2  N   UNL     1      -4.689  12.366  19.920  0.00  0.00    +0.000 N 
ATOM      3  C   UNL     1      -6.029  12.154  19.700  0.00  0.00    +0.000 A 
ATOM      4  C   UNL     1      -6.475  11.366  18.646  0.00  0.00    +0.000 A 
ATOM      5  C   UNL     1      -5.554  10.757  17.813  0.00  0.00    +0.000 A 
ATOM      6  C   UNL     1      -4.184  10.942  18.029  0.00  0.00    +0.000 A 
ATOM      7  C   UNL     1      -3.272  10.294  17.191  0.00  0.00    +0.000 A 
ATOM      8  C   UNL     1      -1.906  10.437  17.392  0.00  0.00    +0.000 A 
ATOM      9  C   UNL     1      -1.418  11.275  18.399  0.00  0.00    +0.000 A 
ATOM     10  C   UNL     1      -2.321  11.979  19.222  0.00  0.00    +0.000 A 
ATOM     11  C   UNL     1      -3.739  11.783  19.087  0.00  0.00    +0.000 A 
ATOM     12  O   UNL     1      -1.814  12.873  20.101  0.00  0.00    +0.000 OA
ATOM     13  C   UNL     1      -0.519  13.296  20.112  0.00  0.00    +0.000 C 
ATOM     14  C   UNL     1       0.447  12.637  19.414  0.00  0.00    +0.000 C 
ATOM     15  C   UNL     1       0.088  11.442  18.561  0.00  0.00    +0.000 C 
ENDROOT
BRANCH  15  16
ATOM     16  C   UNL     1       0.718  10.175  19.070  0.00  0.00    +0.000 A 
ATOM     17  C   UNL     1       0.492   9.757  20.392  0.00  0.00    +0.000 A 
ATOM     18  C   UNL     1       1.071   8.576  20.862  0.00  0.00    +0.000 A 
ATOM     19  C   UNL     1       1.870   7.804  20.015  0.00  0.00    +0.000 A 
ATOM     20  C   UNL     1       2.095   8.213  18.697  0.00  0.00    +0.000 A 
ATOM     21  C   UNL     1       1.524   9.397  18.225  0.00  0.00    +0.000 A 
ENDBRANCH  15  16
BRANCH  13  22
ATOM     22  N   UNL     1      -0.205  14.430  20.914  0.00  0.00    +0.000 N 
ATOM     23  H   UNL     1      -0.032  14.309  21.921  0.00  0.00    +0.000 HD
ATOM     24  H   UNL     1      -0.096  15.376  20.521  0.00  0.00    +0.000 HD
ENDBRANCH  13  22
BRANCH  14  25
ATOM     25  C   UNL     1       1.852  13.218  19.387  0.00  0.00    +0.000 C 
ATOM     26  N   UNL     1       3.016  13.700  19.364  0.00  0.00    +0.000 NA
ENDBRANCH  14  25
TORSDOF 3
ENDMDL
MODEL 5
REMARK VINA RESULT:      -6.4      1.222      1.259
REMARK  Name = 
REMARK  4 active torsions:
REMARK  status: ('A' for Active; 'I' for Inactive)
REMARK    1  A    between atoms: C_1  and  N_2
REMARK    2  A    between atoms: C_13  and  N_14
REMARK    3  A    between atoms: C_15  and  C_16
REMARK    4  A    between atoms: C_18  and  C_19
REMARK                            x       y       z     vdW  Elec       q    Type
REMARK                         _______ _______ _______ _____ _____    ______ ____
ROOT
ATOM      1  C   UNL     1      -4.810  12.909  21.291  0.00  0.00    +0.000 C 
ATOM      2  N   UNL     1      -4.910  12.397  19.917  0.00  0.00    +0.000 N 
ATOM      3  C   UNL     1      -6.177  12.277  19.400  0.00  0.00    +0.000 A 
ATOM      4  C   UNL     1      -6.396  11.758  18.130  0.00  0.00    +0.000 A 
ATOM      5  C   UNL     1      -5.319  11.326  17.375  0.00  0.00    +0.000 A 
ATOM      6  C   UNL     1      -4.021  11.419  17.889  0.00  0.00    +0.000 A 
ATOM      7  C   UNL     1      -2.953  10.950  17.120  0.00  0.00    +0.000 A 
ATOM      8  C   UNL     1      -1.655  11.006  17.609  0.00  0.00    +0.000 A 
ATOM      9  C   UNL     1      -1.386  11.583  18.854  0.00  0.00    +0.000 A 
ATOM     10  C   UNL     1      -2.445  12.110  19.623  0.00  0.00    +0.000 A 
ATOM     11  C   UNL     1      -3.805  11.988  19.175  0.00  0.00    +0.000 A 
ATOM     12  O   UNL     1      -2.134  12.769  20.762  0.00  0.00    +0.000 OA
ATOM     13  C   UNL     1      -0.873  13.142  21.119  0.00  0.00    +0.000 C 
ATOM     14  C   UNL     1       0.222  12.629  20.491  0.00  0.00    +0.000 C 
ATOM     15  C   UNL     1       0.055  11.667  19.338  0.00  0.00    +0.000 C 
ENDROOT
BRANCH  15  16
ATOM     16  C   UNL     1       0.595  10.301  19.661  0.00  0.00    +0.000 A 
ATOM     17  C   UNL     1       1.406   9.624  18.733  0.00  0.00    +0.000 A 
ATOM     18  C   UNL     1       1.913   8.360  19.037  0.00  0.00    +0.000 A 
ATOM     19  C   UNL     1       1.622   7.767  20.269  0.00  0.00    +0.000 A 
ATOM     20  C   UNL     1       0.819   8.437  21.197  0.00  0.00    +0.000 A 
ATOM     21  C   UNL     1       0.304   9.699  20.895  0.00  0.00    +0.000 A 
ENDBRANCH  15  16
BRANCH  13  22
ATOM     22  N   UNL     1      -0.740  14.058  22.201  0.00  0.00    +0.000 N 
ATOM     23  H   UNL     1      -1.087  15.022  22.099  0.00  0.00    +0.000 HD
ATOM     24  H   UNL     1      -0.347  13.786  23.114  0.00  0.00    +0.000 HD
ENDBRANCH  13  22
BRANCH  14  25
ATOM     25  C   UNL     1       1.595  13.162  20.869  0.00  0.00    +0.000 C 
ATOM     26  N   UNL     1       2.733  13.605  21.182  0.00  0.00    +0.000 NA
ENDBRANCH  14  25
TORSDOF 3
ENDMDL
MODEL 6
REMARK VINA RESULT:      -6.2      2.844      6.363
REMARK  Name = 
REMARK  4 active torsions:
REMARK  status: ('A' for Active; 'I' for Inactive)
REMARK    1  A    between atoms: C_1  and  N_2
REMARK    2  A    between atoms: C_13  and  N_14
REMARK    3  A    between atoms: C_15  and  C_16
REMARK    4  A    between atoms: C_18  and  C_19
REMARK                            x       y       z     vdW  Elec       q    Type
REMARK                         _______ _______ _______ _____ _____    ______ ____
ROOT
ATOM      1  C   UNL     1       1.275  11.610  18.726  0.00  0.00    +0.000 C 
ATOM      2  N   UNL     1       1.135  10.453  19.620  0.00  0.00    +0.000 N 
ATOM      3  C   UNL     1       1.660   9.266  19.170  0.00  0.00    +0.000 A 
ATOM      4  C   UNL     1       1.543   8.094  19.908  0.00  0.00    +0.000 A 
ATOM      5  C   UNL     1       0.861   8.112  21.112  0.00  0.00    +0.000 A 
ATOM      6  C   UNL     1       0.299   9.305  21.581  0.00  0.00    +0.000 A 
ATOM      7  C   UNL     1      -0.410   9.292  22.785  0.00  0.00    +0.000 A 
ATOM      8  C   UNL     1      -0.999  10.453  23.268  0.00  0.00    +0.000 A 
ATOM      9  C   UNL     1      -0.846  11.665  22.589  0.00  0.00    +0.000 A 
ATOM     10  C   UNL     1      -0.091  11.710  21.398  0.00  0.00    +0.000 A 
ATOM     11  C   UNL     1       0.459  10.507  20.836  0.00  0.00    +0.000 A 
ATOM     12  O   UNL     1       0.139  12.919  20.838  0.00  0.00    +0.000 OA
ATOM     13  C   UNL     1      -0.128  14.112  21.439  0.00  0.00    +0.000 C 
ATOM     14  C   UNL     1      -0.915  14.186  22.548  0.00  0.00    +0.000 C 
ATOM     15  C   UNL     1      -1.470  12.926  23.172  0.00  0.00    +0.000 C 
ENDROOT
BRANCH  15  16
ATOM     16  C   UNL     1      -2.971  12.872  23.092  0.00  0.00    +0.000 A 
ATOM     17  C   UNL     1      -3.611  12.852  21.841  0.00  0.00    +0.000 A 
ATOM     18  C   UNL     1      -5.004  12.793  21.768  0.00  0.00    +0.000 A 
ATOM     19  C   UNL     1      -5.765  12.744  22.939  0.00  0.00    +0.000 A 
ATOM     20  C   UNL     1      -5.133  12.760  24.186  0.00  0.00    +0.000 A 
ATOM     21  C   UNL     1      -3.741  12.826  24.265  0.00  0.00    +0.000 A 
ENDBRANCH  15  16
BRANCH  13  22
ATOM     22  N   UNL     1       0.414  15.285  20.840  0.00  0.00    +0.000 N 
ATOM     23  H   UNL     1       1.170  15.797  21.315  0.00  0.00    +0.000 HD
ATOM     24  H   UNL     1       0.112  15.628  19.917  0.00  0.00    +0.000 HD
ENDBRANCH  13  22
BRANCH  14  25
ATOM     25  C   UNL     1      -1.090  15.535  23.229  0.00  0.00    +0.000 C 
ATOM     26  N   UNL     1      -1.235  16.652  23.792  0.00  0.00    +0.000 NA
ENDBRANCH  14  25
TORSDOF 3
ENDMDL
MODEL 7
REMARK VINA RESULT:      -6.2      1.821      2.481
REMARK  Name = 
REMARK  4 active torsions:
REMARK  status: ('A' for Active; 'I' for Inactive)
REMARK    1  A    between atoms: C_1  and  N_2
REMARK    2  A    between atoms: C_13  and  N_14
REMARK    3  A    between atoms: C_15  and  C_16
REMARK    4  A    between atoms: C_18  and  C_19
REMARK                            x       y       z     vdW  Elec       q    Type
REMARK                         _______ _______ _______ _____ _____    ______ ____
ROOT
ATOM      1  C   UNL     1      -5.907  13.474  21.564  0.00  0.00    +0.000 C 
ATOM      2  N   UNL     1      -5.846  12.834  20.243  0.00  0.00    +0.000 N 
ATOM      3  C   UNL     1      -7.048  12.603  19.619  0.00  0.00    +0.000 A 
ATOM      4  C   UNL     1      -7.116  11.960  18.389  0.00  0.00    +0.000 A 
ATOM      5  C   UNL     1      -5.952  11.516  17.787  0.00  0.00    +0.000 A 
ATOM      6  C   UNL     1      -4.717  11.721  18.413  0.00  0.00    +0.000 A 
ATOM      7  C   UNL     1      -3.558  11.238  17.799  0.00  0.00    +0.000 A 
ATOM      8  C   UNL     1      -2.319  11.404  18.404  0.00  0.00    +0.000 A 
ATOM      9  C   UNL     1      -2.202  12.105  19.608  0.00  0.00    +0.000 A 
ATOM     10  C   UNL     1      -3.354  12.646  20.218  0.00  0.00    +0.000 A 
ATOM     11  C   UNL     1      -4.656  12.416  19.653  0.00  0.00    +0.000 A 
ATOM     12  O   UNL     1      -3.187  13.422  21.312  0.00  0.00    +0.000 OA
ATOM     13  C   UNL     1      -1.985  13.889  21.752  0.00  0.00    +0.000 C 
ATOM     14  C   UNL     1      -0.812  13.376  21.285  0.00  0.00    +0.000 C 
ATOM     15  C   UNL     1      -0.821  12.305  20.219  0.00  0.00    +0.000 C 
ENDROOT
BRANCH  15  16
ATOM     16  C   UNL     1      -0.262  11.004  20.722  0.00  0.00    +0.000 A 
ATOM     17  C   UNL     1      -0.622  10.524  21.993  0.00  0.00    +0.000 A 
ATOM     18  C   UNL     1      -0.108   9.311  22.457  0.00  0.00    +0.000 A 
ATOM     19  C   UNL     1       0.760   8.567  21.653  0.00  0.00    +0.000 A 
ATOM     20  C   UNL     1       1.119   9.038  20.386  0.00  0.00    +0.000 A 
ATOM     21  C   UNL     1       0.613  10.253  19.921  0.00  0.00    +0.000 A 
ENDBRANCH  15  16
BRANCH  13  22
ATOM     22  N   UNL     1      -2.000  14.905  22.749  0.00  0.00    +0.000 N 
ATOM     23  H   UNL     1      -2.853  15.463  22.896  0.00  0.00    +0.000 HD
ATOM     24  H   UNL     1      -1.200  15.083  23.373  0.00  0.00    +0.000 HD
ENDBRANCH  13  22
BRANCH  14  25
ATOM     25  C   UNL     1       0.492  14.010  21.741  0.00  0.00    +0.000 C 
ATOM     26  N   UNL     1       1.574  14.536  22.119  0.00  0.00    +0.000 NA
ENDBRANCH  14  25
TORSDOF 3
ENDMDL
MODEL 8
REMARK VINA RESULT:      -6.1      2.744      3.733
REMARK  Name = 
REMARK  4 active torsions:
REMARK  status: ('A' for Active; 'I' for Inactive)
REMARK    1  A    between atoms: C_1  and  N_2
REMARK    2  A    between atoms: C_13  and  N_14
REMARK    3  A    between atoms: C_15  and  C_16
REMARK    4  A    between atoms: C_18  and  C_19
REMARK                            x       y       z     vdW  Elec       q    Type
REMARK                         _______ _______ _______ _____ _____    ______ ____
ROOT
ATOM      1  C   UNL     1      -6.950  12.588  21.382  0.00  0.00    +0.000 C 
ATOM      2  N   UNL     1      -6.401  12.267  20.057  0.00  0.00    +0.000 N 
ATOM      3  C   UNL     1      -7.308  11.909  19.090  0.00  0.00    +0.000 A 
ATOM      4  C   UNL     1      -6.900  11.538  17.814  0.00  0.00    +0.000 A 
ATOM      5  C   UNL     1      -5.549  11.500  17.515  0.00  0.00    +0.000 A 
ATOM      6  C   UNL     1      -4.605  11.840  18.491  0.00  0.00    +0.000 A 
ATOM      7  C   UNL     1      -3.246  11.766  18.173  0.00  0.00    +0.000 A 
ATOM      8  C   UNL     1      -2.283  12.075  19.125  0.00  0.00    +0.000 A 
ATOM      9  C   UNL     1      -2.655  12.518  20.397  0.00  0.00    +0.000 A 
ATOM     10  C   UNL     1      -4.022  12.649  20.721  0.00  0.00    +0.000 A 
ATOM     11  C   UNL     1      -5.037  12.257  19.781  0.00  0.00    +0.000 A 
ATOM     12  O   UNL     1      -4.341  13.197  21.916  0.00  0.00    +0.000 OA
ATOM     13  C   UNL     1      -3.455  13.818  22.742  0.00  0.00    +0.000 C 
ATOM     14  C   UNL     1      -2.110  13.689  22.564  0.00  0.00    +0.000 C 
ATOM     15  C   UNL     1      -1.570  12.889  21.400  0.00  0.00    +0.000 C 
ENDROOT
BRANCH  15  16
ATOM     16  C   UNL     1      -0.817  11.670  21.855  0.00  0.00    +0.000 A 
ATOM     17  C   UNL     1      -1.278  10.925  22.954  0.00  0.00    +0.000 A 
ATOM     18  C   UNL     1      -0.583   9.788  23.371  0.00  0.00    +0.000 A 
ATOM     19  C   UNL     1       0.569   9.384  22.690  0.00  0.00    +0.000 A 
ATOM     20  C   UNL     1       1.029  10.119  21.594  0.00  0.00    +0.000 A 
ATOM     21  C   UNL     1       0.342  11.260  21.177  0.00  0.00    +0.000 A 
ENDBRANCH  15  16
BRANCH  13  22
ATOM     22  N   UNL     1      -3.985  14.575  23.825  0.00  0.00    +0.000 N 
ATOM     23  H   UNL     1      -3.418  15.321  24.251  0.00  0.00    +0.000 HD
ATOM     24  H   UNL     1      -4.942  14.439  24.182  0.00  0.00    +0.000 HD
ENDBRANCH  13  22
BRANCH  14  25
ATOM     25  C   UNL     1      -1.176  14.489  23.459  0.00  0.00    +0.000 C 
ATOM     26  N   UNL     1      -0.402  15.152  24.200  0.00  0.00    +0.000 NA
ENDBRANCH  14  25
TORSDOF 3
ENDMDL
MODEL 9
REMARK VINA RESULT:      -6.1      2.368      6.378
REMARK  Name = 
REMARK  4 active torsions:
REMARK  status: ('A' for Active; 'I' for Inactive)
REMARK    1  A    between atoms: C_1  and  N_2
REMARK    2  A    between atoms: C_13  and  N_14
REMARK    3  A    between atoms: C_15  and  C_16
REMARK    4  A    between atoms: C_18  and  C_19
REMARK                            x       y       z     vdW  Elec       q    Type
REMARK                         _______ _______ _______ _____ _____    ______ ____
ROOT
ATOM      1  C   UNL     1       0.676  10.832  18.422  0.00  0.00    +0.000 C 
ATOM      2  N   UNL     1       0.682  10.120  19.708  0.00  0.00    +0.000 N 
ATOM      3  C   UNL     1       1.378   8.937  19.748  0.00  0.00    +0.000 A 
ATOM      4  C   UNL     1       1.412   8.154  20.896  0.00  0.00    +0.000 A 
ATOM      5  C   UNL     1       0.709   8.558  22.017  0.00  0.00    +0.000 A 
ATOM      6  C   UNL     1      -0.024   9.749  21.993  0.00  0.00    +0.000 A 
ATOM      7  C   UNL     1      -0.749  10.121  23.129  0.00  0.00    +0.000 A 
ATOM      8  C   UNL     1      -1.506  11.286  23.131  0.00  0.00    +0.000 A 
ATOM      9  C   UNL     1      -1.512  12.134  22.019  0.00  0.00    +0.000 A 
ATOM     10  C   UNL     1      -0.745  11.802  20.882  0.00  0.00    +0.000 A 
ATOM     11  C   UNL     1      -0.020  10.562  20.825  0.00  0.00    +0.000 A 
ATOM     12  O   UNL     1      -0.677  12.706  19.878  0.00  0.00    +0.000 OA
ATOM     13  C   UNL     1      -1.121  13.990  19.964  0.00  0.00    +0.000 C 
ATOM     14  C   UNL     1      -1.934  14.393  20.980  0.00  0.00    +0.000 C 
ATOM     15  C   UNL     1      -2.319  13.424  22.075  0.00  0.00    +0.000 C 
ENDROOT
BRANCH  15  16
ATOM     16  C   UNL     1      -3.794  13.137  22.080  0.00  0.00    +0.000 A 
ATOM     17  C   UNL     1      -4.548  13.334  23.249  0.00  0.00    +0.000 A 
ATOM     18  C   UNL     1      -5.921  13.074  23.251  0.00  0.00    +0.000 A 
ATOM     19  C   UNL     1      -6.548  12.625  22.086  0.00  0.00    +0.000 A 
ATOM     20  C   UNL     1      -5.804  12.431  20.919  0.00  0.00    +0.000 A 
ATOM     21  C   UNL     1      -4.431  12.683  20.914  0.00  0.00    +0.000 A 
ENDBRANCH  15  16
BRANCH  13  22
ATOM     22  N   UNL     1      -0.738  14.888  18.927  0.00  0.00    +0.000 N 
ATOM     23  H   UNL     1       0.252  14.957  18.652  0.00  0.00    +0.000 HD
ATOM     24  H   UNL     1      -1.420  15.451  18.399  0.00  0.00    +0.000 HD
ENDBRANCH  13  22
BRANCH  14  25
ATOM     25  C   UNL     1      -2.311  15.863  21.073  0.00  0.00    +0.000 C 
ATOM     26  N   UNL     1      -2.624  17.081  21.150  0.00  0.00    +0.000 NA
ENDBRANCH  14  25
TORSDOF 3
ENDMDL
