MODEL 1
REMARK VINA RESULT:      -8.5      0.000      0.000
REMARK  Name = 
REMARK  8 active torsions:
REMARK  status: ('A' for Active; 'I' for Inactive)
REMARK    1  A    between atoms: C_1  and  C_2
REMARK    2  A    between atoms: C_3  and  C_4
REMARK    3  A    between atoms: C_9  and  C_10
REMARK    4  A    between atoms: C_19  and  C_20
REMARK    5  A    between atoms: N_22  and  C_23
REMARK    6  A    between atoms: C_23  and  C_24
REMARK    7  A    between atoms: C_23  and  C_25
REMARK    8  A    between atoms: N_28  and  C_29
REMARK                            x       y       z     vdW  Elec       q    Type
REMARK                         _______ _______ _______ _____ _____    ______ ____
ROOT
ATOM      1  C   UNL     1       3.377   7.618  17.550  0.00  0.00    +0.000 C 
ATOM      2  C   UNL     1       3.758   6.508  18.472  0.00  0.00    +0.000 A 
ATOM      3  C   UNL     1       4.891   5.631  18.320  0.00  0.00    +0.000 A 
ATOM      4  C   UNL     1       4.878   4.759  19.387  0.00  0.00    +0.000 A 
ATOM      5  N   UNL     1       3.799   5.054  20.163  0.00  0.00    +0.000 N 
ATOM      6  C   UNL     1       3.089   6.119  19.640  0.00  0.00    +0.000 A 
ATOM      7  H   UNL     1       3.535   4.584  21.020  0.00  0.00    +0.000 HD
ENDROOT
BRANCH   3   8
ATOM      8  C   UNL     1       5.894   5.672  17.242  0.00  0.00    +0.000 A 
ATOM      9  N   UNL     1       7.059   6.323  17.357  0.00  0.00    +0.000 NA
ATOM     10  N   UNL     1       7.665   6.115  16.181  0.00  0.00    +0.000 N 
ATOM     11  C   UNL     1       6.957   5.331  15.313  0.00  0.00    +0.000 A 
ATOM     12  C   UNL     1       7.255   4.877  14.022  0.00  0.00    +0.000 A 
ATOM     13  C   UNL     1       6.303   4.067  13.377  0.00  0.00    +0.000 A 
ATOM     14  C   UNL     1       5.099   3.753  14.025  0.00  0.00    +0.000 A 
ATOM     15  C   UNL     1       4.819   4.230  15.313  0.00  0.00    +0.000 A 
ATOM     16  C   UNL     1       5.773   5.023  15.978  0.00  0.00    +0.000 A 
ATOM     17  H   UNL     1       8.574   6.537  16.032  0.00  0.00    +0.000 HD
BRANCH  13  18
ATOM     18  C   UNL     1       6.563   3.527  11.990  0.00  0.00    +0.000 C 
ATOM     19  F   UNL     1       5.427   3.213  11.307  0.00  0.00    +0.000 F 
ATOM     20  F   UNL     1       7.238   4.412  11.205  0.00  0.00    +0.000 F 
ATOM     21  F   UNL     1       7.315   2.391  12.005  0.00  0.00    +0.000 F 
ENDBRANCH  13  18
ENDBRANCH   3   8
BRANCH   6  22
ATOM     22  C   UNL     1       1.908   6.590  20.356  0.00  0.00    +0.000 C 
ATOM     23  O   UNL     1       1.029   5.812  20.715  0.00  0.00    +0.000 OA
ATOM     24  N   UNL     1       1.836   7.931  20.613  0.00  0.00    +0.000 N 
ATOM     25  H   UNL     1       2.498   8.568  20.205  0.00  0.00    +0.000 HD
BRANCH  24  26
ATOM     26  C   UNL     1       0.729   8.573  21.296  0.00  0.00    +0.000 C 
ATOM     27  C   UNL     1       1.225   9.178  22.608  0.00  0.00    +0.000 C 
BRANCH  26  28
ATOM     28  C   UNL     1       0.158   9.625  20.377  0.00  0.00    +0.000 A 
ATOM     29  C   UNL     1       0.459   9.820  19.007  0.00  0.00    +0.000 A 
ATOM     30  C   UNL     1      -0.313  10.887  18.616  0.00  0.00    +0.000 A 
ATOM     31  N   UNL     1      -1.002  11.278  19.725  0.00  0.00    +0.000 N 
ATOM     32  C   UNL     1      -1.923  12.385  19.822  0.00  0.00    +0.000 C 
ATOM     33  N   UNL     1      -0.737  10.530  20.814  0.00  0.00    +0.000 NA
ENDBRANCH  26  28
ENDBRANCH  24  26
ENDBRANCH   6  22
TORSDOF 5
ENDMDL
MODEL 2
REMARK VINA RESULT:      -8.3      5.266      9.951
REMARK  Name = 
REMARK  8 active torsions:
REMARK  status: ('A' for Active; 'I' for Inactive)
REMARK    1  A    between atoms: C_1  and  C_2
REMARK    2  A    between atoms: C_3  and  C_4
REMARK    3  A    between atoms: C_9  and  C_10
REMARK    4  A    between atoms: C_19  and  C_20
REMARK    5  A    between atoms: N_22  and  C_23
REMARK    6  A    between atoms: C_23  and  C_24
REMARK    7  A    between atoms: C_23  and  C_25
REMARK    8  A    between atoms: N_28  and  C_29
REMARK                            x       y       z     vdW  Elec       q    Type
REMARK                         _______ _______ _______ _____ _____    ______ ____
ROOT
ATOM      1  C   UNL     1       1.173   7.684  20.867  0.00  0.00    +0.000 C 
ATOM      2  C   UNL     1       1.676   8.092  19.522  0.00  0.00    +0.000 A 
ATOM      3  C   UNL     1       1.265   9.258  18.781  0.00  0.00    +0.000 A 
ATOM      4  C   UNL     1       1.974   9.261  17.600  0.00  0.00    +0.000 A 
ATOM      5  N   UNL     1       2.776   8.161  17.583  0.00  0.00    +0.000 N 
ATOM      6  C   UNL     1       2.627   7.421  18.741  0.00  0.00    +0.000 A 
ATOM      7  H   UNL     1       3.418   7.903  16.843  0.00  0.00    +0.000 HD
ENDROOT
BRANCH   3   8
ATOM      8  C   UNL     1       0.289  10.273  19.213  0.00  0.00    +0.000 A 
ATOM      9  N   UNL     1       0.557  11.182  20.160  0.00  0.00    +0.000 NA
ATOM     10  N   UNL     1      -0.570  11.900  20.249  0.00  0.00    +0.000 N 
ATOM     11  C   UNL     1      -1.553  11.515  19.380  0.00  0.00    +0.000 A 
ATOM     12  C   UNL     1      -2.841  12.020  19.158  0.00  0.00    +0.000 A 
ATOM     13  C   UNL     1      -3.627  11.396  18.172  0.00  0.00    +0.000 A 
ATOM     14  C   UNL     1      -3.116  10.298  17.463  0.00  0.00    +0.000 A 
ATOM     15  C   UNL     1      -1.829   9.804  17.714  0.00  0.00    +0.000 A 
ATOM     16  C   UNL     1      -1.024  10.434  18.681  0.00  0.00    +0.000 A 
ATOM     17  H   UNL     1      -0.604  12.651  20.928  0.00  0.00    +0.000 HD
BRANCH  13  18
ATOM     18  C   UNL     1      -5.019  11.896  17.866  0.00  0.00    +0.000 C 
ATOM     19  F   UNL     1      -5.123  12.506  16.652  0.00  0.00    +0.000 F 
ATOM     20  F   UNL     1      -5.943  10.895  17.861  0.00  0.00    +0.000 F 
ATOM     21  F   UNL     1      -5.459  12.806  18.779  0.00  0.00    +0.000 F 
ENDBRANCH  13  18
ENDBRANCH   3   8
BRANCH   6  22
ATOM     22  C   UNL     1       3.430   6.214  18.908  0.00  0.00    +0.000 C 
ATOM     23  O   UNL     1       3.682   5.766  20.022  0.00  0.00    +0.000 OA
ATOM     24  N   UNL     1       3.875   5.607  17.767  0.00  0.00    +0.000 N 
ATOM     25  H   UNL     1       3.767   6.052  16.872  0.00  0.00    +0.000 HD
BRANCH  24  26
ATOM     26  C   UNL     1       4.697   4.412  17.745  0.00  0.00    +0.000 C 
ATOM     27  C   UNL     1       3.797   3.177  17.753  0.00  0.00    +0.000 C 
BRANCH  26  28
ATOM     28  C   UNL     1       5.564   4.462  16.512  0.00  0.00    +0.000 A 
ATOM     29  C   UNL     1       6.850   5.043  16.392  0.00  0.00    +0.000 A 
ATOM     30  C   UNL     1       7.224   4.827  15.088  0.00  0.00    +0.000 A 
ATOM     31  N   UNL     1       6.184   4.167  14.503  0.00  0.00    +0.000 N 
ATOM     32  C   UNL     1       6.093   3.750  13.125  0.00  0.00    +0.000 C 
ATOM     33  N   UNL     1       5.158   3.931  15.343  0.00  0.00    +0.000 NA
ENDBRANCH  26  28
ENDBRANCH  24  26
ENDBRANCH   6  22
TORSDOF 5
ENDMDL
MODEL 3
REMARK VINA RESULT:      -8.3      2.478      4.144
REMARK  Name = 
REMARK  8 active torsions:
REMARK  status: ('A' for Active; 'I' for Inactive)
REMARK    1  A    between atoms: C_1  and  C_2
REMARK    2  A    between atoms: C_3  and  C_4
REMARK    3  A    between atoms: C_9  and  C_10
REMARK    4  A    between atoms: C_19  and  C_20
REMARK    5  A    between atoms: N_22  and  C_23
REMARK    6  A    between atoms: C_23  and  C_24
REMARK    7  A    between atoms: C_23  and  C_25
REMARK    8  A    between atoms: N_28  and  C_29
REMARK                            x       y       z     vdW  Elec       q    Type
REMARK                         _______ _______ _______ _____ _____    ______ ____
ROOT
ATOM      1  C   UNL     1       1.581   8.757  17.656  0.00  0.00    +0.000 C 
ATOM      2  C   UNL     1       1.593   8.385  19.101  0.00  0.00    +0.000 A 
ATOM      3  C   UNL     1       1.951   7.098  19.643  0.00  0.00    +0.000 A 
ATOM      4  C   UNL     1       1.834   7.185  21.013  0.00  0.00    +0.000 A 
ATOM      5  N   UNL     1       1.415   8.442  21.324  0.00  0.00    +0.000 N 
ATOM      6  C   UNL     1       1.258   9.209  20.184  0.00  0.00    +0.000 A 
ATOM      7  H   UNL     1       1.247   8.801  22.256  0.00  0.00    +0.000 HD
ENDROOT
BRANCH   3   8
ATOM      8  C   UNL     1       2.389   5.916  18.881  0.00  0.00    +0.000 A 
ATOM      9  N   UNL     1       1.746   4.742  18.927  0.00  0.00    +0.000 NA
ATOM     10  N   UNL     1       2.453   3.952  18.108  0.00  0.00    +0.000 N 
ATOM     11  C   UNL     1       3.514   4.570  17.507  0.00  0.00    +0.000 A 
ATOM     12  C   UNL     1       4.460   4.097  16.589  0.00  0.00    +0.000 A 
ATOM     13  C   UNL     1       5.449   4.996  16.147  0.00  0.00    +0.000 A 
ATOM     14  C   UNL     1       5.469   6.309  16.640  0.00  0.00    +0.000 A 
ATOM     15  C   UNL     1       4.518   6.753  17.568  0.00  0.00    +0.000 A 
ATOM     16  C   UNL     1       3.509   5.871  18.000  0.00  0.00    +0.000 A 
ATOM     17  H   UNL     1       2.152   2.991  17.997  0.00  0.00    +0.000 HD
BRANCH  13  18
ATOM     18  C   UNL     1       6.493   4.562  15.145  0.00  0.00    +0.000 C 
ATOM     19  F   UNL     1       7.738   4.424  15.681  0.00  0.00    +0.000 F 
ATOM     20  F   UNL     1       6.197   3.362  14.573  0.00  0.00    +0.000 F 
ATOM     21  F   UNL     1       6.626   5.444  14.116  0.00  0.00    +0.000 F 
ENDBRANCH  13  18
ENDBRANCH   3   8
BRANCH   6  22
ATOM     22  C   UNL     1       0.834  10.598  20.329  0.00  0.00    +0.000 C 
ATOM     23  O   UNL     1       1.383  11.351  21.127  0.00  0.00    +0.000 OA
ATOM     24  N   UNL     1      -0.192  11.016  19.528  0.00  0.00    +0.000 N 
ATOM     25  H   UNL     1      -0.711  10.358  18.973  0.00  0.00    +0.000 HD
BRANCH  24  26
ATOM     26  C   UNL     1      -0.751  12.354  19.550  0.00  0.00    +0.000 C 
ATOM     27  C   UNL     1      -0.098  13.195  18.454  0.00  0.00    +0.000 C 
BRANCH  26  28
ATOM     28  C   UNL     1      -2.243  12.242  19.352  0.00  0.00    +0.000 A 
ATOM     29  C   UNL     1      -3.259  12.681  20.235  0.00  0.00    +0.000 A 
ATOM     30  C   UNL     1      -4.441  12.363  19.612  0.00  0.00    +0.000 A 
ATOM     31  N   UNL     1      -4.097  11.760  18.439  0.00  0.00    +0.000 N 
ATOM     32  C   UNL     1      -4.999  11.218  17.451  0.00  0.00    +0.000 C 
ATOM     33  N   UNL     1      -2.766  11.670  18.252  0.00  0.00    +0.000 NA
ENDBRANCH  26  28
ENDBRANCH  24  26
ENDBRANCH   6  22
TORSDOF 5
ENDMDL
MODEL 4
REMARK VINA RESULT:      -8.2      2.454      3.994
REMARK  Name = 
REMARK  8 active torsions:
REMARK  status: ('A' for Active; 'I' for Inactive)
REMARK    1  A    between atoms: C_1  and  C_2
REMARK    2  A    between atoms: C_3  and  C_4
REMARK    3  A    between atoms: C_9  and  C_10
REMARK    4  A    between atoms: C_19  and  C_20
REMARK    5  A    between atoms: N_22  and  C_23
REMARK    6  A    between atoms: C_23  and  C_24
REMARK    7  A    between atoms: C_23  and  C_25
REMARK    8  A    between atoms: N_28  and  C_29
REMARK                            x       y       z     vdW  Elec       q    Type
REMARK                         _______ _______ _______ _____ _____    ______ ____
ROOT
ATOM      1  C   UNL     1       1.555   8.701  17.667  0.00  0.00    +0.000 C 
ATOM      2  C   UNL     1       1.600   8.327  19.111  0.00  0.00    +0.000 A 
ATOM      3  C   UNL     1       1.990   7.046  19.644  0.00  0.00    +0.000 A 
ATOM      4  C   UNL     1       1.896   7.129  21.016  0.00  0.00    +0.000 A 
ATOM      5  N   UNL     1       1.462   8.378  21.337  0.00  0.00    +0.000 N 
ATOM      6  C   UNL     1       1.272   9.144  20.202  0.00  0.00    +0.000 A 
ATOM      7  H   UNL     1       1.306   8.733  22.273  0.00  0.00    +0.000 HD
ENDROOT
BRANCH   3   8
ATOM      8  C   UNL     1       2.433   5.873  18.872  0.00  0.00    +0.000 A 
ATOM      9  N   UNL     1       1.798   4.694  18.912  0.00  0.00    +0.000 NA
ATOM     10  N   UNL     1       2.507   3.915  18.085  0.00  0.00    +0.000 N 
ATOM     11  C   UNL     1       3.561   4.544  17.483  0.00  0.00    +0.000 A 
ATOM     12  C   UNL     1       4.507   4.085  16.558  0.00  0.00    +0.000 A 
ATOM     13  C   UNL     1       5.487   4.994  16.118  0.00  0.00    +0.000 A 
ATOM     14  C   UNL     1       5.499   6.304  16.620  0.00  0.00    +0.000 A 
ATOM     15  C   UNL     1       4.549   6.735  17.555  0.00  0.00    +0.000 A 
ATOM     16  C   UNL     1       3.549   5.842  17.986  0.00  0.00    +0.000 A 
ATOM     17  H   UNL     1       2.213   2.952  17.968  0.00  0.00    +0.000 HD
BRANCH  13  18
ATOM     18  C   UNL     1       6.529   4.575  15.108  0.00  0.00    +0.000 C 
ATOM     19  F   UNL     1       6.676   5.457  14.080  0.00  0.00    +0.000 F 
ATOM     20  F   UNL     1       7.766   4.438  15.662  0.00  0.00    +0.000 F 
ATOM     21  F   UNL     1       6.243   3.375  14.531  0.00  0.00    +0.000 F 
ENDBRANCH  13  18
ENDBRANCH   3   8
BRANCH   6  22
ATOM     22  C   UNL     1       0.828  10.525  20.356  0.00  0.00    +0.000 C 
ATOM     23  O   UNL     1       1.335  11.268  21.192  0.00  0.00    +0.000 OA
ATOM     24  N   UNL     1      -0.168  10.950  19.522  0.00  0.00    +0.000 N 
ATOM     25  H   UNL     1      -0.658  10.299  18.933  0.00  0.00    +0.000 HD
BRANCH  24  26
ATOM     26  C   UNL     1      -0.742  12.282  19.548  0.00  0.00    +0.000 C 
ATOM     27  C   UNL     1      -0.063  13.148  18.488  0.00  0.00    +0.000 C 
BRANCH  26  28
ATOM     28  C   UNL     1      -2.226  12.158  19.300  0.00  0.00    +0.000 A 
ATOM     29  C   UNL     1      -2.861  11.529  18.202  0.00  0.00    +0.000 A 
ATOM     30  C   UNL     1      -4.207  11.674  18.432  0.00  0.00    +0.000 A 
ATOM     31  N   UNL     1      -4.317  12.365  19.601  0.00  0.00    +0.000 N 
ATOM     32  C   UNL     1      -5.538  12.787  20.242  0.00  0.00    +0.000 C 
ATOM     33  N   UNL     1      -3.128  12.676  20.154  0.00  0.00    +0.000 NA
ENDBRANCH  26  28
ENDBRANCH  24  26
ENDBRANCH   6  22
TORSDOF 5
ENDMDL
MODEL 5
REMARK VINA RESULT:      -8.1      0.869      1.174
REMARK  Name = 
REMARK  8 active torsions:
REMARK  status: ('A' for Active; 'I' for Inactive)
REMARK    1  A    between atoms: C_1  and  C_2
REMARK    2  A    between atoms: C_3  and  C_4
REMARK    3  A    between atoms: C_9  and  C_10
REMARK    4  A    between atoms: C_19  and  C_20
REMARK    5  A    between atoms: N_22  and  C_23
REMARK    6  A    between atoms: C_23  and  C_24
REMARK    7  A    between atoms: C_23  and  C_25
REMARK    8  A    between atoms: N_28  and  C_29
REMARK                            x       y       z     vdW  Elec       q    Type
REMARK                         _______ _______ _______ _____ _____    ______ ____
ROOT
ATOM      1  C   UNL     1       3.615   7.376  17.715  0.00  0.00    +0.000 C 
ATOM      2  C   UNL     1       3.761   6.232  18.663  0.00  0.00    +0.000 A 
ATOM      3  C   UNL     1       4.773   5.208  18.606  0.00  0.00    +0.000 A 
ATOM      4  C   UNL     1       4.550   4.355  19.665  0.00  0.00    +0.000 A 
ATOM      5  N   UNL     1       3.459   4.800  20.346  0.00  0.00    +0.000 N 
ATOM      6  C   UNL     1       2.948   5.947  19.768  0.00  0.00    +0.000 A 
ATOM      7  H   UNL     1       3.061   4.377  21.176  0.00  0.00    +0.000 HD
ENDROOT
BRANCH   3   8
ATOM      8  C   UNL     1       5.861   5.103  17.619  0.00  0.00    +0.000 A 
ATOM      9  N   UNL     1       7.142   5.350  17.920  0.00  0.00    +0.000 NA
ATOM     10  N   UNL     1       7.792   5.145  16.767  0.00  0.00    +0.000 N 
ATOM     11  C   UNL     1       6.992   4.746  15.733  0.00  0.00    +0.000 A 
ATOM     12  C   UNL     1       7.293   4.419  14.404  0.00  0.00    +0.000 A 
ATOM     13  C   UNL     1       6.228   4.036  13.568  0.00  0.00    +0.000 A 
ATOM     14  C   UNL     1       4.919   4.008  14.073  0.00  0.00    +0.000 A 
ATOM     15  C   UNL     1       4.644   4.352  15.403  0.00  0.00    +0.000 A 
ATOM     16  C   UNL     1       5.703   4.714  16.256  0.00  0.00    +0.000 A 
ATOM     17  H   UNL     1       8.795   5.291  16.753  0.00  0.00    +0.000 HD
BRANCH  13  18
ATOM     18  C   UNL     1       6.478   3.653  12.128  0.00  0.00    +0.000 C 
ATOM     19  F   UNL     1       7.274   4.535  11.461  0.00  0.00    +0.000 F 
ATOM     20  F   UNL     1       7.084   2.439  12.010  0.00  0.00    +0.000 F 
ATOM     21  F   UNL     1       5.327   3.569  11.404  0.00  0.00    +0.000 F 
ENDBRANCH  13  18
ENDBRANCH   3   8
BRANCH   6  22
ATOM     22  C   UNL     1       1.784   6.580  20.381  0.00  0.00    +0.000 C 
ATOM     23  O   UNL     1       0.818   5.917  20.746  0.00  0.00    +0.000 OA
ATOM     24  N   UNL     1       1.831   7.937  20.535  0.00  0.00    +0.000 N 
ATOM     25  H   UNL     1       2.570   8.477  20.120  0.00  0.00    +0.000 HD
BRANCH  24  26
ATOM     26  C   UNL     1       0.759   8.731  21.108  0.00  0.00    +0.000 C 
ATOM     27  C   UNL     1       1.162   9.193  22.507  0.00  0.00    +0.000 C 
BRANCH  26  28
ATOM     28  C   UNL     1       0.498   9.898  20.188  0.00  0.00    +0.000 A 
ATOM     29  C   UNL     1      -0.480   9.983  19.168  0.00  0.00    +0.000 A 
ATOM     30  C   UNL     1      -0.327  11.234  18.623  0.00  0.00    +0.000 A 
ATOM     31  N   UNL     1       0.701  11.816  19.302  0.00  0.00    +0.000 N 
ATOM     32  C   UNL     1       1.256  13.127  19.069  0.00  0.00    +0.000 C 
ATOM     33  N   UNL     1       1.226  11.028  20.261  0.00  0.00    +0.000 NA
ENDBRANCH  26  28
ENDBRANCH  24  26
ENDBRANCH   6  22
TORSDOF 5
ENDMDL
MODEL 6
REMARK VINA RESULT:      -8.1      0.749      1.004
REMARK  Name = 
REMARK  8 active torsions:
REMARK  status: ('A' for Active; 'I' for Inactive)
REMARK    1  A    between atoms: C_1  and  C_2
REMARK    2  A    between atoms: C_3  and  C_4
REMARK    3  A    between atoms: C_9  and  C_10
REMARK    4  A    between atoms: C_19  and  C_20
REMARK    5  A    between atoms: N_22  and  C_23
REMARK    6  A    between atoms: C_23  and  C_24
REMARK    7  A    between atoms: C_23  and  C_25
REMARK    8  A    between atoms: N_28  and  C_29
REMARK                            x       y       z     vdW  Elec       q    Type
REMARK                         _______ _______ _______ _____ _____    ______ ____
ROOT
ATOM      1  C   UNL     1       3.695   7.358  17.800  0.00  0.00    +0.000 C 
ATOM      2  C   UNL     1       3.773   6.143  18.663  0.00  0.00    +0.000 A 
ATOM      3  C   UNL     1       4.742   5.082  18.548  0.00  0.00    +0.000 A 
ATOM      4  C   UNL     1       4.461   4.164  19.537  0.00  0.00    +0.000 A 
ATOM      5  N   UNL     1       3.375   4.605  20.230  0.00  0.00    +0.000 N 
ATOM      6  C   UNL     1       2.925   5.813  19.729  0.00  0.00    +0.000 A 
ATOM      7  H   UNL     1       2.942   4.141  21.019  0.00  0.00    +0.000 HD
ENDROOT
BRANCH   3   8
ATOM      8  C   UNL     1       5.844   5.002  17.576  0.00  0.00    +0.000 A 
ATOM      9  N   UNL     1       7.122   5.232  17.904  0.00  0.00    +0.000 NA
ATOM     10  N   UNL     1       7.790   5.059  16.756  0.00  0.00    +0.000 N 
ATOM     11  C   UNL     1       7.004   4.698  15.697  0.00  0.00    +0.000 A 
ATOM     12  C   UNL     1       7.324   4.411  14.364  0.00  0.00    +0.000 A 
ATOM     13  C   UNL     1       6.271   4.060  13.500  0.00  0.00    +0.000 A 
ATOM     14  C   UNL     1       4.954   4.023  13.983  0.00  0.00    +0.000 A 
ATOM     15  C   UNL     1       4.659   4.327  15.318  0.00  0.00    +0.000 A 
ATOM     16  C   UNL     1       5.707   4.657  16.199  0.00  0.00    +0.000 A 
ATOM     17  H   UNL     1       8.793   5.201  16.762  0.00  0.00    +0.000 HD
BRANCH  13  18
ATOM     18  C   UNL     1       6.542   3.721  12.052  0.00  0.00    +0.000 C 
ATOM     19  F   UNL     1       7.150   2.514  11.881  0.00  0.00    +0.000 F 
ATOM     20  F   UNL     1       5.403   3.675  11.307  0.00  0.00    +0.000 F 
ATOM     21  F   UNL     1       7.349   4.635  11.446  0.00  0.00    +0.000 F 
ENDBRANCH  13  18
ENDBRANCH   3   8
BRANCH   6  22
ATOM     22  C   UNL     1       1.777   6.450  20.367  0.00  0.00    +0.000 C 
ATOM     23  O   UNL     1       0.847   5.785  20.813  0.00  0.00    +0.000 OA
ATOM     24  N   UNL     1       1.796   7.814  20.449  0.00  0.00    +0.000 N 
ATOM     25  H   UNL     1       2.499   8.349  19.970  0.00  0.00    +0.000 HD
BRANCH  24  26
ATOM     26  C   UNL     1       0.733   8.611  21.033  0.00  0.00    +0.000 C 
ATOM     27  C   UNL     1       1.187   9.144  22.391  0.00  0.00    +0.000 C 
BRANCH  26  28
ATOM     28  C   UNL     1       0.407   9.730  20.075  0.00  0.00    +0.000 A 
ATOM     29  C   UNL     1       1.282  10.741  19.609  0.00  0.00    +0.000 A 
ATOM     30  C   UNL     1       0.525  11.512  18.760  0.00  0.00    +0.000 A 
ATOM     31  N   UNL     1      -0.722  10.961  18.765  0.00  0.00    +0.000 N 
ATOM     32  C   UNL     1      -1.879  11.441  18.049  0.00  0.00    +0.000 C 
ATOM     33  N   UNL     1      -0.827   9.876  19.557  0.00  0.00    +0.000 NA
ENDBRANCH  26  28
ENDBRANCH  24  26
ENDBRANCH   6  22
TORSDOF 5
ENDMDL
MODEL 7
REMARK VINA RESULT:      -7.9      2.538      4.589
REMARK  Name = 
REMARK  8 active torsions:
REMARK  status: ('A' for Active; 'I' for Inactive)
REMARK    1  A    between atoms: C_1  and  C_2
REMARK    2  A    between atoms: C_3  and  C_4
REMARK    3  A    between atoms: C_9  and  C_10
REMARK    4  A    between atoms: C_19  and  C_20
REMARK    5  A    between atoms: N_22  and  C_23
REMARK    6  A    between atoms: C_23  and  C_24
REMARK    7  A    between atoms: C_23  and  C_25
REMARK    8  A    between atoms: N_28  and  C_29
REMARK                            x       y       z     vdW  Elec       q    Type
REMARK                         _______ _______ _______ _____ _____    ______ ____
ROOT
ATOM      1  C   UNL     1       1.268   8.141  21.277  0.00  0.00    +0.000 C 
ATOM      2  C   UNL     1       1.377   8.842  19.964  0.00  0.00    +0.000 A 
ATOM      3  C   UNL     1       1.937   8.293  18.755  0.00  0.00    +0.000 A 
ATOM      4  C   UNL     1       1.837   9.264  17.783  0.00  0.00    +0.000 A 
ATOM      5  N   UNL     1       1.261  10.365  18.339  0.00  0.00    +0.000 N 
ATOM      6  C   UNL     1       0.962  10.147  19.671  0.00  0.00    +0.000 A 
ATOM      7  H   UNL     1       1.053  11.235  17.863  0.00  0.00    +0.000 HD
ENDROOT
BRANCH   3   8
ATOM      8  C   UNL     1       2.490   6.940  18.578  0.00  0.00    +0.000 A 
ATOM      9  N   UNL     1       1.983   5.862  19.192  0.00  0.00    +0.000 NA
ATOM     10  N   UNL     1       2.758   4.854  18.770  0.00  0.00    +0.000 N 
ATOM     11  C   UNL     1       3.732   5.225  17.885  0.00  0.00    +0.000 A 
ATOM     12  C   UNL     1       4.708   4.475  17.216  0.00  0.00    +0.000 A 
ATOM     13  C   UNL     1       5.581   5.160  16.351  0.00  0.00    +0.000 A 
ATOM     14  C   UNL     1       5.463   6.550  16.198  0.00  0.00    +0.000 A 
ATOM     15  C   UNL     1       4.486   7.278  16.888  0.00  0.00    +0.000 A 
ATOM     16  C   UNL     1       3.591   6.602  17.739  0.00  0.00    +0.000 A 
ATOM     17  H   UNL     1       2.566   3.924  19.125  0.00  0.00    +0.000 HD
BRANCH  13  18
ATOM     18  C   UNL     1       6.647   4.415  15.583  0.00  0.00    +0.000 C 
ATOM     19  F   UNL     1       7.141   5.112  14.522  0.00  0.00    +0.000 F 
ATOM     20  F   UNL     1       7.724   4.102  16.357  0.00  0.00    +0.000 F 
ATOM     21  F   UNL     1       6.196   3.234  15.076  0.00  0.00    +0.000 F 
ENDBRANCH  13  18
ENDBRANCH   3   8
BRANCH   6  22
ATOM     22  C   UNL     1       0.316  11.216  20.426  0.00  0.00    +0.000 C 
ATOM     23  O   UNL     1       0.603  11.429  21.600  0.00  0.00    +0.000 OA
ATOM     24  N   UNL     1      -0.611  11.968  19.761  0.00  0.00    +0.000 N 
ATOM     25  H   UNL     1      -0.925  11.704  18.843  0.00  0.00    +0.000 HD
BRANCH  24  26
ATOM     26  C   UNL     1      -1.360  13.057  20.359  0.00  0.00    +0.000 C 
ATOM     27  C   UNL     1      -0.904  14.382  19.750  0.00  0.00    +0.000 C 
BRANCH  26  28
ATOM     28  C   UNL     1      -2.828  12.807  20.112  0.00  0.00    +0.000 A 
ATOM     29  C   UNL     1      -3.920  13.301  20.867  0.00  0.00    +0.000 A 
ATOM     30  C   UNL     1      -5.041  12.806  20.247  0.00  0.00    +0.000 A 
ATOM     31  N   UNL     1      -4.592  12.056  19.201  0.00  0.00    +0.000 N 
ATOM     32  C   UNL     1      -5.398  11.305  18.270  0.00  0.00    +0.000 C 
ATOM     33  N   UNL     1      -3.249  12.036  19.092  0.00  0.00    +0.000 NA
ENDBRANCH  26  28
ENDBRANCH  24  26
ENDBRANCH   6  22
TORSDOF 5
ENDMDL
MODEL 8
REMARK VINA RESULT:      -7.9      2.513      4.161
REMARK  Name = 
REMARK  8 active torsions:
REMARK  status: ('A' for Active; 'I' for Inactive)
REMARK    1  A    between atoms: C_1  and  C_2
REMARK    2  A    between atoms: C_3  and  C_4
REMARK    3  A    between atoms: C_9  and  C_10
REMARK    4  A    between atoms: C_19  and  C_20
REMARK    5  A    between atoms: N_22  and  C_23
REMARK    6  A    between atoms: C_23  and  C_24
REMARK    7  A    between atoms: C_23  and  C_25
REMARK    8  A    between atoms: N_28  and  C_29
REMARK                            x       y       z     vdW  Elec       q    Type
REMARK                         _______ _______ _______ _____ _____    ______ ____
ROOT
ATOM      1  C   UNL     1       1.711   8.891  17.727  0.00  0.00    +0.000 C 
ATOM      2  C   UNL     1       1.655   8.473  19.158  0.00  0.00    +0.000 A 
ATOM      3  C   UNL     1       1.935   7.155  19.668  0.00  0.00    +0.000 A 
ATOM      4  C   UNL     1       1.773   7.203  21.035  0.00  0.00    +0.000 A 
ATOM      5  N   UNL     1       1.401   8.468  21.374  0.00  0.00    +0.000 N 
ATOM      6  C   UNL     1       1.320   9.277  20.256  0.00  0.00    +0.000 A 
ATOM      7  H   UNL     1       1.216   8.804  22.312  0.00  0.00    +0.000 HD
ENDROOT
BRANCH   3   8
ATOM      8  C   UNL     1       2.346   5.979  18.882  0.00  0.00    +0.000 A 
ATOM      9  N   UNL     1       1.660   4.828  18.882  0.00  0.00    +0.000 NA
ATOM     10  N   UNL     1       2.354   4.036  18.055  0.00  0.00    +0.000 N 
ATOM     11  C   UNL     1       3.450   4.630  17.493  0.00  0.00    +0.000 A 
ATOM     12  C   UNL     1       4.397   4.148  16.581  0.00  0.00    +0.000 A 
ATOM     13  C   UNL     1       5.426   5.022  16.185  0.00  0.00    +0.000 A 
ATOM     14  C   UNL     1       5.484   6.320  16.714  0.00  0.00    +0.000 A 
ATOM     15  C   UNL     1       4.530   6.773  17.636  0.00  0.00    +0.000 A 
ATOM     16  C   UNL     1       3.482   5.917  18.023  0.00  0.00    +0.000 A 
ATOM     17  H   UNL     1       2.022   3.089  17.912  0.00  0.00    +0.000 HD
BRANCH  13  18
ATOM     18  C   UNL     1       6.474   4.577  15.191  0.00  0.00    +0.000 C 
ATOM     19  F   UNL     1       7.730   4.512  15.717  0.00  0.00    +0.000 F 
ATOM     20  F   UNL     1       6.218   3.340  14.683  0.00  0.00    +0.000 F 
ATOM     21  F   UNL     1       6.563   5.412  14.118  0.00  0.00    +0.000 F 
ENDBRANCH  13  18
ENDBRANCH   3   8
BRANCH   6  22
ATOM     22  C   UNL     1       0.954  10.679  20.433  0.00  0.00    +0.000 C 
ATOM     23  O   UNL     1       1.524  11.386  21.258  0.00  0.00    +0.000 OA
ATOM     24  N   UNL     1      -0.042  11.162  19.631  0.00  0.00    +0.000 N 
ATOM     25  H   UNL     1      -0.582  10.542  19.052  0.00  0.00    +0.000 HD
BRANCH  24  26
ATOM     26  C   UNL     1      -0.543  12.522  19.682  0.00  0.00    +0.000 C 
ATOM     27  C   UNL     1      -0.813  13.018  18.263  0.00  0.00    +0.000 C 
BRANCH  26  28
ATOM     28  C   UNL     1      -1.797  12.528  20.522  0.00  0.00    +0.000 A 
ATOM     29  C   UNL     1      -3.133  12.651  20.066  0.00  0.00    +0.000 A 
ATOM     30  C   UNL     1      -3.907  12.595  21.199  0.00  0.00    +0.000 A 
ATOM     31  N   UNL     1      -3.040  12.460  22.242  0.00  0.00    +0.000 N 
ATOM     32  C   UNL     1      -3.379  12.389  23.642  0.00  0.00    +0.000 C 
ATOM     33  N   UNL     1      -1.748  12.417  21.862  0.00  0.00    +0.000 NA
ENDBRANCH  26  28
ENDBRANCH  24  26
ENDBRANCH   6  22
TORSDOF 5
ENDMDL
MODEL 9
REMARK VINA RESULT:      -7.9      2.478      4.154
REMARK  Name = 
REMARK  8 active torsions:
REMARK  status: ('A' for Active; 'I' for Inactive)
REMARK    1  A    between atoms: C_1  and  C_2
REMARK    2  A    between atoms: C_3  and  C_4
REMARK    3  A    between atoms: C_9  and  C_10
REMARK    4  A    between atoms: C_19  and  C_20
REMARK    5  A    between atoms: N_22  and  C_23
REMARK    6  A    between atoms: C_23  and  C_24
REMARK    7  A    between atoms: C_23  and  C_25
REMARK    8  A    between atoms: N_28  and  C_29
REMARK                            x       y       z     vdW  Elec       q    Type
REMARK                         _______ _______ _______ _____ _____    ______ ____
ROOT
ATOM      1  C   UNL     1       1.572   8.723  17.666  0.00  0.00    +0.000 C 
ATOM      2  C   UNL     1       1.600   8.379  19.118  0.00  0.00    +0.000 A 
ATOM      3  C   UNL     1       1.978   7.106  19.680  0.00  0.00    +0.000 A 
ATOM      4  C   UNL     1       1.871   7.217  21.048  0.00  0.00    +0.000 A 
ATOM      5  N   UNL     1       1.440   8.474  21.340  0.00  0.00    +0.000 N 
ATOM      6  C   UNL     1       1.265   9.218  20.188  0.00  0.00    +0.000 A 
ATOM      7  H   UNL     1       1.276   8.848  22.267  0.00  0.00    +0.000 HD
ENDROOT
BRANCH   3   8
ATOM      8  C   UNL     1       2.424   5.916  18.935  0.00  0.00    +0.000 A 
ATOM      9  N   UNL     1       1.807   4.730  19.024  0.00  0.00    +0.000 NA
ATOM     10  N   UNL     1       2.512   3.936  18.208  0.00  0.00    +0.000 N 
ATOM     11  C   UNL     1       3.545   4.561  17.567  0.00  0.00    +0.000 A 
ATOM     12  C   UNL     1       4.480   4.086  16.638  0.00  0.00    +0.000 A 
ATOM     13  C   UNL     1       5.438   4.994  16.152  0.00  0.00    +0.000 A 
ATOM     14  C   UNL     1       5.441   6.319  16.613  0.00  0.00    +0.000 A 
ATOM     15  C   UNL     1       4.503   6.766  17.553  0.00  0.00    +0.000 A 
ATOM     16  C   UNL     1       3.524   5.873  18.030  0.00  0.00    +0.000 A 
ATOM     17  H   UNL     1       2.230   2.965  18.127  0.00  0.00    +0.000 HD
BRANCH  13  18
ATOM     18  C   UNL     1       6.467   4.559  15.135  0.00  0.00    +0.000 C 
ATOM     19  F   UNL     1       6.631   5.445  14.113  0.00  0.00    +0.000 F 
ATOM     20  F   UNL     1       7.702   4.389  15.684  0.00  0.00    +0.000 F 
ATOM     21  F   UNL     1       6.151   3.370  14.550  0.00  0.00    +0.000 F 
ENDBRANCH  13  18
ENDBRANCH   3   8
BRANCH   6  22
ATOM     22  C   UNL     1       0.826  10.604  20.311  0.00  0.00    +0.000 C 
ATOM     23  O   UNL     1       1.608  11.494  20.631  0.00  0.00    +0.000 OA
ATOM     24  N   UNL     1      -0.490  10.860  20.044  0.00  0.00    +0.000 N 
ATOM     25  H   UNL     1      -1.143  10.108  19.908  0.00  0.00    +0.000 HD
BRANCH  24  26
ATOM     26  C   UNL     1      -1.101  12.173  20.133  0.00  0.00    +0.000 C 
ATOM     27  C   UNL     1      -1.921  12.438  18.872  0.00  0.00    +0.000 C 
BRANCH  26  28
ATOM     28  C   UNL     1      -1.959  12.208  21.374  0.00  0.00    +0.000 A 
ATOM     29  C   UNL     1      -1.620  11.731  22.664  0.00  0.00    +0.000 A 
ATOM     30  C   UNL     1      -2.718  11.992  23.446  0.00  0.00    +0.000 A 
ATOM     31  N   UNL     1      -3.634  12.577  22.624  0.00  0.00    +0.000 N 
ATOM     32  C   UNL     1      -4.965  13.005  22.982  0.00  0.00    +0.000 C 
ATOM     33  N   UNL     1      -3.203  12.721  21.355  0.00  0.00    +0.000 NA
ENDBRANCH  26  28
ENDBRANCH  24  26
ENDBRANCH   6  22
TORSDOF 5
ENDMDL
