MODEL 1
REMARK VINA RESULT:      -8.4      0.000      0.000
REMARK  Name = 
REMARK  8 active torsions:
REMARK  status: ('A' for Active; 'I' for Inactive)
REMARK    1  A    between atoms: C_1  and  C_2
REMARK    2  A    between atoms: C_2  and  O_3
REMARK    3  A    between atoms: O_3  and  C_4
REMARK    4  A    between atoms: C_4  and  C_6
REMARK    5  A    between atoms: C_8  and  C_9
REMARK    6  A    between atoms: C_13  and  O_14
REMARK    7  A    between atoms: O_14  and  C_15
REMARK    8  A    between atoms: C_15  and  C_16
REMARK                            x       y       z     vdW  Elec       q    Type
REMARK                         _______ _______ _______ _____ _____    ______ ____
ROOT
ATOM      1  C   UNL     1       3.153   4.835  18.202  0.00  0.00    +0.000 A 
ATOM      2  C   UNL     1       2.579   3.569  18.395  0.00  0.00    +0.000 A 
ATOM      3  C   UNL     1       1.632   3.357  19.394  0.00  0.00    +0.000 A 
ATOM      4  C   UNL     1       1.257   4.405  20.229  0.00  0.00    +0.000 A 
ATOM      5  C   UNL     1       1.838   5.665  20.076  0.00  0.00    +0.000 A 
ATOM      6  C   UNL     1       2.754   5.885  19.043  0.00  0.00    +0.000 A 
ENDROOT
BRANCH   1   9
ATOM      7  C   UNL     1       5.695   5.131  15.574  0.00  0.00    +0.000 A 
ATOM      8  C   UNL     1       4.899   4.239  16.340  0.00  0.00    +0.000 A 
ATOM      9  C   UNL     1       4.167   5.046  17.176  0.00  0.00    +0.000 A 
ATOM     10  O   UNL     1       4.505   6.344  16.928  0.00  0.00    +0.000 OA
ATOM     11  N   UNL     1       5.451   6.403  15.929  0.00  0.00    +0.000 NA
BRANCH   7  12
ATOM     12  C   UNL     1       6.699   4.779  14.577  0.00  0.00    +0.000 C 
ATOM     13  O   UNL     1       7.705   5.451  14.380  0.00  0.00    +0.000 OA
BRANCH  12  14
ATOM     14  O   UNL     1       6.341   3.688  13.838  0.00  0.00    +0.000 OA
BRANCH  14  16
ATOM     15  C   UNL     1       5.698   2.730  11.747  0.00  0.00    +0.000 C 
ATOM     16  C   UNL     1       6.518   3.814  12.424  0.00  0.00    +0.000 C 
ENDBRANCH  14  16
ENDBRANCH  12  14
ENDBRANCH   7  12
ENDBRANCH   1   9
BRANCH   5  17
ATOM     17  O   UNL     1       1.593   6.742  20.888  0.00  0.00    +0.000 OA
BRANCH  17  18
ATOM     18  C   UNL     1       1.678   8.010  20.231  0.00  0.00    +0.000 C 
BRANCH  18  19
ATOM     19  C   UNL     1       0.821   9.046  20.922  0.00  0.00    +0.000 A 
ATOM     20  C   UNL     1       0.683   9.003  22.317  0.00  0.00    +0.000 A 
ATOM     21  C   UNL     1      -0.136   9.918  22.979  0.00  0.00    +0.000 A 
ATOM     22  C   UNL     1      -0.837  10.885  22.253  0.00  0.00    +0.000 A 
ATOM     23 CL   UNL     1      -1.836  11.979  23.140  0.00  0.00    +0.000 Cl
ATOM     24  C   UNL     1      -0.715  10.933  20.860  0.00  0.00    +0.000 A 
ATOM     25 CL   UNL     1      -1.566  12.090  19.899  0.00  0.00    +0.000 Cl
ATOM     26  C   UNL     1       0.104  10.011  20.195  0.00  0.00    +0.000 A 
ENDBRANCH  18  19
ENDBRANCH  17  18
ENDBRANCH   5  17
TORSDOF 7
ENDMDL
MODEL 2
REMARK VINA RESULT:      -8.2      4.011      5.361
REMARK  Name = 
REMARK  8 active torsions:
REMARK  status: ('A' for Active; 'I' for Inactive)
REMARK    1  A    between atoms: C_1  and  C_2
REMARK    2  A    between atoms: C_2  and  O_3
REMARK    3  A    between atoms: O_3  and  C_4
REMARK    4  A    between atoms: C_4  and  C_6
REMARK    5  A    between atoms: C_8  and  C_9
REMARK    6  A    between atoms: C_13  and  O_14
REMARK    7  A    between atoms: O_14  and  C_15
REMARK    8  A    between atoms: C_15  and  C_16
REMARK                            x       y       z     vdW  Elec       q    Type
REMARK                         _______ _______ _______ _____ _____    ______ ____
ROOT
ATOM      1  C   UNL     1       6.312   4.962  15.938  0.00  0.00    +0.000 A 
ATOM      2  C   UNL     1       7.381   4.723  16.817  0.00  0.00    +0.000 A 
ATOM      3  C   UNL     1       7.404   5.293  18.087  0.00  0.00    +0.000 A 
ATOM      4  C   UNL     1       6.367   6.129  18.493  0.00  0.00    +0.000 A 
ATOM      5  C   UNL     1       5.311   6.406  17.624  0.00  0.00    +0.000 A 
ATOM      6  C   UNL     1       5.268   5.795  16.366  0.00  0.00    +0.000 A 
ENDROOT
BRANCH   1   9
ATOM      7  C   UNL     1       6.112   3.384  12.633  0.00  0.00    +0.000 A 
ATOM      8  C   UNL     1       5.621   3.380  13.965  0.00  0.00    +0.000 A 
ATOM      9  C   UNL     1       6.306   4.389  14.598  0.00  0.00    +0.000 A 
ATOM     10  O   UNL     1       7.157   4.961  13.699  0.00  0.00    +0.000 OA
ATOM     11  N   UNL     1       7.037   4.344  12.474  0.00  0.00    +0.000 NA
BRANCH   7  12
ATOM     12  C   UNL     1       5.752   2.463  11.561  0.00  0.00    +0.000 C 
ATOM     13  O   UNL     1       6.573   1.756  10.987  0.00  0.00    +0.000 OA
BRANCH  12  14
ATOM     14  O   UNL     1       4.434   2.553  11.215  0.00  0.00    +0.000 OA
BRANCH  14  16
ATOM     15  C   UNL     1       3.027   3.783   9.729  0.00  0.00    +0.000 C 
ATOM     16  C   UNL     1       3.961   3.871  10.923  0.00  0.00    +0.000 C 
ENDBRANCH  14  16
ENDBRANCH  12  14
ENDBRANCH   7  12
ENDBRANCH   1   9
BRANCH   5  17
ATOM     17  O   UNL     1       4.281   7.269  17.896  0.00  0.00    +0.000 OA
BRANCH  17  18
ATOM     18  C   UNL     1       2.985   6.773  17.548  0.00  0.00    +0.000 C 
BRANCH  18  19
ATOM     19  C   UNL     1       2.494   5.759  18.556  0.00  0.00    +0.000 A 
ATOM     20  C   UNL     1       2.696   5.999  19.923  0.00  0.00    +0.000 A 
ATOM     21  C   UNL     1       2.294   5.063  20.876  0.00  0.00    +0.000 A 
ATOM     22  C   UNL     1       1.692   3.867  20.473  0.00  0.00    +0.000 A 
ATOM     23 CL   UNL     1       1.227   2.753  21.708  0.00  0.00    +0.000 Cl
ATOM     24  C   UNL     1       1.493   3.612  19.112  0.00  0.00    +0.000 A 
ATOM     25 CL   UNL     1       0.772   2.148  18.543  0.00  0.00    +0.000 Cl
ATOM     26  C   UNL     1       1.902   4.551  18.156  0.00  0.00    +0.000 A 
ENDBRANCH  18  19
ENDBRANCH  17  18
ENDBRANCH   5  17
TORSDOF 7
ENDMDL
MODEL 3
REMARK VINA RESULT:      -8.1      6.532      7.128
REMARK  Name = 
REMARK  8 active torsions:
REMARK  status: ('A' for Active; 'I' for Inactive)
REMARK    1  A    between atoms: C_1  and  C_2
REMARK    2  A    between atoms: C_2  and  O_3
REMARK    3  A    between atoms: O_3  and  C_4
REMARK    4  A    between atoms: C_4  and  C_6
REMARK    5  A    between atoms: C_8  and  C_9
REMARK    6  A    between atoms: C_13  and  O_14
REMARK    7  A    between atoms: O_14  and  C_15
REMARK    8  A    between atoms: C_15  and  C_16
REMARK                            x       y       z     vdW  Elec       q    Type
REMARK                         _______ _______ _______ _____ _____    ______ ____
ROOT
ATOM      1  C   UNL     1       7.233   5.476  16.432  0.00  0.00    +0.000 A 
ATOM      2  C   UNL     1       7.427   4.623  17.530  0.00  0.00    +0.000 A 
ATOM      3  C   UNL     1       7.755   5.134  18.784  0.00  0.00    +0.000 A 
ATOM      4  C   UNL     1       7.915   6.506  18.955  0.00  0.00    +0.000 A 
ATOM      5  C   UNL     1       7.759   7.370  17.871  0.00  0.00    +0.000 A 
ATOM      6  C   UNL     1       7.384   6.858  16.624  0.00  0.00    +0.000 A 
ENDROOT
BRANCH   1   9
ATOM      7  C   UNL     1       6.260   4.006  13.216  0.00  0.00    +0.000 A 
ATOM      8  C   UNL     1       6.008   4.041  14.613  0.00  0.00    +0.000 A 
ATOM      9  C   UNL     1       6.921   4.936  15.115  0.00  0.00    +0.000 A 
ATOM     10  O   UNL     1       7.675   5.408  14.081  0.00  0.00    +0.000 OA
ATOM     11  N   UNL     1       7.265   4.837  12.897  0.00  0.00    +0.000 NA
BRANCH   7  12
ATOM     12  C   UNL     1       5.600   3.164  12.224  0.00  0.00    +0.000 C 
ATOM     13  O   UNL     1       6.201   2.331  11.554  0.00  0.00    +0.000 OA
BRANCH  12  14
ATOM     14  O   UNL     1       4.281   3.476  12.068  0.00  0.00    +0.000 OA
BRANCH  14  16
ATOM     15  C   UNL     1       3.281   4.054   9.978  0.00  0.00    +0.000 C 
ATOM     16  C   UNL     1       3.646   2.916  10.915  0.00  0.00    +0.000 C 
ENDBRANCH  14  16
ENDBRANCH  12  14
ENDBRANCH   7  12
ENDBRANCH   1   9
BRANCH   5  17
ATOM     17  O   UNL     1       7.963   8.725  17.915  0.00  0.00    +0.000 OA
BRANCH  17  18
ATOM     18  C   UNL     1       8.890   9.151  18.918  0.00  0.00    +0.000 C 
BRANCH  18  19
ATOM     19  C   UNL     1       8.993  10.659  18.967  0.00  0.00    +0.000 A 
ATOM     20  C   UNL     1       8.788  11.398  17.792  0.00  0.00    +0.000 A 
ATOM     21  C   UNL     1       8.920  12.787  17.796  0.00  0.00    +0.000 A 
ATOM     22  C   UNL     1       9.266  13.456  18.974  0.00  0.00    +0.000 A 
ATOM     23 CL   UNL     1       9.417  15.175  18.899  0.00  0.00    +0.000 Cl
ATOM     24  C   UNL     1       9.481  12.729  20.149  0.00  0.00    +0.000 A 
ATOM     25 CL   UNL     1       9.928  13.488  21.635  0.00  0.00    +0.000 Cl
ATOM     26  C   UNL     1       9.354  11.334  20.144  0.00  0.00    +0.000 A 
ENDBRANCH  18  19
ENDBRANCH  17  18
ENDBRANCH   5  17
TORSDOF 7
ENDMDL
MODEL 4
REMARK VINA RESULT:      -8.0      2.022      2.628
REMARK  Name = 
REMARK  8 active torsions:
REMARK  status: ('A' for Active; 'I' for Inactive)
REMARK    1  A    between atoms: C_1  and  C_2
REMARK    2  A    between atoms: C_2  and  O_3
REMARK    3  A    between atoms: O_3  and  C_4
REMARK    4  A    between atoms: C_4  and  C_6
REMARK    5  A    between atoms: C_8  and  C_9
REMARK    6  A    between atoms: C_13  and  O_14
REMARK    7  A    between atoms: O_14  and  C_15
REMARK    8  A    between atoms: C_15  and  C_16
REMARK                            x       y       z     vdW  Elec       q    Type
REMARK                         _______ _______ _______ _____ _____    ______ ____
ROOT
ATOM      1  C   UNL     1       3.294   6.235  18.593  0.00  0.00    +0.000 A 
ATOM      2  C   UNL     1       3.019   5.167  19.461  0.00  0.00    +0.000 A 
ATOM      3  C   UNL     1       2.125   5.316  20.519  0.00  0.00    +0.000 A 
ATOM      4  C   UNL     1       1.506   6.544  20.737  0.00  0.00    +0.000 A 
ATOM      5  C   UNL     1       1.789   7.628  19.907  0.00  0.00    +0.000 A 
ATOM      6  C   UNL     1       2.652   7.462  18.818  0.00  0.00    +0.000 A 
ENDROOT
BRANCH   1   9
ATOM      7  C   UNL     1       5.611   5.643  15.812  0.00  0.00    +0.000 A 
ATOM      8  C   UNL     1       4.592   5.084  16.628  0.00  0.00    +0.000 A 
ATOM      9  C   UNL     1       4.253   6.085  17.506  0.00  0.00    +0.000 A 
ATOM     10  O   UNL     1       5.024   7.176  17.234  0.00  0.00    +0.000 OA
ATOM     11  N   UNL     1       5.867   6.909  16.178  0.00  0.00    +0.000 NA
BRANCH   7  12
ATOM     12  C   UNL     1       6.358   4.971  14.755  0.00  0.00    +0.000 C 
ATOM     13  O   UNL     1       7.555   5.157  14.565  0.00  0.00    +0.000 OA
BRANCH  12  14
ATOM     14  O   UNL     1       5.559   4.202  13.958  0.00  0.00    +0.000 OA
BRANCH  14  16
ATOM     15  C   UNL     1       5.117   3.129  11.871  0.00  0.00    +0.000 C 
ATOM     16  C   UNL     1       6.198   3.625  12.815  0.00  0.00    +0.000 C 
ENDBRANCH  14  16
ENDBRANCH  12  14
ENDBRANCH   7  12
ENDBRANCH   1   9
BRANCH   5  17
ATOM     17  O   UNL     1       1.291   8.894  20.077  0.00  0.00    +0.000 OA
BRANCH  17  18
ATOM     18  C   UNL     1       1.262   9.685  18.886  0.00  0.00    +0.000 C 
BRANCH  18  19
ATOM     19  C   UNL     1      -0.125  10.222  18.615  0.00  0.00    +0.000 A 
ATOM     20  C   UNL     1      -0.695  11.133  19.517  0.00  0.00    +0.000 A 
ATOM     21  C   UNL     1      -1.990  11.614  19.319  0.00  0.00    +0.000 A 
ATOM     22  C   UNL     1      -2.738  11.181  18.220  0.00  0.00    +0.000 A 
ATOM     23 CL   UNL     1      -4.335  11.813  18.044  0.00  0.00    +0.000 Cl
ATOM     24  C   UNL     1      -2.184  10.266  17.318  0.00  0.00    +0.000 A 
ATOM     25 CL   UNL     1      -3.057   9.676  15.949  0.00  0.00    +0.000 Cl
ATOM     26  C   UNL     1      -0.886   9.780  17.521  0.00  0.00    +0.000 A 
ENDBRANCH  18  19
ENDBRANCH  17  18
ENDBRANCH   5  17
TORSDOF 7
ENDMDL
MODEL 5
REMARK VINA RESULT:      -7.9      1.455      1.616
REMARK  Name = 
REMARK  8 active torsions:
REMARK  status: ('A' for Active; 'I' for Inactive)
REMARK    1  A    between atoms: C_1  and  C_2
REMARK    2  A    between atoms: C_2  and  O_3
REMARK    3  A    between atoms: O_3  and  C_4
REMARK    4  A    between atoms: C_4  and  C_6
REMARK    5  A    between atoms: C_8  and  C_9
REMARK    6  A    between atoms: C_13  and  O_14
REMARK    7  A    between atoms: O_14  and  C_15
REMARK    8  A    between atoms: C_15  and  C_16
REMARK                            x       y       z     vdW  Elec       q    Type
REMARK                         _______ _______ _______ _____ _____    ______ ____
ROOT
ATOM      1  C   UNL     1       3.470   4.415  19.410  0.00  0.00    +0.000 A 
ATOM      2  C   UNL     1       3.083   3.110  19.752  0.00  0.00    +0.000 A 
ATOM      3  C   UNL     1       1.910   2.876  20.465  0.00  0.00    +0.000 A 
ATOM      4  C   UNL     1       1.113   3.946  20.864  0.00  0.00    +0.000 A 
ATOM      5  C   UNL     1       1.496   5.254  20.563  0.00  0.00    +0.000 A 
ATOM      6  C   UNL     1       2.651   5.482  19.808  0.00  0.00    +0.000 A 
ENDROOT
BRANCH   1   9
ATOM      7  C   UNL     1       6.478   5.167  17.450  0.00  0.00    +0.000 A 
ATOM      8  C   UNL     1       5.067   5.301  17.528  0.00  0.00    +0.000 A 
ATOM      9  C   UNL     1       4.715   4.660  18.692  0.00  0.00    +0.000 A 
ATOM     10  O   UNL     1       5.847   4.170  19.273  0.00  0.00    +0.000 OA
ATOM     11  N   UNL     1       6.947   4.487  18.508  0.00  0.00    +0.000 NA
BRANCH   7  12
ATOM     12  C   UNL     1       7.345   5.623  16.369  0.00  0.00    +0.000 C 
ATOM     13  O   UNL     1       7.831   6.749  16.337  0.00  0.00    +0.000 OA
BRANCH  12  14
ATOM     14  O   UNL     1       7.469   4.699  15.372  0.00  0.00    +0.000 OA
BRANCH  14  16
ATOM     15  C   UNL     1       6.230   3.748  13.566  0.00  0.00    +0.000 C 
ATOM     16  C   UNL     1       6.814   5.025  14.143  0.00  0.00    +0.000 C 
ENDBRANCH  14  16
ENDBRANCH  12  14
ENDBRANCH   7  12
ENDBRANCH   1   9
BRANCH   5  17
ATOM     17  O   UNL     1       0.824   6.378  20.970  0.00  0.00    +0.000 OA
BRANCH  17  18
ATOM     18  C   UNL     1       1.570   7.591  20.841  0.00  0.00    +0.000 C 
BRANCH  18  19
ATOM     19  C   UNL     1       0.738   8.792  21.233  0.00  0.00    +0.000 A 
ATOM     20  C   UNL     1       0.432   9.002  22.586  0.00  0.00    +0.000 A 
ATOM     21  C   UNL     1      -0.370  10.075  22.975  0.00  0.00    +0.000 A 
ATOM     22  C   UNL     1      -0.884  10.950  22.013  0.00  0.00    +0.000 A 
ATOM     23 CL   UNL     1      -1.874  12.252  22.569  0.00  0.00    +0.000 Cl
ATOM     24  C   UNL     1      -0.593  10.747  20.660  0.00  0.00    +0.000 A 
ATOM     25 CL   UNL     1      -1.210  11.778  19.419  0.00  0.00    +0.000 Cl
ATOM     26  C   UNL     1       0.208   9.666  20.270  0.00  0.00    +0.000 A 
ENDBRANCH  18  19
ENDBRANCH  17  18
ENDBRANCH   5  17
TORSDOF 7
ENDMDL
MODEL 6
REMARK VINA RESULT:      -7.9      1.915      2.625
REMARK  Name = 
REMARK  8 active torsions:
REMARK  status: ('A' for Active; 'I' for Inactive)
REMARK    1  A    between atoms: C_1  and  C_2
REMARK    2  A    between atoms: C_2  and  O_3
REMARK    3  A    between atoms: O_3  and  C_4
REMARK    4  A    between atoms: C_4  and  C_6
REMARK    5  A    between atoms: C_8  and  C_9
REMARK    6  A    between atoms: C_13  and  O_14
REMARK    7  A    between atoms: O_14  and  C_15
REMARK    8  A    between atoms: C_15  and  C_16
REMARK                            x       y       z     vdW  Elec       q    Type
REMARK                         _______ _______ _______ _____ _____    ______ ____
ROOT
ATOM      1  C   UNL     1       3.488   4.346  19.385  0.00  0.00    +0.000 A 
ATOM      2  C   UNL     1       3.100   3.043  19.732  0.00  0.00    +0.000 A 
ATOM      3  C   UNL     1       1.949   2.815  20.481  0.00  0.00    +0.000 A 
ATOM      4  C   UNL     1       1.176   3.890  20.913  0.00  0.00    +0.000 A 
ATOM      5  C   UNL     1       1.561   5.196  20.607  0.00  0.00    +0.000 A 
ATOM      6  C   UNL     1       2.692   5.418  19.816  0.00  0.00    +0.000 A 
ENDROOT
BRANCH   1   9
ATOM      7  C   UNL     1       6.432   5.058  17.315  0.00  0.00    +0.000 A 
ATOM      8  C   UNL     1       5.016   5.125  17.402  0.00  0.00    +0.000 A 
ATOM      9  C   UNL     1       4.711   4.584  18.627  0.00  0.00    +0.000 A 
ATOM     10  O   UNL     1       5.873   4.213  19.236  0.00  0.00    +0.000 OA
ATOM     11  N   UNL     1       6.947   4.510  18.427  0.00  0.00    +0.000 NA
BRANCH   7  12
ATOM     12  C   UNL     1       7.262   5.451  16.182  0.00  0.00    +0.000 C 
ATOM     13  O   UNL     1       7.526   4.691  15.256  0.00  0.00    +0.000 OA
BRANCH  12  14
ATOM     14  O   UNL     1       7.779   6.706  16.323  0.00  0.00    +0.000 OA
BRANCH  14  16
ATOM     15  C   UNL     1       8.170   8.419  17.940  0.00  0.00    +0.000 C 
ATOM     16  C   UNL     1       7.122   7.541  17.281  0.00  0.00    +0.000 C 
ENDBRANCH  14  16
ENDBRANCH  12  14
ENDBRANCH   7  12
ENDBRANCH   1   9
BRANCH   5  17
ATOM     17  O   UNL     1       0.914   6.323  21.043  0.00  0.00    +0.000 OA
BRANCH  17  18
ATOM     18  C   UNL     1       1.604   7.545  20.767  0.00  0.00    +0.000 C 
BRANCH  18  19
ATOM     19  C   UNL     1       0.784   8.746  21.182  0.00  0.00    +0.000 A 
ATOM     20  C   UNL     1       0.555   8.981  22.546  0.00  0.00    +0.000 A 
ATOM     21  C   UNL     1      -0.234  10.055  22.959  0.00  0.00    +0.000 A 
ATOM     22  C   UNL     1      -0.813  10.905  22.012  0.00  0.00    +0.000 A 
ATOM     23 CL   UNL     1      -1.782  12.209  22.598  0.00  0.00    +0.000 Cl
ATOM     24  C   UNL     1      -0.599  10.676  20.648  0.00  0.00    +0.000 A 
ATOM     25 CL   UNL     1      -1.298  11.675  19.424  0.00  0.00    +0.000 Cl
ATOM     26  C   UNL     1       0.189   9.594  20.234  0.00  0.00    +0.000 A 
ENDBRANCH  18  19
ENDBRANCH  17  18
ENDBRANCH   5  17
TORSDOF 7
ENDMDL
MODEL 7
REMARK VINA RESULT:      -7.8      0.842      1.605
REMARK  Name = 
REMARK  8 active torsions:
REMARK  status: ('A' for Active; 'I' for Inactive)
REMARK    1  A    between atoms: C_1  and  C_2
REMARK    2  A    between atoms: C_2  and  O_3
REMARK    3  A    between atoms: O_3  and  C_4
REMARK    4  A    between atoms: C_4  and  C_6
REMARK    5  A    between atoms: C_8  and  C_9
REMARK    6  A    between atoms: C_13  and  O_14
REMARK    7  A    between atoms: O_14  and  C_15
REMARK    8  A    between atoms: C_15  and  C_16
REMARK                            x       y       z     vdW  Elec       q    Type
REMARK                         _______ _______ _______ _____ _____    ______ ____
ROOT
ATOM      1  C   UNL     1       3.367   5.588  18.226  0.00  0.00    +0.000 A 
ATOM      2  C   UNL     1       2.810   4.380  18.674  0.00  0.00    +0.000 A 
ATOM      3  C   UNL     1       1.917   4.357  19.743  0.00  0.00    +0.000 A 
ATOM      4  C   UNL     1       1.581   5.541  20.393  0.00  0.00    +0.000 A 
ATOM      5  C   UNL     1       2.148   6.749  19.985  0.00  0.00    +0.000 A 
ATOM      6  C   UNL     1       3.009   6.774  18.883  0.00  0.00    +0.000 A 
ENDROOT
BRANCH   1   9
ATOM      7  C   UNL     1       5.767   5.390  15.459  0.00  0.00    +0.000 A 
ATOM      8  C   UNL     1       5.014   4.655  16.412  0.00  0.00    +0.000 A 
ATOM      9  C   UNL     1       4.326   5.604  17.128  0.00  0.00    +0.000 A 
ATOM     10  O   UNL     1       4.650   6.834  16.635  0.00  0.00    +0.000 OA
ATOM     11  N   UNL     1       5.541   6.707  15.594  0.00  0.00    +0.000 NA
BRANCH   7  12
ATOM     12  C   UNL     1       6.717   4.857  14.489  0.00  0.00    +0.000 C 
ATOM     13  O   UNL     1       7.736   5.455  14.159  0.00  0.00    +0.000 OA
BRANCH  12  14
ATOM     14  O   UNL     1       6.295   3.684  13.934  0.00  0.00    +0.000 OA
BRANCH  14  16
ATOM     15  C   UNL     1       5.588   2.603  11.925  0.00  0.00    +0.000 C 
ATOM     16  C   UNL     1       5.402   3.813  12.823  0.00  0.00    +0.000 C 
ENDBRANCH  14  16
ENDBRANCH  12  14
ENDBRANCH   7  12
ENDBRANCH   1   9
BRANCH   5  17
ATOM     17  O   UNL     1       1.942   7.957  20.601  0.00  0.00    +0.000 OA
BRANCH  17  18
ATOM     18  C   UNL     1       0.693   8.064  21.290  0.00  0.00    +0.000 C 
BRANCH  18  19
ATOM     19  C   UNL     1       0.041   9.405  21.041  0.00  0.00    +0.000 A 
ATOM     20  C   UNL     1      -0.021   9.906  19.732  0.00  0.00    +0.000 A 
ATOM     21  C   UNL     1      -0.577  11.159  19.476  0.00  0.00    +0.000 A 
ATOM     22  C   UNL     1      -1.072  11.935  20.528  0.00  0.00    +0.000 A 
ATOM     23 CL   UNL     1      -1.739  13.479  20.135  0.00  0.00    +0.000 Cl
ATOM     24  C   UNL     1      -1.009  11.451  21.839  0.00  0.00    +0.000 A 
ATOM     25 CL   UNL     1      -1.585  12.364  23.188  0.00  0.00    +0.000 Cl
ATOM     26  C   UNL     1      -0.445  10.194  22.096  0.00  0.00    +0.000 A 
ENDBRANCH  18  19
ENDBRANCH  17  18
ENDBRANCH   5  17
TORSDOF 7
ENDMDL
MODEL 8
REMARK VINA RESULT:      -7.7      2.635      4.291
REMARK  Name = 
REMARK  8 active torsions:
REMARK  status: ('A' for Active; 'I' for Inactive)
REMARK    1  A    between atoms: C_1  and  C_2
REMARK    2  A    between atoms: C_2  and  O_3
REMARK    3  A    between atoms: O_3  and  C_4
REMARK    4  A    between atoms: C_4  and  C_6
REMARK    5  A    between atoms: C_8  and  C_9
REMARK    6  A    between atoms: C_13  and  O_14
REMARK    7  A    between atoms: O_14  and  C_15
REMARK    8  A    between atoms: C_15  and  C_16
REMARK                            x       y       z     vdW  Elec       q    Type
REMARK                         _______ _______ _______ _____ _____    ______ ____
ROOT
ATOM      1  C   UNL     1       6.683   4.929  16.723  0.00  0.00    +0.000 A 
ATOM      2  C   UNL     1       7.496   5.971  17.194  0.00  0.00    +0.000 A 
ATOM      3  C   UNL     1       7.498   6.323  18.542  0.00  0.00    +0.000 A 
ATOM      4  C   UNL     1       6.673   5.649  19.438  0.00  0.00    +0.000 A 
ATOM      5  C   UNL     1       5.832   4.631  18.985  0.00  0.00    +0.000 A 
ATOM      6  C   UNL     1       5.866   4.251  17.640  0.00  0.00    +0.000 A 
ENDROOT
BRANCH   1   9
ATOM      7  C   UNL     1       6.432   3.922  13.204  0.00  0.00    +0.000 A 
ATOM      8  C   UNL     1       5.941   3.715  14.520  0.00  0.00    +0.000 A 
ATOM      9  C   UNL     1       6.659   4.584  15.307  0.00  0.00    +0.000 A 
ATOM     10  O   UNL     1       7.528   5.269  14.510  0.00  0.00    +0.000 OA
ATOM     11  N   UNL     1       7.388   4.865  13.201  0.00  0.00    +0.000 NA
BRANCH   7  12
ATOM     12  C   UNL     1       6.043   3.202  11.997  0.00  0.00    +0.000 C 
ATOM     13  O   UNL     1       4.900   3.219  11.553  0.00  0.00    +0.000 OA
BRANCH  12  14
ATOM     14  O   UNL     1       7.059   2.445  11.489  0.00  0.00    +0.000 OA
BRANCH  14  16
ATOM     15  C   UNL     1       6.304   0.180  11.434  0.00  0.00    +0.000 C 
ATOM     16  C   UNL     1       6.663   1.397  10.600  0.00  0.00    +0.000 C 
ENDBRANCH  14  16
ENDBRANCH  12  14
ENDBRANCH   7  12
ENDBRANCH   1   9
BRANCH   5  17
ATOM     17  O   UNL     1       4.931   3.956  19.767  0.00  0.00    +0.000 OA
BRANCH  17  18
ATOM     18  C   UNL     1       3.585   3.990  19.284  0.00  0.00    +0.000 C 
BRANCH  18  19
ATOM     19  C   UNL     1       2.941   5.333  19.543  0.00  0.00    +0.000 A 
ATOM     20  C   UNL     1       2.200   5.522  20.720  0.00  0.00    +0.000 A 
ATOM     21  C   UNL     1       1.557   6.735  20.967  0.00  0.00    +0.000 A 
ATOM     22  C   UNL     1       1.637   7.774  20.035  0.00  0.00    +0.000 A 
ATOM     23 CL   UNL     1       0.810   9.243  20.407  0.00  0.00    +0.000 Cl
ATOM     24  C   UNL     1       2.365   7.595  18.854  0.00  0.00    +0.000 A 
ATOM     25 CL   UNL     1       2.491   8.830  17.652  0.00  0.00    +0.000 Cl
ATOM     26  C   UNL     1       3.007   6.375  18.604  0.00  0.00    +0.000 A 
ENDBRANCH  18  19
ENDBRANCH  17  18
ENDBRANCH   5  17
TORSDOF 7
ENDMDL
MODEL 9
REMARK VINA RESULT:      -7.7      1.275      2.085
REMARK  Name = 
REMARK  8 active torsions:
REMARK  status: ('A' for Active; 'I' for Inactive)
REMARK    1  A    between atoms: C_1  and  C_2
REMARK    2  A    between atoms: C_2  and  O_3
REMARK    3  A    between atoms: O_3  and  C_4
REMARK    4  A    between atoms: C_4  and  C_6
REMARK    5  A    between atoms: C_8  and  C_9
REMARK    6  A    between atoms: C_13  and  O_14
REMARK    7  A    between atoms: O_14  and  C_15
REMARK    8  A    between atoms: C_15  and  C_16
REMARK                            x       y       z     vdW  Elec       q    Type
REMARK                         _______ _______ _______ _____ _____    ______ ____
ROOT
ATOM      1  C   UNL     1       3.536   3.663  17.924  0.00  0.00    +0.000 A 
ATOM      2  C   UNL     1       3.215   2.302  18.040  0.00  0.00    +0.000 A 
ATOM      3  C   UNL     1       2.201   1.876  18.896  0.00  0.00    +0.000 A 
ATOM      4  C   UNL     1       1.505   2.805  19.664  0.00  0.00    +0.000 A 
ATOM      5  C   UNL     1       1.829   4.160  19.589  0.00  0.00    +0.000 A 
ATOM      6  C   UNL     1       2.816   4.588  18.695  0.00  0.00    +0.000 A 
ENDROOT
BRANCH   1   9
ATOM      7  C   UNL     1       6.165   4.630  15.556  0.00  0.00    +0.000 A 
ATOM      8  C   UNL     1       5.048   3.785  15.786  0.00  0.00    +0.000 A 
ATOM      9  C   UNL     1       4.618   4.102  17.052  0.00  0.00    +0.000 A 
ATOM     10  O   UNL     1       5.430   5.077  17.551  0.00  0.00    +0.000 OA
ATOM     11  N   UNL     1       6.391   5.413  16.623  0.00  0.00    +0.000 NA
BRANCH   7  12
ATOM     12  C   UNL     1       7.026   4.649  14.379  0.00  0.00    +0.000 C 
ATOM     13  O   UNL     1       7.777   5.583  14.120  0.00  0.00    +0.000 OA
BRANCH  12  14
ATOM     14  O   UNL     1       6.826   3.570  13.568  0.00  0.00    +0.000 OA
BRANCH  14  16
ATOM     15  C   UNL     1       5.122   3.276  11.921  0.00  0.00    +0.000 C 
ATOM     16  C   UNL     1       6.489   3.870  12.211  0.00  0.00    +0.000 C 
ENDBRANCH  14  16
ENDBRANCH  12  14
ENDBRANCH   7  12
ENDBRANCH   1   9
BRANCH   5  17
ATOM     17  O   UNL     1       1.257   5.144  20.353  0.00  0.00    +0.000 OA
BRANCH  17  18
ATOM     18  C   UNL     1       2.163   6.168  20.775  0.00  0.00    +0.000 C 
BRANCH  18  19
ATOM     19  C   UNL     1       1.645   7.542  20.417  0.00  0.00    +0.000 A 
ATOM     20  C   UNL     1       1.849   8.036  19.120  0.00  0.00    +0.000 A 
ATOM     21  C   UNL     1       1.423   9.318  18.772  0.00  0.00    +0.000 A 
ATOM     22  C   UNL     1       0.793  10.129  19.721  0.00  0.00    +0.000 A 
ATOM     23 CL   UNL     1       0.299  11.706  19.219  0.00  0.00    +0.000 Cl
ATOM     24  C   UNL     1       0.592   9.652  21.021  0.00  0.00    +0.000 A 
ATOM     25 CL   UNL     1      -0.162  10.607  22.247  0.00  0.00    +0.000 Cl
ATOM     26  C   UNL     1       1.025   8.366  21.371  0.00  0.00    +0.000 A 
ENDBRANCH  18  19
ENDBRANCH  17  18
ENDBRANCH   5  17
TORSDOF 7
ENDMDL
