MODEL 1
REMARK VINA RESULT:      -7.5      0.000      0.000
REMARK  Name = 
REMARK  10 active torsions:
REMARK  status: ('A' for Active; 'I' for Inactive)
REMARK    1  A    between atoms: N_1  and  C_2
REMARK    2  A    between atoms: C_2  and  C_3
REMARK    3  A    between atoms: C_2  and  C_25
REMARK    4  A    between atoms: C_3  and  C_4
REMARK    5  A    between atoms: N_6  and  C_7
REMARK    6  A    between atoms: C_7  and  C_8
REMARK    7  A    between atoms: C_10  and  N_11
REMARK    8  A    between atoms: C_19  and  O_20
REMARK    9  A    between atoms: C_21  and  O_22
REMARK   10  A    between atoms: N_27  and  O_28
REMARK                            x       y       z     vdW  Elec       q    Type
REMARK                         _______ _______ _______ _____ _____    ______ ____
ROOT
ATOM      1  C   UNL     1       1.627   8.608  20.738  0.00  0.00    +0.000 C 
ATOM      2  O   UNL     1       1.183   9.657  19.842  0.00  0.00    +0.000 OA
ATOM      3  C   UNL     1       0.290  10.547  20.532  0.00  0.00    +0.000 C 
ATOM      4  C   UNL     1      -0.090   9.914  21.876  0.00  0.00    +0.000 C 
ATOM      5  C   UNL     1       1.017   8.896  22.114  0.00  0.00    +0.000 C 
ENDROOT
BRANCH   3   6
ATOM      6  N   UNL     1      -0.837  10.883  19.654  0.00  0.00    +0.000 N 
ATOM      7  C   UNL     1      -1.157  10.039  18.603  0.00  0.00    +0.000 A 
ATOM      8  C   UNL     1      -2.198  10.268  17.797  0.00  0.00    +0.000 A 
ATOM      9  C   UNL     1      -3.034  11.453  18.030  0.00  0.00    +0.000 A 
ATOM     10  O   UNL     1      -4.023  11.680  17.350  0.00  0.00    +0.000 OA
ATOM     11  N   UNL     1      -2.628  12.264  19.053  0.00  0.00    +0.000 N 
ATOM     12  C   UNL     1      -1.569  12.039  19.894  0.00  0.00    +0.000 A 
ATOM     13  O   UNL     1      -1.317  12.843  20.789  0.00  0.00    +0.000 OA
ATOM     14  H   UNL     1      -3.180  13.088  19.229  0.00  0.00    +0.000 HD
ENDBRANCH   3   6
BRANCH   4  15
ATOM     15  O   UNL     1      -0.133  10.896  22.920  0.00  0.00    +0.000 OA
ATOM     16  H   UNL     1      -0.952  10.731  23.428  0.00  0.00    +0.000 HD
ENDBRANCH   4  15
BRANCH   5  17
ATOM     17  O   UNL     1       2.002   9.462  22.996  0.00  0.00    +0.000 OA
ATOM     18  H   UNL     1       2.702   9.876  22.456  0.00  0.00    +0.000 HD
ENDBRANCH   5  17
BRANCH   1  19
ATOM     19  C   UNL     1       1.283   7.257  20.098  0.00  0.00    +0.000 C 
BRANCH  19  22
ATOM     20  C   UNL     1       4.111   6.077  18.273  0.00  0.00    +0.000 A 
ATOM     21  C   UNL     1       2.969   6.843  18.300  0.00  0.00    +0.000 A 
ATOM     22  N   UNL     1       2.386   6.550  19.492  0.00  0.00    +0.000 N 
ATOM     23  N   UNL     1       3.105   5.632  20.166  0.00  0.00    +0.000 NA
ATOM     24  N   UNL     1       4.167   5.330  19.420  0.00  0.00    +0.000 NA
BRANCH  20  25
ATOM     25  C   UNL     1       5.175   6.056  17.235  0.00  0.00    +0.000 C 
BRANCH  25  26
ATOM     26  C   UNL     1       5.891   4.700  17.102  0.00  0.00    +0.000 C 
BRANCH  26  27
ATOM     27  C   UNL     1       7.237   4.667  17.859  0.00  0.00    +0.000 C 
ATOM     28  O   UNL     1       8.286   4.217  17.400  0.00  0.00    +0.000 OA
ATOM     29  N   UNL     1       7.151   5.122  19.154  0.00  0.00    +0.000 N 
ATOM     30  H   UNL     1       6.387   5.749  19.404  0.00  0.00    +0.000 HD
BRANCH  29  31
ATOM     31  O   UNL     1       8.375   5.256  19.851  0.00  0.00    +0.000 OA
ATOM     32  H   UNL     1       8.376   6.208  20.092  0.00  0.00    +0.000 HD
ENDBRANCH  29  31
ENDBRANCH  26  27
BRANCH  26  33
ATOM     33  N   UNL     1       5.039   3.548  17.509  0.00  0.00    +0.000 NA
ATOM     34  H   UNL     1       4.273   3.471  16.834  0.00  0.00    +0.000 HD
ATOM     35  H   UNL     1       4.561   3.797  18.382  0.00  0.00    +0.000 HD
ENDBRANCH  26  33
ENDBRANCH  25  26
ENDBRANCH  20  25
ENDBRANCH  19  22
ENDBRANCH   1  19
TORSDOF 10
ENDMDL
MODEL 2
REMARK VINA RESULT:      -7.5      1.504      1.716
REMARK  Name = 
REMARK  10 active torsions:
REMARK  status: ('A' for Active; 'I' for Inactive)
REMARK    1  A    between atoms: N_1  and  C_2
REMARK    2  A    between atoms: C_2  and  C_3
REMARK    3  A    between atoms: C_2  and  C_25
REMARK    4  A    between atoms: C_3  and  C_4
REMARK    5  A    between atoms: N_6  and  C_7
REMARK    6  A    between atoms: C_7  and  C_8
REMARK    7  A    between atoms: C_10  and  N_11
REMARK    8  A    between atoms: C_19  and  O_20
REMARK    9  A    between atoms: C_21  and  O_22
REMARK   10  A    between atoms: N_27  and  O_28
REMARK                            x       y       z     vdW  Elec       q    Type
REMARK                         _______ _______ _______ _____ _____    ______ ____
ROOT
ATOM      1  C   UNL     1       1.671   8.577  20.754  0.00  0.00    +0.000 C 
ATOM      2  O   UNL     1       1.260   9.616  19.831  0.00  0.00    +0.000 OA
ATOM      3  C   UNL     1       0.361  10.527  20.484  0.00  0.00    +0.000 C 
ATOM      4  C   UNL     1      -0.060   9.920  21.828  0.00  0.00    +0.000 C 
ATOM      5  C   UNL     1       1.029   8.895  22.110  0.00  0.00    +0.000 C 
ENDROOT
BRANCH   3   6
ATOM      6  N   UNL     1      -0.740  10.860  19.572  0.00  0.00    +0.000 N 
ATOM      7  C   UNL     1      -1.019  10.023  18.505  0.00  0.00    +0.000 A 
ATOM      8  C   UNL     1      -2.035  10.250  17.667  0.00  0.00    +0.000 A 
ATOM      9  C   UNL     1      -2.888  11.426  17.882  0.00  0.00    +0.000 A 
ATOM     10  O   UNL     1      -3.856  11.651  17.173  0.00  0.00    +0.000 OA
ATOM     11  N   UNL     1      -2.522  12.233  18.923  0.00  0.00    +0.000 N 
ATOM     12  C   UNL     1      -1.488  12.009  19.797  0.00  0.00    +0.000 A 
ATOM     13  O   UNL     1      -1.272  12.808  20.706  0.00  0.00    +0.000 OA
ATOM     14  H   UNL     1      -3.086  13.051  19.088  0.00  0.00    +0.000 HD
ENDBRANCH   3   6
BRANCH   4  15
ATOM     15  O   UNL     1      -0.117  10.921  22.854  0.00  0.00    +0.000 OA
ATOM     16  H   UNL     1      -1.038  10.931  23.185  0.00  0.00    +0.000 HD
ENDBRANCH   4  15
BRANCH   5  17
ATOM     17  O   UNL     1       1.998   9.464  23.008  0.00  0.00    +0.000 OA
ATOM     18  H   UNL     1       2.888   9.183  22.722  0.00  0.00    +0.000 HD
ENDBRANCH   5  17
BRANCH   1  19
ATOM     19  C   UNL     1       1.327   7.220  20.128  0.00  0.00    +0.000 C 
BRANCH  19  22
ATOM     20  C   UNL     1       4.059   6.164  18.094  0.00  0.00    +0.000 A 
ATOM     21  C   UNL     1       2.904   6.900  18.216  0.00  0.00    +0.000 A 
ATOM     22  N   UNL     1       2.406   6.558  19.433  0.00  0.00    +0.000 N 
ATOM     23  N   UNL     1       3.187   5.640  20.032  0.00  0.00    +0.000 NA
ATOM     24  N   UNL     1       4.205   5.386  19.211  0.00  0.00    +0.000 NA
BRANCH  20  25
ATOM     25  C   UNL     1       5.055   6.199  16.990  0.00  0.00    +0.000 C 
BRANCH  25  26
ATOM     26  C   UNL     1       5.542   4.809  16.544  0.00  0.00    +0.000 C 
BRANCH  26  27
ATOM     27  C   UNL     1       6.180   4.831  15.137  0.00  0.00    +0.000 C 
ATOM     28  O   UNL     1       5.678   4.325  14.135  0.00  0.00    +0.000 OA
ATOM     29  N   UNL     1       7.428   5.409  15.108  0.00  0.00    +0.000 N 
ATOM     30  H   UNL     1       7.680   6.067  15.845  0.00  0.00    +0.000 HD
BRANCH  29  31
ATOM     31  O   UNL     1       8.000   5.592  13.828  0.00  0.00    +0.000 OA
ATOM     32  H   UNL     1       7.218   5.535  13.238  0.00  0.00    +0.000 HD
ENDBRANCH  29  31
ENDBRANCH  26  27
BRANCH  26  33
ATOM     33  N   UNL     1       6.465   4.172  17.522  0.00  0.00    +0.000 NA
ATOM     34  H   UNL     1       7.164   3.642  16.995  0.00  0.00    +0.000 HD
ATOM     35  H   UNL     1       5.945   3.443  18.023  0.00  0.00    +0.000 HD
ENDBRANCH  26  33
ENDBRANCH  25  26
ENDBRANCH  20  25
ENDBRANCH  19  22
ENDBRANCH   1  19
TORSDOF 10
ENDMDL
MODEL 3
REMARK VINA RESULT:      -7.4      5.362      8.785
REMARK  Name = 
REMARK  10 active torsions:
REMARK  status: ('A' for Active; 'I' for Inactive)
REMARK    1  A    between atoms: N_1  and  C_2
REMARK    2  A    between atoms: C_2  and  C_3
REMARK    3  A    between atoms: C_2  and  C_25
REMARK    4  A    between atoms: C_3  and  C_4
REMARK    5  A    between atoms: N_6  and  C_7
REMARK    6  A    between atoms: C_7  and  C_8
REMARK    7  A    between atoms: C_10  and  N_11
REMARK    8  A    between atoms: C_19  and  O_20
REMARK    9  A    between atoms: C_21  and  O_22
REMARK   10  A    between atoms: N_27  and  O_28
REMARK                            x       y       z     vdW  Elec       q    Type
REMARK                         _______ _______ _______ _____ _____    ______ ____
ROOT
ATOM      1  C   UNL     1       7.100   6.198  17.391  0.00  0.00    +0.000 C 
ATOM      2  O   UNL     1       6.446   5.515  18.489  0.00  0.00    +0.000 OA
ATOM      3  C   UNL     1       5.641   4.435  17.987  0.00  0.00    +0.000 C 
ATOM      4  C   UNL     1       5.540   4.568  16.462  0.00  0.00    +0.000 C 
ATOM      5  C   UNL     1       6.727   5.451  16.105  0.00  0.00    +0.000 C 
ENDROOT
BRANCH   3   6
ATOM      6  N   UNL     1       4.359   4.411  18.702  0.00  0.00    +0.000 N 
ATOM      7  C   UNL     1       3.920   5.551  19.353  0.00  0.00    +0.000 A 
ATOM      8  C   UNL     1       2.743   5.604  19.984  0.00  0.00    +0.000 A 
ATOM      9  C   UNL     1       1.882   4.414  19.988  0.00  0.00    +0.000 A 
ATOM     10  O   UNL     1       0.778   4.427  20.509  0.00  0.00    +0.000 OA
ATOM     11  N   UNL     1       2.403   3.312  19.369  0.00  0.00    +0.000 N 
ATOM     12  C   UNL     1       3.604   3.245  18.710  0.00  0.00    +0.000 A 
ATOM     13  O   UNL     1       3.952   2.192  18.179  0.00  0.00    +0.000 OA
ATOM     14  H   UNL     1       1.835   2.480  19.364  0.00  0.00    +0.000 HD
ENDBRANCH   3   6
BRANCH   4  15
ATOM     15  O   UNL     1       5.628   3.287  15.823  0.00  0.00    +0.000 OA
ATOM     16  H   UNL     1       4.710   2.971  15.700  0.00  0.00    +0.000 HD
ENDBRANCH   4  15
BRANCH   5  17
ATOM     17  O   UNL     1       7.820   4.626  15.664  0.00  0.00    +0.000 OA
ATOM     18  H   UNL     1       7.453   3.839  15.218  0.00  0.00    +0.000 HD
ENDBRANCH   5  17
BRANCH   1  19
ATOM     19  C   UNL     1       6.724   7.683  17.462  0.00  0.00    +0.000 C 
BRANCH  19  22
ATOM     20  C   UNL     1       8.930  10.379  18.223  0.00  0.00    +0.000 A 
ATOM     21  C   UNL     1       7.966   9.851  17.398  0.00  0.00    +0.000 A 
ATOM     22  N   UNL     1       7.786   8.581  17.847  0.00  0.00    +0.000 N 
ATOM     23  N   UNL     1       8.610   8.316  18.879  0.00  0.00    +0.000 NA
ATOM     24  N   UNL     1       9.323   9.416  19.114  0.00  0.00    +0.000 NA
BRANCH  20  25
ATOM     25  C   UNL     1       9.462  11.768  18.238  0.00  0.00    +0.000 C 
BRANCH  25  26
ATOM     26  C   UNL     1      10.885  11.898  17.666  0.00  0.00    +0.000 C 
BRANCH  26  27
ATOM     27  C   UNL     1      11.201  13.333  17.192  0.00  0.00    +0.000 C 
ATOM     28  O   UNL     1      12.332  13.756  16.952  0.00  0.00    +0.000 OA
ATOM     29  N   UNL     1      10.096  14.150  17.133  0.00  0.00    +0.000 N 
ATOM     30  H   UNL     1       9.176  13.722  17.038  0.00  0.00    +0.000 HD
BRANCH  29  31
ATOM     31  O   UNL     1      10.296  15.430  16.566  0.00  0.00    +0.000 OA
ATOM     32  H   UNL     1       9.750  15.386  15.751  0.00  0.00    +0.000 HD
ENDBRANCH  29  31
ENDBRANCH  26  27
BRANCH  26  33
ATOM     33  N   UNL     1      11.937  11.417  18.603  0.00  0.00    +0.000 NA
ATOM     34  H   UNL     1      11.621  10.527  18.999  0.00  0.00    +0.000 HD
ATOM     35  H   UNL     1      11.952  12.044  19.415  0.00  0.00    +0.000 HD
ENDBRANCH  26  33
ENDBRANCH  25  26
ENDBRANCH  20  25
ENDBRANCH  19  22
ENDBRANCH   1  19
TORSDOF 10
ENDMDL
MODEL 4
REMARK VINA RESULT:      -7.4      1.795      2.173
REMARK  Name = 
REMARK  10 active torsions:
REMARK  status: ('A' for Active; 'I' for Inactive)
REMARK    1  A    between atoms: N_1  and  C_2
REMARK    2  A    between atoms: C_2  and  C_3
REMARK    3  A    between atoms: C_2  and  C_25
REMARK    4  A    between atoms: C_3  and  C_4
REMARK    5  A    between atoms: N_6  and  C_7
REMARK    6  A    between atoms: C_7  and  C_8
REMARK    7  A    between atoms: C_10  and  N_11
REMARK    8  A    between atoms: C_19  and  O_20
REMARK    9  A    between atoms: C_21  and  O_22
REMARK   10  A    between atoms: N_27  and  O_28
REMARK                            x       y       z     vdW  Elec       q    Type
REMARK                         _______ _______ _______ _____ _____    ______ ____
ROOT
ATOM      1  C   UNL     1       1.284   8.838  21.467  0.00  0.00    +0.000 C 
ATOM      2  O   UNL     1       0.966   9.886  20.517  0.00  0.00    +0.000 OA
ATOM      3  C   UNL     1      -0.096  10.707  21.030  0.00  0.00    +0.000 C 
ATOM      4  C   UNL     1      -0.699  10.017  22.260  0.00  0.00    +0.000 C 
ATOM      5  C   UNL     1       0.397   9.055  22.698  0.00  0.00    +0.000 C 
ENDROOT
BRANCH   3   6
ATOM      6  N   UNL     1      -1.045  11.006  19.949  0.00  0.00    +0.000 N 
ATOM      7  C   UNL     1      -1.096  10.179  18.840  0.00  0.00    +0.000 A 
ATOM      8  C   UNL     1      -1.966  10.374  17.845  0.00  0.00    +0.000 A 
ATOM      9  C   UNL     1      -2.904  11.501  17.928  0.00  0.00    +0.000 A 
ATOM     10  O   UNL     1      -3.749  11.693  17.068  0.00  0.00    +0.000 OA
ATOM     11  N   UNL     1      -2.762  12.302  19.027  0.00  0.00    +0.000 N 
ATOM     12  C   UNL     1      -1.880  12.110  20.060  0.00  0.00    +0.000 A 
ATOM     13  O   UNL     1      -1.862  12.899  21.003  0.00  0.00    +0.000 OA
ATOM     14  H   UNL     1      -3.388  13.087  19.105  0.00  0.00    +0.000 HD
ENDBRANCH   3   6
BRANCH   4  15
ATOM     15  O   UNL     1      -1.005  10.967  23.290  0.00  0.00    +0.000 OA
ATOM     16  H   UNL     1      -0.996  10.476  24.137  0.00  0.00    +0.000 HD
ENDBRANCH   4  15
BRANCH   5  17
ATOM     17  O   UNL     1       1.152   9.648  23.769  0.00  0.00    +0.000 OA
ATOM     18  H   UNL     1       1.888  10.159  23.382  0.00  0.00    +0.000 HD
ENDBRANCH   5  17
BRANCH   1  19
ATOM     19  C   UNL     1       1.154   7.489  20.749  0.00  0.00    +0.000 C 
BRANCH  19  22
ATOM     20  C   UNL     1       3.529   6.149  18.452  0.00  0.00    +0.000 A 
ATOM     21  C   UNL     1       2.900   6.063  19.671  0.00  0.00    +0.000 A 
ATOM     22  N   UNL     1       2.167   7.204  19.762  0.00  0.00    +0.000 N 
ATOM     23  N   UNL     1       2.346   7.977  18.674  0.00  0.00    +0.000 NA
ATOM     24  N   UNL     1       3.188   7.338  17.864  0.00  0.00    +0.000 NA
BRANCH  20  25
ATOM     25  C   UNL     1       4.399   5.136  17.797  0.00  0.00    +0.000 C 
BRANCH  25  26
ATOM     26  C   UNL     1       5.275   4.337  18.779  0.00  0.00    +0.000 C 
BRANCH  26  27
ATOM     27  C   UNL     1       4.674   2.955  19.114  0.00  0.00    +0.000 C 
ATOM     28  O   UNL     1       4.839   2.360  20.179  0.00  0.00    +0.000 OA
ATOM     29  N   UNL     1       3.983   2.387  18.069  0.00  0.00    +0.000 N 
ATOM     30  H   UNL     1       3.610   2.995  17.340  0.00  0.00    +0.000 HD
BRANCH  29  31
ATOM     31  O   UNL     1       3.285   1.191  18.358  0.00  0.00    +0.000 OA
ATOM     32  H   UNL     1       2.819   1.010  17.513  0.00  0.00    +0.000 HD
ENDBRANCH  29  31
ENDBRANCH  26  27
BRANCH  26  33
ATOM     33  N   UNL     1       6.684   4.193  18.321  0.00  0.00    +0.000 NA
ATOM     34  H   UNL     1       6.798   4.760  17.476  0.00  0.00    +0.000 HD
ATOM     35  H   UNL     1       6.812   3.234  17.981  0.00  0.00    +0.000 HD
ENDBRANCH  26  33
ENDBRANCH  25  26
ENDBRANCH  20  25
ENDBRANCH  19  22
ENDBRANCH   1  19
TORSDOF 10
ENDMDL
MODEL 5
REMARK VINA RESULT:      -7.3      4.066      6.567
REMARK  Name = 
REMARK  10 active torsions:
REMARK  status: ('A' for Active; 'I' for Inactive)
REMARK    1  A    between atoms: N_1  and  C_2
REMARK    2  A    between atoms: C_2  and  C_3
REMARK    3  A    between atoms: C_2  and  C_25
REMARK    4  A    between atoms: C_3  and  C_4
REMARK    5  A    between atoms: N_6  and  C_7
REMARK    6  A    between atoms: C_7  and  C_8
REMARK    7  A    between atoms: C_10  and  N_11
REMARK    8  A    between atoms: C_19  and  O_20
REMARK    9  A    between atoms: C_21  and  O_22
REMARK   10  A    between atoms: N_27  and  O_28
REMARK                            x       y       z     vdW  Elec       q    Type
REMARK                         _______ _______ _______ _____ _____    ______ ____
ROOT
ATOM      1  C   UNL     1       5.456   4.331  17.840  0.00  0.00    +0.000 C 
ATOM      2  O   UNL     1       4.917   5.302  18.771  0.00  0.00    +0.000 OA
ATOM      3  C   UNL     1       3.485   5.192  18.821  0.00  0.00    +0.000 C 
ATOM      4  C   UNL     1       3.022   4.287  17.672  0.00  0.00    +0.000 C 
ATOM      5  C   UNL     1       4.278   3.506  17.310  0.00  0.00    +0.000 C 
ENDROOT
BRANCH   3   6
ATOM      6  N   UNL     1       2.894   6.536  18.840  0.00  0.00    +0.000 N 
ATOM      7  C   UNL     1       3.130   7.399  17.783  0.00  0.00    +0.000 A 
ATOM      8  C   UNL     1       2.586   8.618  17.723  0.00  0.00    +0.000 A 
ATOM      9  C   UNL     1       1.705   9.060  18.811  0.00  0.00    +0.000 A 
ATOM     10  O   UNL     1       1.147  10.146  18.779  0.00  0.00    +0.000 OA
ATOM     11  N   UNL     1       1.559   8.175  19.843  0.00  0.00    +0.000 N 
ATOM     12  C   UNL     1       2.103   6.919  19.916  0.00  0.00    +0.000 A 
ATOM     13  O   UNL     1       1.881   6.212  20.897  0.00  0.00    +0.000 OA
ATOM     14  H   UNL     1       0.965   8.458  20.606  0.00  0.00    +0.000 HD
ENDBRANCH   3   6
BRANCH   4  15
ATOM     15  O   UNL     1       1.964   3.416  18.090  0.00  0.00    +0.000 OA
ATOM     16  H   UNL     1       1.476   3.157  17.282  0.00  0.00    +0.000 HD
ENDBRANCH   4  15
BRANCH   5  17
ATOM     17  O   UNL     1       4.236   2.217  17.947  0.00  0.00    +0.000 OA
ATOM     18  H   UNL     1       5.003   1.695  17.642  0.00  0.00    +0.000 HD
ENDBRANCH   5  17
BRANCH   1  19
ATOM     19  C   UNL     1       6.295   5.084  16.800  0.00  0.00    +0.000 C 
BRANCH  19  22
ATOM     20  C   UNL     1       7.786   8.155  17.830  0.00  0.00    +0.000 A 
ATOM     21  C   UNL     1       7.045   7.466  16.900  0.00  0.00    +0.000 A 
ATOM     22  N   UNL     1       7.097   6.171  17.309  0.00  0.00    +0.000 N 
ATOM     23  N   UNL     1       7.850   6.048  18.419  0.00  0.00    +0.000 NA
ATOM     24  N   UNL     1       8.284   7.265  18.744  0.00  0.00    +0.000 NA
BRANCH  20  25
ATOM     25  C   UNL     1       8.005   9.624  17.922  0.00  0.00    +0.000 C 
BRANCH  25  26
ATOM     26  C   UNL     1       9.328  10.016  18.602  0.00  0.00    +0.000 C 
BRANCH  26  27
ATOM     27  C   UNL     1       9.922  11.322  18.028  0.00  0.00    +0.000 C 
ATOM     28  O   UNL     1      11.124  11.538  17.883  0.00  0.00    +0.000 OA
ATOM     29  N   UNL     1       8.976  12.284  17.758  0.00  0.00    +0.000 N 
ATOM     30  H   UNL     1       8.012  11.993  17.599  0.00  0.00    +0.000 HD
BRANCH  29  31
ATOM     31  O   UNL     1       9.438  13.445  17.095  0.00  0.00    +0.000 OA
ATOM     32  H   UNL     1      10.327  13.168  16.782  0.00  0.00    +0.000 HD
ENDBRANCH  29  31
ENDBRANCH  26  27
BRANCH  26  33
ATOM     33  N   UNL     1       9.220  10.103  20.084  0.00  0.00    +0.000 NA
ATOM     34  H   UNL     1       8.251  10.342  20.314  0.00  0.00    +0.000 HD
ATOM     35  H   UNL     1       9.746  10.928  20.395  0.00  0.00    +0.000 HD
ENDBRANCH  26  33
ENDBRANCH  25  26
ENDBRANCH  20  25
ENDBRANCH  19  22
ENDBRANCH   1  19
TORSDOF 10
ENDMDL
MODEL 6
REMARK VINA RESULT:      -7.3      1.220      1.346
REMARK  Name = 
REMARK  10 active torsions:
REMARK  status: ('A' for Active; 'I' for Inactive)
REMARK    1  A    between atoms: N_1  and  C_2
REMARK    2  A    between atoms: C_2  and  C_3
REMARK    3  A    between atoms: C_2  and  C_25
REMARK    4  A    between atoms: C_3  and  C_4
REMARK    5  A    between atoms: N_6  and  C_7
REMARK    6  A    between atoms: C_7  and  C_8
REMARK    7  A    between atoms: C_10  and  N_11
REMARK    8  A    between atoms: C_19  and  O_20
REMARK    9  A    between atoms: C_21  and  O_22
REMARK   10  A    between atoms: N_27  and  O_28
REMARK                            x       y       z     vdW  Elec       q    Type
REMARK                         _______ _______ _______ _____ _____    ______ ____
ROOT
ATOM      1  C   UNL     1       1.808   8.227  20.326  0.00  0.00    +0.000 C 
ATOM      2  O   UNL     1       1.518   9.215  19.306  0.00  0.00    +0.000 OA
ATOM      3  C   UNL     1       0.687  10.253  19.850  0.00  0.00    +0.000 C 
ATOM      4  C   UNL     1       0.176   9.802  21.224  0.00  0.00    +0.000 C 
ATOM      5  C   UNL     1       1.161   8.714  21.628  0.00  0.00    +0.000 C 
ENDROOT
BRANCH   3   6
ATOM      6  N   UNL     1      -0.355  10.603  18.876  0.00  0.00    +0.000 N 
ATOM      7  C   UNL     1      -0.775   9.655  17.958  0.00  0.00    +0.000 A 
ATOM      8  C   UNL     1      -1.748   9.900  17.076  0.00  0.00    +0.000 A 
ATOM      9  C   UNL     1      -2.399  11.217  17.078  0.00  0.00    +0.000 A 
ATOM     10  O   UNL     1      -3.324  11.472  16.324  0.00  0.00    +0.000 OA
ATOM     11  N   UNL     1      -1.898  12.116  17.978  0.00  0.00    +0.000 N 
ATOM     12  C   UNL     1      -0.906  11.878  18.895  0.00  0.00    +0.000 A 
ATOM     13  O   UNL     1      -0.555  12.772  19.662  0.00  0.00    +0.000 OA
ATOM     14  H   UNL     1      -2.322  13.030  17.994  0.00  0.00    +0.000 HD
ENDBRANCH   3   6
BRANCH   4  15
ATOM     15  O   UNL     1       0.181  10.888  22.162  0.00  0.00    +0.000 OA
ATOM     16  H   UNL     1      -0.754  11.139  22.306  0.00  0.00    +0.000 HD
ENDBRANCH   4  15
BRANCH   5  17
ATOM     17  O   UNL     1       2.152   9.270  22.508  0.00  0.00    +0.000 OA
ATOM     18  H   UNL     1       2.426  10.139  22.158  0.00  0.00    +0.000 HD
ENDBRANCH   5  17
BRANCH   1  19
ATOM     19  C   UNL     1       1.361   6.856  19.802  0.00  0.00    +0.000 C 
BRANCH  19  22
ATOM     20  C   UNL     1       4.013   5.625  17.761  0.00  0.00    +0.000 A 
ATOM     21  C   UNL     1       3.489   6.654  18.507  0.00  0.00    +0.000 A 
ATOM     22  N   UNL     1       2.239   6.236  18.839  0.00  0.00    +0.000 N 
ATOM     23  N   UNL     1       1.981   5.025  18.309  0.00  0.00    +0.000 NA
ATOM     24  N   UNL     1       3.066   4.643  17.639  0.00  0.00    +0.000 NA
BRANCH  20  25
ATOM     25  C   UNL     1       5.386   5.507  17.200  0.00  0.00    +0.000 C 
BRANCH  25  26
ATOM     26  C   UNL     1       6.355   4.705  18.086  0.00  0.00    +0.000 C 
BRANCH  26  27
ATOM     27  C   UNL     1       7.258   5.615  18.947  0.00  0.00    +0.000 C 
ATOM     28  O   UNL     1       7.538   5.406  20.127  0.00  0.00    +0.000 OA
ATOM     29  N   UNL     1       7.673   6.753  18.296  0.00  0.00    +0.000 N 
ATOM     30  H   UNL     1       7.689   6.756  17.277  0.00  0.00    +0.000 HD
BRANCH  29  31
ATOM     31  O   UNL     1       8.620   7.552  18.979  0.00  0.00    +0.000 OA
ATOM     32  H   UNL     1       8.800   7.022  19.785  0.00  0.00    +0.000 HD
ENDBRANCH  29  31
ENDBRANCH  26  27
BRANCH  26  33
ATOM     33  N   UNL     1       5.667   3.698  18.941  0.00  0.00    +0.000 NA
ATOM     34  H   UNL     1       6.196   2.823  18.881  0.00  0.00    +0.000 HD
ATOM     35  H   UNL     1       4.771   3.463  18.499  0.00  0.00    +0.000 HD
ENDBRANCH  26  33
ENDBRANCH  25  26
ENDBRANCH  20  25
ENDBRANCH  19  22
ENDBRANCH   1  19
TORSDOF 10
ENDMDL
MODEL 7
REMARK VINA RESULT:      -7.3      3.934      6.316
REMARK  Name = 
REMARK  10 active torsions:
REMARK  status: ('A' for Active; 'I' for Inactive)
REMARK    1  A    between atoms: N_1  and  C_2
REMARK    2  A    between atoms: C_2  and  C_3
REMARK    3  A    between atoms: C_2  and  C_25
REMARK    4  A    between atoms: C_3  and  C_4
REMARK    5  A    between atoms: N_6  and  C_7
REMARK    6  A    between atoms: C_7  and  C_8
REMARK    7  A    between atoms: C_10  and  N_11
REMARK    8  A    between atoms: C_19  and  O_20
REMARK    9  A    between atoms: C_21  and  O_22
REMARK   10  A    between atoms: N_27  and  O_28
REMARK                            x       y       z     vdW  Elec       q    Type
REMARK                         _______ _______ _______ _____ _____    ______ ____
ROOT
ATOM      1  C   UNL     1       4.696   3.813  18.914  0.00  0.00    +0.000 C 
ATOM      2  O   UNL     1       4.031   4.876  19.642  0.00  0.00    +0.000 OA
ATOM      3  C   UNL     1       2.701   5.064  19.132  0.00  0.00    +0.000 C 
ATOM      4  C   UNL     1       2.562   4.273  17.825  0.00  0.00    +0.000 C 
ATOM      5  C   UNL     1       3.684   3.249  17.910  0.00  0.00    +0.000 C 
ENDROOT
BRANCH   3   6
ATOM      6  N   UNL     1       2.418   6.501  19.030  0.00  0.00    +0.000 N 
ATOM      7  C   UNL     1       2.769   7.185  17.879  0.00  0.00    +0.000 A 
ATOM      8  C   UNL     1       2.499   8.483  17.710  0.00  0.00    +0.000 A 
ATOM      9  C   UNL     1       1.805   9.212  18.779  0.00  0.00    +0.000 A 
ATOM     10  O   UNL     1       1.495  10.386  18.653  0.00  0.00    +0.000 OA
ATOM     11  N   UNL     1       1.535   8.484  19.905  0.00  0.00    +0.000 N 
ATOM     12  C   UNL     1       1.798   7.151  20.090  0.00  0.00    +0.000 A 
ATOM     13  O   UNL     1       1.490   6.608  21.149  0.00  0.00    +0.000 OA
ATOM     14  H   UNL     1       1.066   8.963  20.657  0.00  0.00    +0.000 HD
ENDBRANCH   3   6
BRANCH   4  15
ATOM     15  O   UNL     1       1.278   3.639  17.736  0.00  0.00    +0.000 OA
ATOM     16  H   UNL     1       1.249   3.186  16.869  0.00  0.00    +0.000 HD
ENDBRANCH   4  15
BRANCH   5  17
ATOM     17  O   UNL     1       3.152   1.997  18.377  0.00  0.00    +0.000 OA
ATOM     18  H   UNL     1       3.598   1.764  19.214  0.00  0.00    +0.000 HD
ENDBRANCH   5  17
BRANCH   1  19
ATOM     19  C   UNL     1       6.001   4.375  18.338  0.00  0.00    +0.000 C 
BRANCH  19  22
ATOM     20  C   UNL     1       5.600   4.835  14.824  0.00  0.00    +0.000 A 
ATOM     21  C   UNL     1       5.897   3.993  15.870  0.00  0.00    +0.000 A 
ATOM     22  N   UNL     1       5.946   4.803  16.960  0.00  0.00    +0.000 N 
ATOM     23  N   UNL     1       5.721   6.085  16.616  0.00  0.00    +0.000 NA
ATOM     24  N   UNL     1       5.512   6.115  15.301  0.00  0.00    +0.000 NA
BRANCH  20  25
ATOM     25  C   UNL     1       5.348   4.475  13.403  0.00  0.00    +0.000 C 
BRANCH  25  26
ATOM     26  C   UNL     1       6.496   3.688  12.746  0.00  0.00    +0.000 C 
BRANCH  26  27
ATOM     27  C   UNL     1       5.984   2.580  11.799  0.00  0.00    +0.000 C 
ATOM     28  O   UNL     1       4.819   2.468  11.419  0.00  0.00    +0.000 OA
ATOM     29  N   UNL     1       6.945   1.653  11.467  0.00  0.00    +0.000 N 
ATOM     30  H   UNL     1       7.926   1.919  11.534  0.00  0.00    +0.000 HD
BRANCH  29  31
ATOM     31  O   UNL     1       6.579   0.699  10.488  0.00  0.00    +0.000 OA
ATOM     32  H   UNL     1       6.207  -0.028  11.032  0.00  0.00    +0.000 HD
ENDBRANCH  29  31
ENDBRANCH  26  27
BRANCH  26  33
ATOM     33  N   UNL     1       7.475   4.560  12.041  0.00  0.00    +0.000 NA
ATOM     34  H   UNL     1       7.016   5.456  11.851  0.00  0.00    +0.000 HD
ATOM     35  H   UNL     1       7.632   4.172  11.104  0.00  0.00    +0.000 HD
ENDBRANCH  26  33
ENDBRANCH  25  26
ENDBRANCH  20  25
ENDBRANCH  19  22
ENDBRANCH   1  19
TORSDOF 10
ENDMDL
MODEL 8
REMARK VINA RESULT:      -7.2      2.595      8.854
REMARK  Name = 
REMARK  10 active torsions:
REMARK  status: ('A' for Active; 'I' for Inactive)
REMARK    1  A    between atoms: N_1  and  C_2
REMARK    2  A    between atoms: C_2  and  C_3
REMARK    3  A    between atoms: C_2  and  C_25
REMARK    4  A    between atoms: C_3  and  C_4
REMARK    5  A    between atoms: N_6  and  C_7
REMARK    6  A    between atoms: C_7  and  C_8
REMARK    7  A    between atoms: C_10  and  N_11
REMARK    8  A    between atoms: C_19  and  O_20
REMARK    9  A    between atoms: C_21  and  O_22
REMARK   10  A    between atoms: N_27  and  O_28
REMARK                            x       y       z     vdW  Elec       q    Type
REMARK                         _______ _______ _______ _____ _____    ______ ____
ROOT
ATOM      1  C   UNL     1       1.623   6.281  19.841  0.00  0.00    +0.000 C 
ATOM      2  O   UNL     1       2.162   6.221  18.497  0.00  0.00    +0.000 OA
ATOM      3  C   UNL     1       2.808   4.955  18.282  0.00  0.00    +0.000 C 
ATOM      4  C   UNL     1       2.941   4.238  19.631  0.00  0.00    +0.000 C 
ATOM      5  C   UNL     1       1.896   4.925  20.501  0.00  0.00    +0.000 C 
ENDROOT
BRANCH   3   6
ATOM      6  N   UNL     1       4.067   5.168  17.557  0.00  0.00    +0.000 N 
ATOM      7  C   UNL     1       4.565   6.453  17.419  0.00  0.00    +0.000 A 
ATOM      8  C   UNL     1       5.726   6.705  16.808  0.00  0.00    +0.000 A 
ATOM      9  C   UNL     1       6.504   5.585  16.264  0.00  0.00    +0.000 A 
ATOM     10  O   UNL     1       7.593   5.759  15.739  0.00  0.00    +0.000 OA
ATOM     11  N   UNL     1       5.926   4.352  16.393  0.00  0.00    +0.000 N 
ATOM     12  C   UNL     1       4.741   4.076  17.025  0.00  0.00    +0.000 A 
ATOM     13  O   UNL     1       4.336   2.917  17.086  0.00  0.00    +0.000 OA
ATOM     14  H   UNL     1       6.437   3.567  16.021  0.00  0.00    +0.000 HD
ENDBRANCH   3   6
BRANCH   4  15
ATOM     15  O   UNL     1       2.675   2.835  19.502  0.00  0.00    +0.000 OA
ATOM     16  H   UNL     1       3.545   2.389  19.442  0.00  0.00    +0.000 HD
ENDBRANCH   4  15
BRANCH   5  17
ATOM     17  O   UNL     1       0.701   4.126  20.530  0.00  0.00    +0.000 OA
ATOM     18  H   UNL     1       0.616   3.663  19.674  0.00  0.00    +0.000 HD
ENDBRANCH   5  17
BRANCH   1  19
ATOM     19  C   UNL     1       2.208   7.517  20.534  0.00  0.00    +0.000 C 
BRANCH  19  22
ATOM     20  C   UNL     1      -0.240  10.108  20.422  0.00  0.00    +0.000 A 
ATOM     21  C   UNL     1       0.739   9.392  19.776  0.00  0.00    +0.000 A 
ATOM     22  N   UNL     1       1.291   8.613  20.742  0.00  0.00    +0.000 N 
ATOM     23  N   UNL     1       0.711   8.845  21.935  0.00  0.00    +0.000 NA
ATOM     24  N   UNL     1      -0.230   9.769  21.749  0.00  0.00    +0.000 NA
BRANCH  20  25
ATOM     25  C   UNL     1      -1.217  11.062  19.833  0.00  0.00    +0.000 C 
BRANCH  25  26
ATOM     26  C   UNL     1      -0.991  11.342  18.337  0.00  0.00    +0.000 C 
BRANCH  26  27
ATOM     27  C   UNL     1      -2.316  11.507  17.561  0.00  0.00    +0.000 C 
ATOM     28  O   UNL     1      -3.416  11.678  18.085  0.00  0.00    +0.000 OA
ATOM     29  N   UNL     1      -2.178  11.365  16.199  0.00  0.00    +0.000 N 
ATOM     30  H   UNL     1      -1.263  11.527  15.781  0.00  0.00    +0.000 HD
BRANCH  29  31
ATOM     31  O   UNL     1      -3.325  11.651  15.423  0.00  0.00    +0.000 OA
ATOM     32  H   UNL     1      -3.654  10.754  15.196  0.00  0.00    +0.000 HD
ENDBRANCH  29  31
ENDBRANCH  26  27
BRANCH  26  33
ATOM     33  N   UNL     1      -0.096  12.506  18.089  0.00  0.00    +0.000 NA
ATOM     34  H   UNL     1       0.566  12.241  17.355  0.00  0.00    +0.000 HD
ATOM     35  H   UNL     1       0.502  12.629  18.914  0.00  0.00    +0.000 HD
ENDBRANCH  26  33
ENDBRANCH  25  26
ENDBRANCH  20  25
ENDBRANCH  19  22
ENDBRANCH   1  19
TORSDOF 10
ENDMDL
MODEL 9
REMARK VINA RESULT:      -7.2      2.931      9.208
REMARK  Name = 
REMARK  10 active torsions:
REMARK  status: ('A' for Active; 'I' for Inactive)
REMARK    1  A    between atoms: N_1  and  C_2
REMARK    2  A    between atoms: C_2  and  C_3
REMARK    3  A    between atoms: C_2  and  C_25
REMARK    4  A    between atoms: C_3  and  C_4
REMARK    5  A    between atoms: N_6  and  C_7
REMARK    6  A    between atoms: C_7  and  C_8
REMARK    7  A    between atoms: C_10  and  N_11
REMARK    8  A    between atoms: C_19  and  O_20
REMARK    9  A    between atoms: C_21  and  O_22
REMARK   10  A    between atoms: N_27  and  O_28
REMARK                            x       y       z     vdW  Elec       q    Type
REMARK                         _______ _______ _______ _____ _____    ______ ____
ROOT
ATOM      1  C   UNL     1       2.828   5.601  18.695  0.00  0.00    +0.000 C 
ATOM      2  O   UNL     1       3.284   5.141  17.398  0.00  0.00    +0.000 OA
ATOM      3  C   UNL     1       4.404   4.255  17.557  0.00  0.00    +0.000 C 
ATOM      4  C   UNL     1       4.890   4.335  19.010  0.00  0.00    +0.000 C 
ATOM      5  C   UNL     1       3.688   4.902  19.753  0.00  0.00    +0.000 C 
ENDROOT
BRANCH   3   6
ATOM      6  N   UNL     1       5.416   4.562  16.538  0.00  0.00    +0.000 N 
ATOM      7  C   UNL     1       5.514   3.762  15.412  0.00  0.00    +0.000 A 
ATOM      8  C   UNL     1       6.385   4.016  14.431  0.00  0.00    +0.000 A 
ATOM      9  C   UNL     1       7.268   5.184  14.545  0.00  0.00    +0.000 A 
ATOM     10  O   UNL     1       8.046   5.486  13.654  0.00  0.00    +0.000 OA
ATOM     11  N   UNL     1       7.148   5.898  15.705  0.00  0.00    +0.000 N 
ATOM     12  C   UNL     1       6.254   5.655  16.717  0.00  0.00    +0.000 A 
ATOM     13  O   UNL     1       6.238   6.385  17.707  0.00  0.00    +0.000 OA
ATOM     14  H   UNL     1       7.748   6.700  15.812  0.00  0.00    +0.000 HD
ENDBRANCH   3   6
BRANCH   4  15
ATOM     15  O   UNL     1       5.253   3.041  19.508  0.00  0.00    +0.000 OA
ATOM     16  H   UNL     1       4.419   2.587  19.745  0.00  0.00    +0.000 HD
ENDBRANCH   4  15
BRANCH   5  17
ATOM     17  O   UNL     1       2.959   3.826  20.369  0.00  0.00    +0.000 OA
ATOM     18  H   UNL     1       2.909   3.995  21.329  0.00  0.00    +0.000 HD
ENDBRANCH   5  17
BRANCH   1  19
ATOM     19  C   UNL     1       2.849   7.134  18.690  0.00  0.00    +0.000 C 
BRANCH  19  22
ATOM     20  C   UNL     1       0.608   9.076  20.672  0.00  0.00    +0.000 A 
ATOM     21  C   UNL     1       1.479   9.012  19.610  0.00  0.00    +0.000 A 
ATOM     22  N   UNL     1       2.037   7.776  19.697  0.00  0.00    +0.000 N 
ATOM     23  N   UNL     1       1.564   7.110  20.767  0.00  0.00    +0.000 NA
ATOM     24  N   UNL     1       0.687   7.905  21.378  0.00  0.00    +0.000 NA
BRANCH  20  25
ATOM     25  C   UNL     1      -0.332  10.175  21.020  0.00  0.00    +0.000 C 
BRANCH  25  26
ATOM     26  C   UNL     1      -0.344  10.534  22.516  0.00  0.00    +0.000 C 
BRANCH  26  27
ATOM     27  C   UNL     1      -1.187  11.794  22.814  0.00  0.00    +0.000 C 
ATOM     28  O   UNL     1      -2.316  11.780  23.302  0.00  0.00    +0.000 OA
ATOM     29  N   UNL     1      -0.590  12.964  22.405  0.00  0.00    +0.000 N 
ATOM     30  H   UNL     1       0.423  12.985  22.294  0.00  0.00    +0.000 HD
BRANCH  29  31
ATOM     31  O   UNL     1      -1.243  14.162  22.781  0.00  0.00    +0.000 OA
ATOM     32  H   UNL     1      -0.516  14.676  23.195  0.00  0.00    +0.000 HD
ENDBRANCH  29  31
ENDBRANCH  26  27
BRANCH  26  33
ATOM     33  N   UNL     1      -0.776   9.405  23.385  0.00  0.00    +0.000 NA
ATOM     34  H   UNL     1      -0.502   8.533  22.924  0.00  0.00    +0.000 HD
ATOM     35  H   UNL     1      -1.801   9.366  23.372  0.00  0.00    +0.000 HD
ENDBRANCH  26  33
ENDBRANCH  25  26
ENDBRANCH  20  25
ENDBRANCH  19  22
ENDBRANCH   1  19
TORSDOF 10
ENDMDL
