MODEL 1
REMARK VINA RESULT:      -7.5      0.000      0.000
REMARK  Name = 
REMARK  11 active torsions:
REMARK  status: ('A' for Active; 'I' for Inactive)
REMARK    1  A    between atoms: C_1  and  C_2
REMARK    2  A    between atoms: C_2  and  C_3
REMARK    3  A    between atoms: C_6  and  O_7
REMARK    4  A    between atoms: O_7  and  C_8
REMARK    5  A    between atoms: C_8  and  C_9
REMARK    6  A    between atoms: N_11  and  C_12
REMARK    7  A    between atoms: C_12  and  C_13
REMARK    8  A    between atoms: C_13  and  O_14
REMARK    9  A    between atoms: O_14  and  C_15
REMARK   10  A    between atoms: C_15  and  C_16
REMARK   11  A    between atoms: C_16  and  O_17
REMARK                            x       y       z     vdW  Elec       q    Type
REMARK                         _______ _______ _______ _____ _____    ______ ____
ROOT
ATOM      1  C   UNL     1      -0.619   8.394  21.629  0.00  0.00    +0.000 C 
ATOM      2  C   UNL     1       0.722   9.064  21.265  0.00  0.00    +0.000 C 
ATOM      3  C   UNL     1       1.603   9.264  22.514  0.00  0.00    +0.000 C 
ATOM      4  C   UNL     1       1.487   8.195  20.250  0.00  0.00    +0.000 A 
ATOM      5  C   UNL     1       1.831   6.876  20.602  0.00  0.00    +0.000 A 
ATOM      6  C   UNL     1       2.531   6.039  19.735  0.00  0.00    +0.000 A 
ATOM      7  C   UNL     1       2.935   6.516  18.494  0.00  0.00    +0.000 A 
ATOM      8  C   UNL     1       2.611   7.829  18.117  0.00  0.00    +0.000 A 
ATOM      9  C   UNL     1       1.888   8.674  18.980  0.00  0.00    +0.000 A 
ATOM     10  C   UNL     1       1.575  10.074  18.516  0.00  0.00    +0.000 C 
ATOM     11  O   UNL     1       1.941  10.473  17.421  0.00  0.00    +0.000 OA
ATOM     12  C   UNL     1       0.824  10.894  19.443  0.00  0.00    +0.000 A 
ATOM     13  C   UNL     1       0.442  10.405  20.670  0.00  0.00    +0.000 A 
ATOM     14  O   UNL     1      -0.251  11.323  21.384  0.00  0.00    +0.000 OA
ATOM     15  C   UNL     1      -0.315  12.439  20.605  0.00  0.00    +0.000 A 
ATOM     16  C   UNL     1      -0.942  13.629  20.969  0.00  0.00    +0.000 A 
ATOM     17  C   UNL     1      -0.889  14.669  20.038  0.00  0.00    +0.000 A 
ATOM     18  C   UNL     1      -0.243  14.507  18.810  0.00  0.00    +0.000 A 
ATOM     19  C   UNL     1       0.375  13.292  18.471  0.00  0.00    +0.000 A 
ATOM     20  C   UNL     1       0.338  12.229  19.390  0.00  0.00    +0.000 A 
ENDROOT
BRANCH   6  21
ATOM     21  O   UNL     1       2.798   4.807  20.253  0.00  0.00    +0.000 OA
BRANCH  21  22
ATOM     22  C   UNL     1       2.770   3.706  19.347  0.00  0.00    +0.000 C 
BRANCH  22  23
ATOM     23  C   UNL     1       4.133   3.561  18.658  0.00  0.00    +0.000 C 
ATOM     24  O   UNL     1       5.163   3.344  19.294  0.00  0.00    +0.000 OA
ATOM     25  N   UNL     1       4.113   3.697  17.286  0.00  0.00    +0.000 N 
ATOM     26  H   UNL     1       3.256   4.051  16.870  0.00  0.00    +0.000 HD
BRANCH  25  27
ATOM     27  C   UNL     1       5.333   3.716  16.502  0.00  0.00    +0.000 C 
BRANCH  27  28
ATOM     28  C   UNL     1       5.660   5.106  15.951  0.00  0.00    +0.000 C 
BRANCH  28  29
ATOM     29  O   UNL     1       6.187   5.941  16.993  0.00  0.00    +0.000 OA
BRANCH  29  30
ATOM     30  C   UNL     1       7.384   5.373  17.546  0.00  0.00    +0.000 C 
BRANCH  30  31
ATOM     31  C   UNL     1       7.709   6.064  18.867  0.00  0.00    +0.000 C 
BRANCH  31  32
ATOM     32  O   UNL     1       7.191   5.312  19.962  0.00  0.00    +0.000 OA
ATOM     33  H   UNL     1       7.956   4.843  20.345  0.00  0.00    +0.000 HD
ENDBRANCH  31  32
ENDBRANCH  30  31
ENDBRANCH  29  30
ENDBRANCH  28  29
ENDBRANCH  27  28
ENDBRANCH  25  27
ENDBRANCH  22  23
ENDBRANCH  21  22
ENDBRANCH   6  21
TORSDOF 9
ENDMDL
MODEL 2
REMARK VINA RESULT:      -7.5      1.901      3.861
REMARK  Name = 
REMARK  11 active torsions:
REMARK  status: ('A' for Active; 'I' for Inactive)
REMARK    1  A    between atoms: C_1  and  C_2
REMARK    2  A    between atoms: C_2  and  C_3
REMARK    3  A    between atoms: C_6  and  O_7
REMARK    4  A    between atoms: O_7  and  C_8
REMARK    5  A    between atoms: C_8  and  C_9
REMARK    6  A    between atoms: N_11  and  C_12
REMARK    7  A    between atoms: C_12  and  C_13
REMARK    8  A    between atoms: C_13  and  O_14
REMARK    9  A    between atoms: O_14  and  C_15
REMARK   10  A    between atoms: C_15  and  C_16
REMARK   11  A    between atoms: C_16  and  O_17
REMARK                            x       y       z     vdW  Elec       q    Type
REMARK                         _______ _______ _______ _____ _____    ______ ____
ROOT
ATOM      1  C   UNL     1       1.641  11.504  18.464  0.00  0.00    +0.000 C 
ATOM      2  C   UNL     1       0.531  10.520  18.886  0.00  0.00    +0.000 C 
ATOM      3  C   UNL     1      -0.432  10.230  17.717  0.00  0.00    +0.000 C 
ATOM      4  C   UNL     1       1.153   9.194  19.361  0.00  0.00    +0.000 A 
ATOM      5  C   UNL     1       1.960   8.461  18.469  0.00  0.00    +0.000 A 
ATOM      6  C   UNL     1       2.546   7.249  18.830  0.00  0.00    +0.000 A 
ATOM      7  C   UNL     1       2.312   6.721  20.093  0.00  0.00    +0.000 A 
ATOM      8  C   UNL     1       1.508   7.426  21.003  0.00  0.00    +0.000 A 
ATOM      9  C   UNL     1       0.928   8.660  20.651  0.00  0.00    +0.000 A 
ATOM     10  C   UNL     1       0.072   9.366  21.672  0.00  0.00    +0.000 C 
ATOM     11  O   UNL     1      -0.121   8.882  22.777  0.00  0.00    +0.000 OA
ATOM     12  C   UNL     1      -0.492  10.633  21.257  0.00  0.00    +0.000 A 
ATOM     13  C   UNL     1      -0.255  11.133  19.998  0.00  0.00    +0.000 A 
ATOM     14  O   UNL     1      -0.867  12.325  19.808  0.00  0.00    +0.000 OA
ATOM     15  C   UNL     1      -1.524  12.604  20.968  0.00  0.00    +0.000 A 
ATOM     16  C   UNL     1      -2.291  13.746  21.196  0.00  0.00    +0.000 A 
ATOM     17  C   UNL     1      -2.900  13.846  22.449  0.00  0.00    +0.000 A 
ATOM     18  C   UNL     1      -2.734  12.849  23.414  0.00  0.00    +0.000 A 
ATOM     19  C   UNL     1      -1.950  11.712  23.156  0.00  0.00    +0.000 A 
ATOM     20  C   UNL     1      -1.327  11.586  21.901  0.00  0.00    +0.000 A 
ENDROOT
BRANCH   6  21
ATOM     21  O   UNL     1       3.272   6.668  17.833  0.00  0.00    +0.000 OA
BRANCH  21  22
ATOM     22  C   UNL     1       4.616   6.306  18.141  0.00  0.00    +0.000 C 
BRANCH  22  23
ATOM     23  C   UNL     1       4.731   4.781  18.263  0.00  0.00    +0.000 C 
ATOM     24  O   UNL     1       5.675   4.244  18.837  0.00  0.00    +0.000 OA
ATOM     25  N   UNL     1       3.705   4.068  17.677  0.00  0.00    +0.000 N 
ATOM     26  H   UNL     1       3.070   4.584  17.075  0.00  0.00    +0.000 HD
BRANCH  25  27
ATOM     27  C   UNL     1       3.733   2.620  17.592  0.00  0.00    +0.000 C 
BRANCH  27  28
ATOM     28  C   UNL     1       2.456   1.972  18.133  0.00  0.00    +0.000 C 
BRANCH  28  29
ATOM     29  O   UNL     1       2.445   2.023  19.568  0.00  0.00    +0.000 OA
BRANCH  29  30
ATOM     30  C   UNL     1       1.297   2.743  20.044  0.00  0.00    +0.000 C 
BRANCH  30  31
ATOM     31  C   UNL     1       1.363   2.851  21.565  0.00  0.00    +0.000 C 
BRANCH  31  32
ATOM     32  O   UNL     1       2.660   2.492  22.034  0.00  0.00    +0.000 OA
ATOM     33  H   UNL     1       2.852   3.102  22.771  0.00  0.00    +0.000 HD
ENDBRANCH  31  32
ENDBRANCH  30  31
ENDBRANCH  29  30
ENDBRANCH  28  29
ENDBRANCH  27  28
ENDBRANCH  25  27
ENDBRANCH  22  23
ENDBRANCH  21  22
ENDBRANCH   6  21
TORSDOF 9
ENDMDL
MODEL 3
REMARK VINA RESULT:      -7.4      1.336      1.725
REMARK  Name = 
REMARK  11 active torsions:
REMARK  status: ('A' for Active; 'I' for Inactive)
REMARK    1  A    between atoms: C_1  and  C_2
REMARK    2  A    between atoms: C_2  and  C_3
REMARK    3  A    between atoms: C_6  and  O_7
REMARK    4  A    between atoms: O_7  and  C_8
REMARK    5  A    between atoms: C_8  and  C_9
REMARK    6  A    between atoms: N_11  and  C_12
REMARK    7  A    between atoms: C_12  and  C_13
REMARK    8  A    between atoms: C_13  and  O_14
REMARK    9  A    between atoms: O_14  and  C_15
REMARK   10  A    between atoms: C_15  and  C_16
REMARK   11  A    between atoms: C_16  and  O_17
REMARK                            x       y       z     vdW  Elec       q    Type
REMARK                         _______ _______ _______ _____ _____    ______ ____
ROOT
ATOM      1  C   UNL     1      -0.572   8.464  21.911  0.00  0.00    +0.000 C 
ATOM      2  C   UNL     1       0.635   9.373  21.607  0.00  0.00    +0.000 C 
ATOM      3  C   UNL     1       1.737   9.214  22.675  0.00  0.00    +0.000 C 
ATOM      4  C   UNL     1       1.225   9.024  20.228  0.00  0.00    +0.000 A 
ATOM      5  C   UNL     1       1.694   7.717  19.997  0.00  0.00    +0.000 A 
ATOM      6  C   UNL     1       2.248   7.337  18.775  0.00  0.00    +0.000 A 
ATOM      7  C   UNL     1       2.374   8.272  17.756  0.00  0.00    +0.000 A 
ATOM      8  C   UNL     1       1.918   9.585  17.958  0.00  0.00    +0.000 A 
ATOM      9  C   UNL     1       1.341   9.971  19.183  0.00  0.00    +0.000 A 
ATOM     10  C   UNL     1       0.876  11.397  19.338  0.00  0.00    +0.000 C 
ATOM     11  O   UNL     1       0.997  12.203  18.428  0.00  0.00    +0.000 OA
ATOM     12  C   UNL     1       0.286  11.734  20.616  0.00  0.00    +0.000 A 
ATOM     13  C   UNL     1       0.179  10.795  21.614  0.00  0.00    +0.000 A 
ATOM     14  O   UNL     1      -0.401  11.306  22.725  0.00  0.00    +0.000 OA
ATOM     15  C   UNL     1      -0.673  12.612  22.445  0.00  0.00    +0.000 A 
ATOM     16  C   UNL     1      -1.271  13.509  23.328  0.00  0.00    +0.000 A 
ATOM     17  C   UNL     1      -1.454  14.812  22.860  0.00  0.00    +0.000 A 
ATOM     18  C   UNL     1      -1.058  15.179  21.571  0.00  0.00    +0.000 A 
ATOM     19  C   UNL     1      -0.462  14.250  20.703  0.00  0.00    +0.000 A 
ATOM     20  C   UNL     1      -0.265  12.931  21.149  0.00  0.00    +0.000 A 
ENDROOT
BRANCH   6  21
ATOM     21  O   UNL     1       2.671   6.041  18.741  0.00  0.00    +0.000 OA
BRANCH  21  22
ATOM     22  C   UNL     1       3.707   5.677  19.651  0.00  0.00    +0.000 C 
BRANCH  22  23
ATOM     23  C   UNL     1       4.869   5.027  18.889  0.00  0.00    +0.000 C 
ATOM     24  O   UNL     1       5.895   4.662  19.457  0.00  0.00    +0.000 OA
ATOM     25  N   UNL     1       4.674   4.893  17.530  0.00  0.00    +0.000 N 
ATOM     26  H   UNL     1       3.880   5.382  17.127  0.00  0.00    +0.000 HD
BRANCH  25  27
ATOM     27  C   UNL     1       5.726   4.419  16.651  0.00  0.00    +0.000 C 
BRANCH  27  28
ATOM     28  C   UNL     1       6.339   5.537  15.805  0.00  0.00    +0.000 C 
BRANCH  28  29
ATOM     29  O   UNL     1       7.487   6.089  16.468  0.00  0.00    +0.000 OA
BRANCH  29  30
ATOM     30  C   UNL     1       7.130   7.263  17.214  0.00  0.00    +0.000 C 
BRANCH  30  31
ATOM     31  C   UNL     1       8.158   7.494  18.317  0.00  0.00    +0.000 C 
BRANCH  31  32
ATOM     32  O   UNL     1       8.190   6.382  19.208  0.00  0.00    +0.000 OA
ATOM     33  H   UNL     1       7.875   5.619  18.689  0.00  0.00    +0.000 HD
ENDBRANCH  31  32
ENDBRANCH  30  31
ENDBRANCH  29  30
ENDBRANCH  28  29
ENDBRANCH  27  28
ENDBRANCH  25  27
ENDBRANCH  22  23
ENDBRANCH  21  22
ENDBRANCH   6  21
TORSDOF 9
ENDMDL
MODEL 4
REMARK VINA RESULT:      -7.4      1.495      1.961
REMARK  Name = 
REMARK  11 active torsions:
REMARK  status: ('A' for Active; 'I' for Inactive)
REMARK    1  A    between atoms: C_1  and  C_2
REMARK    2  A    between atoms: C_2  and  C_3
REMARK    3  A    between atoms: C_6  and  O_7
REMARK    4  A    between atoms: O_7  and  C_8
REMARK    5  A    between atoms: C_8  and  C_9
REMARK    6  A    between atoms: N_11  and  C_12
REMARK    7  A    between atoms: C_12  and  C_13
REMARK    8  A    between atoms: C_13  and  O_14
REMARK    9  A    between atoms: O_14  and  C_15
REMARK   10  A    between atoms: C_15  and  C_16
REMARK   11  A    between atoms: C_16  and  O_17
REMARK                            x       y       z     vdW  Elec       q    Type
REMARK                         _______ _______ _______ _____ _____    ______ ____
ROOT
ATOM      1  C   UNL     1      -0.552   8.130  21.947  0.00  0.00    +0.000 C 
ATOM      2  C   UNL     1       0.414   9.286  21.617  0.00  0.00    +0.000 C 
ATOM      3  C   UNL     1       1.536   9.394  22.669  0.00  0.00    +0.000 C 
ATOM      4  C   UNL     1       1.049   9.064  20.232  0.00  0.00    +0.000 A 
ATOM      5  C   UNL     1       1.801   7.895  20.005  0.00  0.00    +0.000 A 
ATOM      6  C   UNL     1       2.411   7.637  18.778  0.00  0.00    +0.000 A 
ATOM      7  C   UNL     1       2.307   8.564  17.749  0.00  0.00    +0.000 A 
ATOM      8  C   UNL     1       1.568   9.741  17.947  0.00  0.00    +0.000 A 
ATOM      9  C   UNL     1       0.934  10.000  19.177  0.00  0.00    +0.000 A 
ATOM     10  C   UNL     1       0.158  11.285  19.327  0.00  0.00    +0.000 C 
ATOM     11  O   UNL     1       0.082  12.087  18.409  0.00  0.00    +0.000 OA
ATOM     12  C   UNL     1      -0.477  11.494  20.611  0.00  0.00    +0.000 A 
ATOM     13  C   UNL     1      -0.354  10.567  21.619  0.00  0.00    +0.000 A 
ATOM     14  O   UNL     1      -1.021  10.946  22.734  0.00  0.00    +0.000 OA
ATOM     15  C   UNL     1      -1.586  12.152  22.447  0.00  0.00    +0.000 A 
ATOM     16  C   UNL     1      -2.361  12.900  23.332  0.00  0.00    +0.000 A 
ATOM     17  C   UNL     1      -2.842  14.122  22.856  0.00  0.00    +0.000 A 
ATOM     18  C   UNL     1      -2.557  14.554  21.558  0.00  0.00    +0.000 A 
ATOM     19  C   UNL     1      -1.776  13.775  20.689  0.00  0.00    +0.000 A 
ATOM     20  C   UNL     1      -1.278  12.541  21.143  0.00  0.00    +0.000 A 
ENDROOT
BRANCH   6  21
ATOM     21  O   UNL     1       3.117   6.471  18.748  0.00  0.00    +0.000 OA
BRANCH  21  22
ATOM     22  C   UNL     1       2.395   5.288  18.414  0.00  0.00    +0.000 C 
BRANCH  22  23
ATOM     23  C   UNL     1       3.246   4.396  17.501  0.00  0.00    +0.000 C 
ATOM     24  O   UNL     1       2.838   3.314  17.085  0.00  0.00    +0.000 OA
ATOM     25  N   UNL     1       4.494   4.896  17.193  0.00  0.00    +0.000 N 
ATOM     26  H   UNL     1       4.811   5.704  17.722  0.00  0.00    +0.000 HD
BRANCH  25  27
ATOM     27  C   UNL     1       5.466   4.118  16.449  0.00  0.00    +0.000 C 
BRANCH  27  28
ATOM     28  C   UNL     1       6.431   4.992  15.644  0.00  0.00    +0.000 C 
BRANCH  28  29
ATOM     29  O   UNL     1       7.518   5.426  16.475  0.00  0.00    +0.000 OA
BRANCH  29  30
ATOM     30  C   UNL     1       7.602   4.626  17.665  0.00  0.00    +0.000 C 
BRANCH  30  31
ATOM     31  C   UNL     1       7.698   5.539  18.883  0.00  0.00    +0.000 C 
BRANCH  31  32
ATOM     32  O   UNL     1       6.569   5.356  19.733  0.00  0.00    +0.000 OA
ATOM     33  H   UNL     1       5.789   5.558  19.182  0.00  0.00    +0.000 HD
ENDBRANCH  31  32
ENDBRANCH  30  31
ENDBRANCH  29  30
ENDBRANCH  28  29
ENDBRANCH  27  28
ENDBRANCH  25  27
ENDBRANCH  22  23
ENDBRANCH  21  22
ENDBRANCH   6  21
TORSDOF 9
ENDMDL
MODEL 5
REMARK VINA RESULT:      -7.4      2.008      3.262
REMARK  Name = 
REMARK  11 active torsions:
REMARK  status: ('A' for Active; 'I' for Inactive)
REMARK    1  A    between atoms: C_1  and  C_2
REMARK    2  A    between atoms: C_2  and  C_3
REMARK    3  A    between atoms: C_6  and  O_7
REMARK    4  A    between atoms: O_7  and  C_8
REMARK    5  A    between atoms: C_8  and  C_9
REMARK    6  A    between atoms: N_11  and  C_12
REMARK    7  A    between atoms: C_12  and  C_13
REMARK    8  A    between atoms: C_13  and  O_14
REMARK    9  A    between atoms: O_14  and  C_15
REMARK   10  A    between atoms: C_15  and  C_16
REMARK   11  A    between atoms: C_16  and  O_17
REMARK                            x       y       z     vdW  Elec       q    Type
REMARK                         _______ _______ _______ _____ _____    ______ ____
ROOT
ATOM      1  C   UNL     1      -0.667   8.253  21.952  0.00  0.00    +0.000 C 
ATOM      2  C   UNL     1       0.278   9.432  21.643  0.00  0.00    +0.000 C 
ATOM      3  C   UNL     1       1.372   9.568  22.721  0.00  0.00    +0.000 C 
ATOM      4  C   UNL     1       0.951   9.225  20.273  0.00  0.00    +0.000 A 
ATOM      5  C   UNL     1       1.736   8.074  20.065  0.00  0.00    +0.000 A 
ATOM      6  C   UNL     1       2.380   7.830  18.854  0.00  0.00    +0.000 A 
ATOM      7  C   UNL     1       2.279   8.754  17.822  0.00  0.00    +0.000 A 
ATOM      8  C   UNL     1       1.506   9.913  18.001  0.00  0.00    +0.000 A 
ATOM      9  C   UNL     1       0.838  10.157  19.215  0.00  0.00    +0.000 A 
ATOM     10  C   UNL     1       0.027  11.423  19.345  0.00  0.00    +0.000 C 
ATOM     11  O   UNL     1      -0.047  12.222  18.424  0.00  0.00    +0.000 OA
ATOM     12  C   UNL     1      -0.642  11.617  20.614  0.00  0.00    +0.000 A 
ATOM     13  C   UNL     1      -0.520  10.694  21.625  0.00  0.00    +0.000 A 
ATOM     14  O   UNL     1      -1.223  11.057  22.724  0.00  0.00    +0.000 OA
ATOM     15  C   UNL     1      -1.810  12.249  22.422  0.00  0.00    +0.000 A 
ATOM     16  C   UNL     1      -2.624  12.979  23.287  0.00  0.00    +0.000 A 
ATOM     17  C   UNL     1      -3.123  14.189  22.799  0.00  0.00    +0.000 A 
ATOM     18  C   UNL     1      -2.818  14.627  21.508  0.00  0.00    +0.000 A 
ATOM     19  C   UNL     1      -1.998  13.866  20.658  0.00  0.00    +0.000 A 
ATOM     20  C   UNL     1      -1.481  12.644  21.125  0.00  0.00    +0.000 A 
ENDROOT
BRANCH   6  21
ATOM     21  O   UNL     1       3.115   6.682  18.842  0.00  0.00    +0.000 OA
BRANCH  21  22
ATOM     22  C   UNL     1       3.498   6.174  17.566  0.00  0.00    +0.000 C 
BRANCH  22  23
ATOM     23  C   UNL     1       3.950   4.714  17.698  0.00  0.00    +0.000 C 
ATOM     24  O   UNL     1       3.964   3.948  16.737  0.00  0.00    +0.000 OA
ATOM     25  N   UNL     1       4.328   4.331  18.968  0.00  0.00    +0.000 N 
ATOM     26  H   UNL     1       4.113   4.973  19.726  0.00  0.00    +0.000 HD
BRANCH  25  27
ATOM     27  C   UNL     1       4.656   2.954  19.285  0.00  0.00    +0.000 C 
BRANCH  27  28
ATOM     28  C   UNL     1       3.419   2.110  19.603  0.00  0.00    +0.000 C 
BRANCH  28  29
ATOM     29  O   UNL     1       2.869   2.496  20.872  0.00  0.00    +0.000 OA
BRANCH  29  30
ATOM     30  C   UNL     1       1.471   2.800  20.751  0.00  0.00    +0.000 C 
BRANCH  30  31
ATOM     31  C   UNL     1       1.289   4.313  20.661  0.00  0.00    +0.000 C 
BRANCH  31  32
ATOM     32  O   UNL     1       2.409   4.984  21.232  0.00  0.00    +0.000 OA
ATOM     33  H   UNL     1       3.117   4.315  21.289  0.00  0.00    +0.000 HD
ENDBRANCH  31  32
ENDBRANCH  30  31
ENDBRANCH  29  30
ENDBRANCH  28  29
ENDBRANCH  27  28
ENDBRANCH  25  27
ENDBRANCH  22  23
ENDBRANCH  21  22
ENDBRANCH   6  21
TORSDOF 9
ENDMDL
MODEL 6
REMARK VINA RESULT:      -7.4      2.094      3.498
REMARK  Name = 
REMARK  11 active torsions:
REMARK  status: ('A' for Active; 'I' for Inactive)
REMARK    1  A    between atoms: C_1  and  C_2
REMARK    2  A    between atoms: C_2  and  C_3
REMARK    3  A    between atoms: C_6  and  O_7
REMARK    4  A    between atoms: O_7  and  C_8
REMARK    5  A    between atoms: C_8  and  C_9
REMARK    6  A    between atoms: N_11  and  C_12
REMARK    7  A    between atoms: C_12  and  C_13
REMARK    8  A    between atoms: C_13  and  O_14
REMARK    9  A    between atoms: O_14  and  C_15
REMARK   10  A    between atoms: C_15  and  C_16
REMARK   11  A    between atoms: C_16  and  O_17
REMARK                            x       y       z     vdW  Elec       q    Type
REMARK                         _______ _______ _______ _____ _____    ______ ____
ROOT
ATOM      1  C   UNL     1      -0.573   8.495  21.831  0.00  0.00    +0.000 C 
ATOM      2  C   UNL     1       0.595   9.462  21.551  0.00  0.00    +0.000 C 
ATOM      3  C   UNL     1       1.726   9.286  22.584  0.00  0.00    +0.000 C 
ATOM      4  C   UNL     1       1.163   9.209  20.142  0.00  0.00    +0.000 A 
ATOM      5  C   UNL     1       1.672   7.934  19.830  0.00  0.00    +0.000 A 
ATOM      6  C   UNL     1       2.210   7.640  18.578  0.00  0.00    +0.000 A 
ATOM      7  C   UNL     1       2.279   8.632  17.608  0.00  0.00    +0.000 A 
ATOM      8  C   UNL     1       1.782   9.915  17.891  0.00  0.00    +0.000 A 
ATOM      9  C   UNL     1       1.222  10.214  19.147  0.00  0.00    +0.000 A 
ATOM     10  C   UNL     1       0.710  11.612  19.390  0.00  0.00    +0.000 C 
ATOM     11  O   UNL     1       0.782  12.469  18.522  0.00  0.00    +0.000 OA
ATOM     12  C   UNL     1       0.139  11.858  20.697  0.00  0.00    +0.000 A 
ATOM     13  C   UNL     1       0.089  10.864  21.645  0.00  0.00    +0.000 A 
ATOM     14  O   UNL     1      -0.482  11.294  22.795  0.00  0.00    +0.000 OA
ATOM     15  C   UNL     1      -0.806  12.601  22.591  0.00  0.00    +0.000 A 
ATOM     16  C   UNL     1      -1.414  13.428  23.535  0.00  0.00    +0.000 A 
ATOM     17  C   UNL     1      -1.654  14.747  23.143  0.00  0.00    +0.000 A 
ATOM     18  C   UNL     1      -1.302  15.197  21.868  0.00  0.00    +0.000 A 
ATOM     19  C   UNL     1      -0.694  14.337  20.937  0.00  0.00    +0.000 A 
ATOM     20  C   UNL     1      -0.440  13.004  21.307  0.00  0.00    +0.000 A 
ENDROOT
BRANCH   6  21
ATOM     21  O   UNL     1       2.678   6.365  18.464  0.00  0.00    +0.000 OA
BRANCH  21  22
ATOM     22  C   UNL     1       3.919   6.074  19.102  0.00  0.00    +0.000 C 
BRANCH  22  23
ATOM     23  C   UNL     1       3.827   4.729  19.836  0.00  0.00    +0.000 C 
ATOM     24  O   UNL     1       4.586   3.796  19.581  0.00  0.00    +0.000 OA
ATOM     25  N   UNL     1       2.833   4.649  20.789  0.00  0.00    +0.000 N 
ATOM     26  H   UNL     1       2.147   5.398  20.803  0.00  0.00    +0.000 HD
BRANCH  25  27
ATOM     27  C   UNL     1       2.532   3.408  21.477  0.00  0.00    +0.000 C 
BRANCH  27  28
ATOM     28  C   UNL     1       1.160   2.843  21.102  0.00  0.00    +0.000 C 
BRANCH  28  29
ATOM     29  O   UNL     1       0.780   3.290  19.792  0.00  0.00    +0.000 OA
BRANCH  29  30
ATOM     30  C   UNL     1       0.811   2.204  18.853  0.00  0.00    +0.000 C 
BRANCH  30  31
ATOM     31  C   UNL     1       2.028   2.355  17.945  0.00  0.00    +0.000 C 
BRANCH  31  32
ATOM     32  O   UNL     1       3.046   1.430  18.319  0.00  0.00    +0.000 OA
ATOM     33  H   UNL     1       2.889   1.231  19.261  0.00  0.00    +0.000 HD
ENDBRANCH  31  32
ENDBRANCH  30  31
ENDBRANCH  29  30
ENDBRANCH  28  29
ENDBRANCH  27  28
ENDBRANCH  25  27
ENDBRANCH  22  23
ENDBRANCH  21  22
ENDBRANCH   6  21
TORSDOF 9
ENDMDL
MODEL 7
REMARK VINA RESULT:      -7.2      0.928      1.557
REMARK  Name = 
REMARK  11 active torsions:
REMARK  status: ('A' for Active; 'I' for Inactive)
REMARK    1  A    between atoms: C_1  and  C_2
REMARK    2  A    between atoms: C_2  and  C_3
REMARK    3  A    between atoms: C_6  and  O_7
REMARK    4  A    between atoms: O_7  and  C_8
REMARK    5  A    between atoms: C_8  and  C_9
REMARK    6  A    between atoms: N_11  and  C_12
REMARK    7  A    between atoms: C_12  and  C_13
REMARK    8  A    between atoms: C_13  and  O_14
REMARK    9  A    between atoms: O_14  and  C_15
REMARK   10  A    between atoms: C_15  and  C_16
REMARK   11  A    between atoms: C_16  and  O_17
REMARK                            x       y       z     vdW  Elec       q    Type
REMARK                         _______ _______ _______ _____ _____    ______ ____
ROOT
ATOM      1  C   UNL     1      -0.581   8.475  21.653  0.00  0.00    +0.000 C 
ATOM      2  C   UNL     1       0.759   9.120  21.247  0.00  0.00    +0.000 C 
ATOM      3  C   UNL     1       1.693   9.279  22.464  0.00  0.00    +0.000 C 
ATOM      4  C   UNL     1       1.464   8.251  20.189  0.00  0.00    +0.000 A 
ATOM      5  C   UNL     1       1.790   6.918  20.507  0.00  0.00    +0.000 A 
ATOM      6  C   UNL     1       2.436   6.080  19.600  0.00  0.00    +0.000 A 
ATOM      7  C   UNL     1       2.802   6.568  18.352  0.00  0.00    +0.000 A 
ATOM      8  C   UNL     1       2.494   7.894  18.007  0.00  0.00    +0.000 A 
ATOM      9  C   UNL     1       1.825   8.741  18.912  0.00  0.00    +0.000 A 
ATOM     10  C   UNL     1       1.527  10.156  18.483  0.00  0.00    +0.000 C 
ATOM     11  O   UNL     1       1.860  10.564  17.380  0.00  0.00    +0.000 OA
ATOM     12  C   UNL     1       0.833  10.977  19.451  0.00  0.00    +0.000 A 
ATOM     13  C   UNL     1       0.488  10.476  20.684  0.00  0.00    +0.000 A 
ATOM     14  O   UNL     1      -0.155  11.398  21.440  0.00  0.00    +0.000 OA
ATOM     15  C   UNL     1      -0.223  12.528  20.681  0.00  0.00    +0.000 A 
ATOM     16  C   UNL     1      -0.807  13.726  21.088  0.00  0.00    +0.000 A 
ATOM     17  C   UNL     1      -0.767  14.780  20.172  0.00  0.00    +0.000 A 
ATOM     18  C   UNL     1      -0.174  14.623  18.917  0.00  0.00    +0.000 A 
ATOM     19  C   UNL     1       0.403  13.400  18.535  0.00  0.00    +0.000 A 
ATOM     20  C   UNL     1       0.376  12.323  19.439  0.00  0.00    +0.000 A 
ENDROOT
BRANCH   6  21
ATOM     21  O   UNL     1       2.694   4.834  20.088  0.00  0.00    +0.000 OA
BRANCH  21  22
ATOM     22  C   UNL     1       3.162   3.861  19.156  0.00  0.00    +0.000 C 
BRANCH  22  23
ATOM     23  C   UNL     1       4.692   3.767  19.222  0.00  0.00    +0.000 C 
ATOM     24  O   UNL     1       5.262   2.874  19.846  0.00  0.00    +0.000 OA
ATOM     25  N   UNL     1       5.369   4.755  18.539  0.00  0.00    +0.000 N 
ATOM     26  H   UNL     1       4.821   5.544  18.208  0.00  0.00    +0.000 HD
BRANCH  25  27
ATOM     27  C   UNL     1       6.812   4.883  18.610  0.00  0.00    +0.000 C 
BRANCH  27  28
ATOM     28  C   UNL     1       7.510   4.420  17.329  0.00  0.00    +0.000 C 
BRANCH  28  29
ATOM     29  O   UNL     1       7.572   5.498  16.382  0.00  0.00    +0.000 OA
BRANCH  29  30
ATOM     30  C   UNL     1       7.011   5.102  15.121  0.00  0.00    +0.000 C 
BRANCH  30  31
ATOM     31  C   UNL     1       5.502   5.327  15.146  0.00  0.00    +0.000 C 
BRANCH  31  32
ATOM     32  O   UNL     1       5.208   6.710  15.324  0.00  0.00    +0.000 OA
ATOM     33  H   UNL     1       4.520   6.747  16.015  0.00  0.00    +0.000 HD
ENDBRANCH  31  32
ENDBRANCH  30  31
ENDBRANCH  29  30
ENDBRANCH  28  29
ENDBRANCH  27  28
ENDBRANCH  25  27
ENDBRANCH  22  23
ENDBRANCH  21  22
ENDBRANCH   6  21
TORSDOF 9
ENDMDL
MODEL 8
REMARK VINA RESULT:      -7.2      2.115      4.143
REMARK  Name = 
REMARK  11 active torsions:
REMARK  status: ('A' for Active; 'I' for Inactive)
REMARK    1  A    between atoms: C_1  and  C_2
REMARK    2  A    between atoms: C_2  and  C_3
REMARK    3  A    between atoms: C_6  and  O_7
REMARK    4  A    between atoms: O_7  and  C_8
REMARK    5  A    between atoms: C_8  and  C_9
REMARK    6  A    between atoms: N_11  and  C_12
REMARK    7  A    between atoms: C_12  and  C_13
REMARK    8  A    between atoms: C_13  and  O_14
REMARK    9  A    between atoms: O_14  and  C_15
REMARK   10  A    between atoms: C_15  and  C_16
REMARK   11  A    between atoms: C_16  and  O_17
REMARK                            x       y       z     vdW  Elec       q    Type
REMARK                         _______ _______ _______ _____ _____    ______ ____
ROOT
ATOM      1  C   UNL     1       1.089  11.938  18.539  0.00  0.00    +0.000 C 
ATOM      2  C   UNL     1       0.061  10.888  19.007  0.00  0.00    +0.000 C 
ATOM      3  C   UNL     1      -0.932  10.538  17.880  0.00  0.00    +0.000 C 
ATOM      4  C   UNL     1       0.785   9.602  19.450  0.00  0.00    +0.000 A 
ATOM      5  C   UNL     1       1.596   8.921  18.522  0.00  0.00    +0.000 A 
ATOM      6  C   UNL     1       2.270   7.747  18.855  0.00  0.00    +0.000 A 
ATOM      7  C   UNL     1       2.125   7.206  20.126  0.00  0.00    +0.000 A 
ATOM      8  C   UNL     1       1.320   7.861  21.071  0.00  0.00    +0.000 A 
ATOM      9  C   UNL     1       0.650   9.057  20.748  0.00  0.00    +0.000 A 
ATOM     10  C   UNL     1      -0.203   9.709  21.808  0.00  0.00    +0.000 C 
ATOM     11  O   UNL     1      -0.317   9.214  22.919  0.00  0.00    +0.000 OA
ATOM     12  C   UNL     1      -0.862  10.938  21.420  0.00  0.00    +0.000 A 
ATOM     13  C   UNL     1      -0.712  11.451  20.154  0.00  0.00    +0.000 A 
ATOM     14  O   UNL     1      -1.404  12.603  19.993  0.00  0.00    +0.000 OA
ATOM     15  C   UNL     1      -2.025  12.842  21.182  0.00  0.00    +0.000 A 
ATOM     16  C   UNL     1      -2.850  13.934  21.445  0.00  0.00    +0.000 A 
ATOM     17  C   UNL     1      -3.408  13.997  22.724  0.00  0.00    +0.000 A 
ATOM     18  C   UNL     1      -3.139  13.012  23.678  0.00  0.00    +0.000 A 
ATOM     19  C   UNL     1      -2.299  11.926  23.383  0.00  0.00    +0.000 A 
ATOM     20  C   UNL     1      -1.725  11.838  22.103  0.00  0.00    +0.000 A 
ENDROOT
BRANCH   6  21
ATOM     21  O   UNL     1       2.986   7.212  17.825  0.00  0.00    +0.000 OA
BRANCH  21  22
ATOM     22  C   UNL     1       4.255   6.648  18.147  0.00  0.00    +0.000 C 
BRANCH  22  23
ATOM     23  C   UNL     1       4.183   5.118  18.065  0.00  0.00    +0.000 C 
ATOM     24  O   UNL     1       3.676   4.541  17.105  0.00  0.00    +0.000 OA
ATOM     25  N   UNL     1       4.721   4.447  19.144  0.00  0.00    +0.000 N 
ATOM     26  H   UNL     1       4.952   5.002  19.963  0.00  0.00    +0.000 HD
BRANCH  25  27
ATOM     27  C   UNL     1       4.615   3.007  19.279  0.00  0.00    +0.000 C 
BRANCH  27  28
ATOM     28  C   UNL     1       3.219   2.556  19.715  0.00  0.00    +0.000 C 
BRANCH  28  29
ATOM     29  O   UNL     1       2.991   2.907  21.088  0.00  0.00    +0.000 OA
BRANCH  29  30
ATOM     30  C   UNL     1       1.751   3.614  21.235  0.00  0.00    +0.000 C 
BRANCH  30  31
ATOM     31  C   UNL     1       1.075   3.739  19.872  0.00  0.00    +0.000 C 
BRANCH  31  32
ATOM     32  O   UNL     1      -0.040   2.855  19.787  0.00  0.00    +0.000 OA
ATOM     33  H   UNL     1       0.313   2.019  19.429  0.00  0.00    +0.000 HD
ENDBRANCH  31  32
ENDBRANCH  30  31
ENDBRANCH  29  30
ENDBRANCH  28  29
ENDBRANCH  27  28
ENDBRANCH  25  27
ENDBRANCH  22  23
ENDBRANCH  21  22
ENDBRANCH   6  21
TORSDOF 9
ENDMDL
MODEL 9
REMARK VINA RESULT:      -7.1      1.475      1.908
REMARK  Name = 
REMARK  11 active torsions:
REMARK  status: ('A' for Active; 'I' for Inactive)
REMARK    1  A    between atoms: C_1  and  C_2
REMARK    2  A    between atoms: C_2  and  C_3
REMARK    3  A    between atoms: C_6  and  O_7
REMARK    4  A    between atoms: O_7  and  C_8
REMARK    5  A    between atoms: C_8  and  C_9
REMARK    6  A    between atoms: N_11  and  C_12
REMARK    7  A    between atoms: C_12  and  C_13
REMARK    8  A    between atoms: C_13  and  O_14
REMARK    9  A    between atoms: O_14  and  C_15
REMARK   10  A    between atoms: C_15  and  C_16
REMARK   11  A    between atoms: C_16  and  O_17
REMARK                            x       y       z     vdW  Elec       q    Type
REMARK                         _______ _______ _______ _____ _____    ______ ____
ROOT
ATOM      1  C   UNL     1      -0.498   8.141  21.847  0.00  0.00    +0.000 C 
ATOM      2  C   UNL     1       0.576   9.207  21.551  0.00  0.00    +0.000 C 
ATOM      3  C   UNL     1       1.667   9.220  22.642  0.00  0.00    +0.000 C 
ATOM      4  C   UNL     1       1.238   8.926  20.189  0.00  0.00    +0.000 A 
ATOM      5  C   UNL     1       1.891   7.695  19.988  0.00  0.00    +0.000 A 
ATOM      6  C   UNL     1       2.519   7.380  18.784  0.00  0.00    +0.000 A 
ATOM      7  C   UNL     1       2.533   8.310  17.752  0.00  0.00    +0.000 A 
ATOM      8  C   UNL     1       1.893   9.548  17.924  0.00  0.00    +0.000 A 
ATOM      9  C   UNL     1       1.242   9.865  19.131  0.00  0.00    +0.000 A 
ATOM     10  C   UNL     1       0.577  11.214  19.253  0.00  0.00    +0.000 C 
ATOM     11  O   UNL     1       0.603  12.016  18.333  0.00  0.00    +0.000 OA
ATOM     12  C   UNL     1      -0.081  11.481  20.514  0.00  0.00    +0.000 A 
ATOM     13  C   UNL     1      -0.075  10.551  21.526  0.00  0.00    +0.000 A 
ATOM     14  O   UNL     1      -0.745  10.990  22.617  0.00  0.00    +0.000 OA
ATOM     15  C   UNL     1      -1.191  12.240  22.310  0.00  0.00    +0.000 A 
ATOM     16  C   UNL     1      -1.929  13.056  23.167  0.00  0.00    +0.000 A 
ATOM     17  C   UNL     1      -2.283  14.314  22.674  0.00  0.00    +0.000 A 
ATOM     18  C   UNL     1      -1.916  14.716  21.387  0.00  0.00    +0.000 A 
ATOM     19  C   UNL     1      -1.177  13.868  20.546  0.00  0.00    +0.000 A 
ATOM     20  C   UNL     1      -0.806  12.596  21.018  0.00  0.00    +0.000 A 
ENDROOT
BRANCH   6  21
ATOM     21  O   UNL     1       3.120   6.157  18.779  0.00  0.00    +0.000 OA
BRANCH  21  22
ATOM     22  C   UNL     1       2.578   5.175  17.899  0.00  0.00    +0.000 C 
BRANCH  22  23
ATOM     23  C   UNL     1       3.699   4.268  17.374  0.00  0.00    +0.000 C 
ATOM     24  O   UNL     1       3.699   3.055  17.571  0.00  0.00    +0.000 OA
ATOM     25  N   UNL     1       4.698   4.915  16.677  0.00  0.00    +0.000 N 
ATOM     26  H   UNL     1       4.706   5.930  16.720  0.00  0.00    +0.000 HD
BRANCH  25  27
ATOM     27  C   UNL     1       5.890   4.221  16.229  0.00  0.00    +0.000 C 
BRANCH  27  28
ATOM     28  C   UNL     1       7.137   4.613  17.026  0.00  0.00    +0.000 C 
BRANCH  28  29
ATOM     29  O   UNL     1       6.762   5.345  18.203  0.00  0.00    +0.000 OA
BRANCH  29  30
ATOM     30  C   UNL     1       7.741   6.348  18.513  0.00  0.00    +0.000 C 
BRANCH  30  31
ATOM     31  C   UNL     1       7.588   7.520  17.548  0.00  0.00    +0.000 C 
BRANCH  31  32
ATOM     32  O   UNL     1       8.215   8.685  18.076  0.00  0.00    +0.000 OA
ATOM     33  H   UNL     1       7.544   9.391  18.028  0.00  0.00    +0.000 HD
ENDBRANCH  31  32
ENDBRANCH  30  31
ENDBRANCH  29  30
ENDBRANCH  28  29
ENDBRANCH  27  28
ENDBRANCH  25  27
ENDBRANCH  22  23
ENDBRANCH  21  22
ENDBRANCH   6  21
TORSDOF 9
ENDMDL
