MODEL 1
REMARK VINA RESULT:      -9.8      0.000      0.000
REMARK  Name = 
REMARK  8 active torsions:
REMARK  status: ('A' for Active; 'I' for Inactive)
REMARK    1  A    between atoms: O_1  and  C_2
REMARK    2  A    between atoms: C_5  and  C_6
REMARK    3  A    between atoms: C_6  and  C_7
REMARK    4  A    between atoms: C_14  and  C_15
REMARK    5  A    between atoms: C_15  and  N_16
REMARK    6  A    between atoms: N_16  and  C_17
REMARK    7  A    between atoms: C_22  and  C_23
REMARK    8  A    between atoms: C_23  and  C_24
REMARK                            x       y       z     vdW  Elec       q    Type
REMARK                         _______ _______ _______ _____ _____    ______ ____
ROOT
ATOM      1  N   UNL     1       2.096   7.484  20.250  0.00  0.00    +0.000 N 
ATOM      2  H   UNL     1       2.530   7.502  19.333  0.00  0.00    +0.000 HD
ENDROOT
BRANCH   1   3
ATOM      3  C   UNL     1       1.270   8.574  20.519  0.00  0.00    +0.000 A 
ATOM      4  C   UNL     1       0.982   9.449  19.449  0.00  0.00    +0.000 A 
ATOM      5  C   UNL     1       0.254  10.633  19.601  0.00  0.00    +0.000 A 
ATOM      6  C   UNL     1      -0.142  10.924  20.893  0.00  0.00    +0.000 A 
ATOM      7  O   UNL     1      -0.817  12.031  21.307  0.00  0.00    +0.000 OA
ATOM      8  C   UNL     1      -0.943  11.857  22.660  0.00  0.00    +0.000 A 
ATOM      9  N   UNL     1      -0.408  10.737  23.124  0.00  0.00    +0.000 NA
ATOM     10  C   UNL     1       0.107  10.125  21.996  0.00  0.00    +0.000 A 
ATOM     11  C   UNL     1       0.816   8.921  21.809  0.00  0.00    +0.000 A 
BRANCH   8  12
ATOM     12  C   UNL     1      -1.639  12.962  23.384  0.00  0.00    +0.000 C 
BRANCH  12  13
ATOM     13  C   UNL     1      -3.148  12.883  23.278  0.00  0.00    +0.000 A 
ATOM     14  C   UNL     1      -3.924  12.705  24.434  0.00  0.00    +0.000 A 
ATOM     15  C   UNL     1      -5.313  12.591  24.345  0.00  0.00    +0.000 A 
ATOM     16  C   UNL     1      -5.936  12.661  23.103  0.00  0.00    +0.000 A 
ATOM     17 CL   UNL     1      -7.646  12.497  22.991  0.00  0.00    +0.000 Cl
ATOM     18  C   UNL     1      -5.182  12.854  21.947  0.00  0.00    +0.000 A 
ATOM     19  C   UNL     1      -3.792  12.965  22.034  0.00  0.00    +0.000 A 
ENDBRANCH  12  13
ENDBRANCH   8  12
ENDBRANCH   1   3
BRANCH   1  20
ATOM     20  C   UNL     1       1.808   6.116  20.670  0.00  0.00    +0.000 C 
BRANCH  20  26
ATOM     21  C   UNL     1       1.388   3.948  19.371  0.00  0.00    +0.000 A 
ATOM     22  C   UNL     1       1.706   3.072  18.329  0.00  0.00    +0.000 A 
ATOM     23  C   UNL     1       2.737   3.386  17.443  0.00  0.00    +0.000 A 
ATOM     24  C   UNL     1       3.448   4.583  17.580  0.00  0.00    +0.000 A 
ATOM     25  C   UNL     1       3.109   5.452  18.627  0.00  0.00    +0.000 A 
ATOM     26  C   UNL     1       2.082   5.152  19.538  0.00  0.00    +0.000 A 
BRANCH  21  27
ATOM     27  O   UNL     1       0.384   3.622  20.241  0.00  0.00    +0.000 OA
ATOM     28  H   UNL     1      -0.078   2.840  19.900  0.00  0.00    +0.000 HD
ENDBRANCH  21  27
BRANCH  24  29
ATOM     29  C   UNL     1       4.565   4.942  16.632  0.00  0.00    +0.000 C 
BRANCH  29  30
ATOM     30  C   UNL     1       5.748   5.620  17.285  0.00  0.00    +0.000 A 
ATOM     31  C   UNL     1       6.587   4.907  18.154  0.00  0.00    +0.000 A 
ATOM     32  C   UNL     1       7.714   5.514  18.712  0.00  0.00    +0.000 A 
ATOM     33  C   UNL     1       8.009   6.843  18.415  0.00  0.00    +0.000 A 
ATOM     34  C   UNL     1       7.168   7.571  17.576  0.00  0.00    +0.000 A 
ATOM     35  C   UNL     1       6.039   6.966  17.018  0.00  0.00    +0.000 A 
ENDBRANCH  29  30
ENDBRANCH  24  29
ENDBRANCH  20  26
ENDBRANCH   1  20
TORSDOF 8
ENDMDL
MODEL 2
REMARK VINA RESULT:      -9.8      1.450      2.159
REMARK  Name = 
REMARK  8 active torsions:
REMARK  status: ('A' for Active; 'I' for Inactive)
REMARK    1  A    between atoms: O_1  and  C_2
REMARK    2  A    between atoms: C_5  and  C_6
REMARK    3  A    between atoms: C_6  and  C_7
REMARK    4  A    between atoms: C_14  and  C_15
REMARK    5  A    between atoms: C_15  and  N_16
REMARK    6  A    between atoms: N_16  and  C_17
REMARK    7  A    between atoms: C_22  and  C_23
REMARK    8  A    between atoms: C_23  and  C_24
REMARK                            x       y       z     vdW  Elec       q    Type
REMARK                         _______ _______ _______ _____ _____    ______ ____
ROOT
ATOM      1  N   UNL     1       2.506   6.855  20.266  0.00  0.00    +0.000 N 
ATOM      2  H   UNL     1       3.400   6.738  19.799  0.00  0.00    +0.000 HD
ENDROOT
BRANCH   1   3
ATOM      3  C   UNL     1       1.767   7.953  19.830  0.00  0.00    +0.000 A 
ATOM      4  C   UNL     1       2.058   8.462  18.545  0.00  0.00    +0.000 A 
ATOM      5  C   UNL     1       1.466   9.617  18.026  0.00  0.00    +0.000 A 
ATOM      6  C   UNL     1       0.591  10.269  18.876  0.00  0.00    +0.000 A 
ATOM      7  O   UNL     1      -0.073  11.430  18.626  0.00  0.00    +0.000 OA
ATOM      8  C   UNL     1      -0.781  11.663  19.775  0.00  0.00    +0.000 A 
ATOM      9  N   UNL     1      -0.617  10.747  20.719  0.00  0.00    +0.000 NA
ATOM     10  C   UNL     1       0.260   9.841  20.151  0.00  0.00    +0.000 A 
ATOM     11  C   UNL     1       0.847   8.655  20.638  0.00  0.00    +0.000 A 
BRANCH   8  12
ATOM     12  C   UNL     1      -1.595  12.914  19.782  0.00  0.00    +0.000 C 
BRANCH  12  13
ATOM     13  C   UNL     1      -3.044  12.677  20.154  0.00  0.00    +0.000 A 
ATOM     14  C   UNL     1      -3.949  12.210  19.189  0.00  0.00    +0.000 A 
ATOM     15  C   UNL     1      -5.296  12.025  19.509  0.00  0.00    +0.000 A 
ATOM     16  C   UNL     1      -5.746  12.298  20.798  0.00  0.00    +0.000 A 
ATOM     17 CL   UNL     1      -7.410  12.092  21.186  0.00  0.00    +0.000 Cl
ATOM     18  C   UNL     1      -4.858  12.746  21.773  0.00  0.00    +0.000 A 
ATOM     19  C   UNL     1      -3.510  12.935  21.453  0.00  0.00    +0.000 A 
ENDBRANCH  12  13
ENDBRANCH   8  12
ENDBRANCH   1   3
BRANCH   1  20
ATOM     20  C   UNL     1       1.924   5.563  20.619  0.00  0.00    +0.000 C 
BRANCH  20  26
ATOM     21  C   UNL     1       1.412   3.377  19.387  0.00  0.00    +0.000 A 
ATOM     22  C   UNL     1       1.673   2.471  18.354  0.00  0.00    +0.000 A 
ATOM     23  C   UNL     1       2.674   2.745  17.421  0.00  0.00    +0.000 A 
ATOM     24  C   UNL     1       3.413   3.931  17.504  0.00  0.00    +0.000 A 
ATOM     25  C   UNL     1       3.132   4.829  18.543  0.00  0.00    +0.000 A 
ATOM     26  C   UNL     1       2.136   4.569  19.499  0.00  0.00    +0.000 A 
BRANCH  21  27
ATOM     27  O   UNL     1       0.438   3.089  20.302  0.00  0.00    +0.000 OA
ATOM     28  H   UNL     1       0.711   3.438  21.164  0.00  0.00    +0.000 HD
ENDBRANCH  21  27
BRANCH  24  29
ATOM     29  C   UNL     1       4.499   4.246  16.505  0.00  0.00    +0.000 C 
BRANCH  29  30
ATOM     30  C   UNL     1       5.624   5.097  17.050  0.00  0.00    +0.000 A 
ATOM     31  C   UNL     1       5.718   6.454  16.713  0.00  0.00    +0.000 A 
ATOM     32  C   UNL     1       6.721   7.255  17.263  0.00  0.00    +0.000 A 
ATOM     33  C   UNL     1       7.646   6.706  18.148  0.00  0.00    +0.000 A 
ATOM     34  C   UNL     1       7.581   5.351  18.469  0.00  0.00    +0.000 A 
ATOM     35  C   UNL     1       6.580   4.548  17.919  0.00  0.00    +0.000 A 
ENDBRANCH  29  30
ENDBRANCH  24  29
ENDBRANCH  20  26
ENDBRANCH   1  20
TORSDOF 8
ENDMDL
MODEL 3
REMARK VINA RESULT:      -9.4      1.695      2.220
REMARK  Name = 
REMARK  8 active torsions:
REMARK  status: ('A' for Active; 'I' for Inactive)
REMARK    1  A    between atoms: O_1  and  C_2
REMARK    2  A    between atoms: C_5  and  C_6
REMARK    3  A    between atoms: C_6  and  C_7
REMARK    4  A    between atoms: C_14  and  C_15
REMARK    5  A    between atoms: C_15  and  N_16
REMARK    6  A    between atoms: N_16  and  C_17
REMARK    7  A    between atoms: C_22  and  C_23
REMARK    8  A    between atoms: C_23  and  C_24
REMARK                            x       y       z     vdW  Elec       q    Type
REMARK                         _______ _______ _______ _____ _____    ______ ____
ROOT
ATOM      1  N   UNL     1       2.443   6.785  20.336  0.00  0.00    +0.000 N 
ATOM      2  H   UNL     1       3.344   6.649  19.888  0.00  0.00    +0.000 HD
ENDROOT
BRANCH   1   3
ATOM      3  C   UNL     1       1.770   7.939  19.940  0.00  0.00    +0.000 A 
ATOM      4  C   UNL     1       1.962   8.378  18.611  0.00  0.00    +0.000 A 
ATOM      5  C   UNL     1       1.431   9.572  18.114  0.00  0.00    +0.000 A 
ATOM      6  C   UNL     1       0.725  10.333  19.027  0.00  0.00    +0.000 A 
ATOM      7  O   UNL     1       0.155  11.548  18.804  0.00  0.00    +0.000 OA
ATOM      8  C   UNL     1      -0.393  11.886  20.014  0.00  0.00    +0.000 A 
ATOM      9  N   UNL     1      -0.213  10.986  20.970  0.00  0.00    +0.000 NA
ATOM     10  C   UNL     1       0.501   9.980  20.347  0.00  0.00    +0.000 A 
ATOM     11  C   UNL     1       1.021   8.755  20.814  0.00  0.00    +0.000 A 
BRANCH   8  12
ATOM     12  C   UNL     1      -1.075  13.213  20.059  0.00  0.00    +0.000 C 
BRANCH  12  13
ATOM     13  C   UNL     1      -1.499  13.615  21.457  0.00  0.00    +0.000 A 
ATOM     14  C   UNL     1      -2.797  13.329  21.905  0.00  0.00    +0.000 A 
ATOM     15  C   UNL     1      -3.212  13.730  23.177  0.00  0.00    +0.000 A 
ATOM     16  C   UNL     1      -2.331  14.412  24.011  0.00  0.00    +0.000 A 
ATOM     17 CL   UNL     1      -2.851  14.925  25.570  0.00  0.00    +0.000 Cl
ATOM     18  C   UNL     1      -1.033  14.689  23.588  0.00  0.00    +0.000 A 
ATOM     19  C   UNL     1      -0.617  14.292  22.314  0.00  0.00    +0.000 A 
ENDBRANCH  12  13
ENDBRANCH   8  12
ENDBRANCH   1   3
BRANCH   1  20
ATOM     20  C   UNL     1       1.790   5.507  20.604  0.00  0.00    +0.000 C 
BRANCH  20  26
ATOM     21  C   UNL     1       1.380   3.321  19.334  0.00  0.00    +0.000 A 
ATOM     22  C   UNL     1       1.697   2.435  18.299  0.00  0.00    +0.000 A 
ATOM     23  C   UNL     1       2.718   2.750  17.400  0.00  0.00    +0.000 A 
ATOM     24  C   UNL     1       3.418   3.955  17.518  0.00  0.00    +0.000 A 
ATOM     25  C   UNL     1       3.080   4.833  18.557  0.00  0.00    +0.000 A 
ATOM     26  C   UNL     1       2.064   4.533  19.481  0.00  0.00    +0.000 A 
BRANCH  21  27
ATOM     27  O   UNL     1       0.388   2.995  20.216  0.00  0.00    +0.000 OA
ATOM     28  H   UNL     1      -0.397   3.525  20.009  0.00  0.00    +0.000 HD
ENDBRANCH  21  27
BRANCH  24  29
ATOM     29  C   UNL     1       4.524   4.313  16.556  0.00  0.00    +0.000 C 
BRANCH  29  30
ATOM     30  C   UNL     1       5.619   5.169  17.150  0.00  0.00    +0.000 A 
ATOM     31  C   UNL     1       6.565   4.611  18.021  0.00  0.00    +0.000 A 
ATOM     32  C   UNL     1       7.611   5.386  18.525  0.00  0.00    +0.000 A 
ATOM     33  C   UNL     1       7.719   6.729  18.170  0.00  0.00    +0.000 A 
ATOM     34  C   UNL     1       6.770   7.303  17.328  0.00  0.00    +0.000 A 
ATOM     35  C   UNL     1       5.720   6.530  16.825  0.00  0.00    +0.000 A 
ENDBRANCH  29  30
ENDBRANCH  24  29
ENDBRANCH  20  26
ENDBRANCH   1  20
TORSDOF 8
ENDMDL
MODEL 4
REMARK VINA RESULT:      -9.2      1.057      1.656
REMARK  Name = 
REMARK  8 active torsions:
REMARK  status: ('A' for Active; 'I' for Inactive)
REMARK    1  A    between atoms: O_1  and  C_2
REMARK    2  A    between atoms: C_5  and  C_6
REMARK    3  A    between atoms: C_6  and  C_7
REMARK    4  A    between atoms: C_14  and  C_15
REMARK    5  A    between atoms: C_15  and  N_16
REMARK    6  A    between atoms: N_16  and  C_17
REMARK    7  A    between atoms: C_22  and  C_23
REMARK    8  A    between atoms: C_23  and  C_24
REMARK                            x       y       z     vdW  Elec       q    Type
REMARK                         _______ _______ _______ _____ _____    ______ ____
ROOT
ATOM      1  N   UNL     1       1.884   7.480  20.549  0.00  0.00    +0.000 N 
ATOM      2  H   UNL     1       2.400   7.560  19.678  0.00  0.00    +0.000 HD
ENDROOT
BRANCH   1   3
ATOM      3  C   UNL     1       1.153   8.615  20.894  0.00  0.00    +0.000 A 
ATOM      4  C   UNL     1       0.852   8.802  22.261  0.00  0.00    +0.000 A 
ATOM      5  C   UNL     1       0.042   9.840  22.732  0.00  0.00    +0.000 A 
ATOM      6  C   UNL     1      -0.492  10.665  21.759  0.00  0.00    +0.000 A 
ATOM      7  O   UNL     1      -1.341  11.709  21.956  0.00  0.00    +0.000 OA
ATOM      8  C   UNL     1      -1.590  12.178  20.692  0.00  0.00    +0.000 A 
ATOM      9  N   UNL     1      -0.968  11.517  19.727  0.00  0.00    +0.000 NA
ATOM     10  C   UNL     1      -0.254  10.543  20.401  0.00  0.00    +0.000 A 
ATOM     11  C   UNL     1       0.593   9.507  19.955  0.00  0.00    +0.000 A 
BRANCH   8  12
ATOM     12  C   UNL     1      -2.533  13.332  20.613  0.00  0.00    +0.000 C 
BRANCH  12  13
ATOM     13  C   UNL     1      -3.869  13.053  21.271  0.00  0.00    +0.000 A 
ATOM     14  C   UNL     1      -4.929  12.532  20.513  0.00  0.00    +0.000 A 
ATOM     15  C   UNL     1      -6.176  12.307  21.099  0.00  0.00    +0.000 A 
ATOM     16  C   UNL     1      -6.371  12.595  22.447  0.00  0.00    +0.000 A 
ATOM     17 CL   UNL     1      -7.916  12.339  23.163  0.00  0.00    +0.000 Cl
ATOM     18  C   UNL     1      -5.325  13.097  23.218  0.00  0.00    +0.000 A 
ATOM     19  C   UNL     1      -4.077  13.326  22.632  0.00  0.00    +0.000 A 
ENDBRANCH  12  13
ENDBRANCH   8  12
ENDBRANCH   1   3
BRANCH   1  20
ATOM     20  C   UNL     1       1.422   6.112  20.763  0.00  0.00    +0.000 C 
BRANCH  20  26
ATOM     21  C   UNL     1       1.402   3.919  19.439  0.00  0.00    +0.000 A 
ATOM     22  C   UNL     1       1.887   3.120  18.399  0.00  0.00    +0.000 A 
ATOM     23  C   UNL     1       2.871   3.613  17.541  0.00  0.00    +0.000 A 
ATOM     24  C   UNL     1       3.368   4.910  17.705  0.00  0.00    +0.000 A 
ATOM     25  C   UNL     1       2.864   5.699  18.749  0.00  0.00    +0.000 A 
ATOM     26  C   UNL     1       1.881   5.220  19.632  0.00  0.00    +0.000 A 
BRANCH  21  27
ATOM     27  O   UNL     1       0.448   3.419  20.281  0.00  0.00    +0.000 OA
ATOM     28  H   UNL     1       0.745   2.556  20.608  0.00  0.00    +0.000 HD
ENDBRANCH  21  27
BRANCH  24  29
ATOM     29  C   UNL     1       4.431   5.462  16.788  0.00  0.00    +0.000 C 
BRANCH  29  30
ATOM     30  C   UNL     1       5.690   5.919  17.490  0.00  0.00    +0.000 A 
ATOM     31  C   UNL     1       6.233   5.164  18.539  0.00  0.00    +0.000 A 
ATOM     32  C   UNL     1       7.427   5.553  19.150  0.00  0.00    +0.000 A 
ATOM     33  C   UNL     1       8.086   6.704  18.725  0.00  0.00    +0.000 A 
ATOM     34  C   UNL     1       7.542   7.479  17.702  0.00  0.00    +0.000 A 
ATOM     35  C   UNL     1       6.346   7.093  17.091  0.00  0.00    +0.000 A 
ENDBRANCH  29  30
ENDBRANCH  24  29
ENDBRANCH  20  26
ENDBRANCH   1  20
TORSDOF 8
ENDMDL
MODEL 5
REMARK VINA RESULT:      -9.2      3.130      3.888
REMARK  Name = 
REMARK  8 active torsions:
REMARK  status: ('A' for Active; 'I' for Inactive)
REMARK    1  A    between atoms: O_1  and  C_2
REMARK    2  A    between atoms: C_5  and  C_6
REMARK    3  A    between atoms: C_6  and  C_7
REMARK    4  A    between atoms: C_14  and  C_15
REMARK    5  A    between atoms: C_15  and  N_16
REMARK    6  A    between atoms: N_16  and  C_17
REMARK    7  A    between atoms: C_22  and  C_23
REMARK    8  A    between atoms: C_23  and  C_24
REMARK                            x       y       z     vdW  Elec       q    Type
REMARK                         _______ _______ _______ _____ _____    ______ ____
ROOT
ATOM      1  N   UNL     1       2.512   6.776  20.257  0.00  0.00    +0.000 N 
ATOM      2  H   UNL     1       3.298   6.627  19.631  0.00  0.00    +0.000 HD
ENDROOT
BRANCH   1   3
ATOM      3  C   UNL     1       1.882   8.010  20.108  0.00  0.00    +0.000 A 
ATOM      4  C   UNL     1       1.797   8.541  18.802  0.00  0.00    +0.000 A 
ATOM      5  C   UNL     1       1.284   9.811  18.523  0.00  0.00    +0.000 A 
ATOM      6  C   UNL     1       0.892  10.548  19.625  0.00  0.00    +0.000 A 
ATOM      7  O   UNL     1       0.408  11.820  19.623  0.00  0.00    +0.000 OA
ATOM      8  C   UNL     1       0.197  12.098  20.948  0.00  0.00    +0.000 A 
ATOM      9  N   UNL     1       0.507  11.111  21.775  0.00  0.00    +0.000 NA
ATOM     10  C   UNL     1       0.952  10.105  20.936  0.00  0.00    +0.000 A 
ATOM     11  C   UNL     1       1.444   8.808  21.186  0.00  0.00    +0.000 A 
BRANCH   8  12
ATOM     12  C   UNL     1      -0.321  13.468  21.239  0.00  0.00    +0.000 C 
BRANCH  12  13
ATOM     13  C   UNL     1       0.189  14.513  20.268  0.00  0.00    +0.000 A 
ATOM     14  C   UNL     1       1.535  14.909  20.307  0.00  0.00    +0.000 A 
ATOM     15  C   UNL     1       2.008  15.900  19.444  0.00  0.00    +0.000 A 
ATOM     16  C   UNL     1       1.142  16.496  18.532  0.00  0.00    +0.000 A 
ATOM     17 CL   UNL     1       1.720  17.734  17.484  0.00  0.00    +0.000 Cl
ATOM     18  C   UNL     1      -0.193  16.103  18.468  0.00  0.00    +0.000 A 
ATOM     19  C   UNL     1      -0.669  15.114  19.334  0.00  0.00    +0.000 A 
ENDBRANCH  12  13
ENDBRANCH   8  12
ENDBRANCH   1   3
BRANCH   1  20
ATOM     20  C   UNL     1       1.811   5.525  20.528  0.00  0.00    +0.000 C 
BRANCH  20  26
ATOM     21  C   UNL     1       1.368   3.326  19.290  0.00  0.00    +0.000 A 
ATOM     22  C   UNL     1       1.680   2.415  18.276  0.00  0.00    +0.000 A 
ATOM     23  C   UNL     1       2.721   2.690  17.387  0.00  0.00    +0.000 A 
ATOM     24  C   UNL     1       3.447   3.881  17.494  0.00  0.00    +0.000 A 
ATOM     25  C   UNL     1       3.114   4.785  18.513  0.00  0.00    +0.000 A 
ATOM     26  C   UNL     1       2.078   4.525  19.426  0.00  0.00    +0.000 A 
BRANCH  21  27
ATOM     27  O   UNL     1       0.356   3.039  20.163  0.00  0.00    +0.000 OA
ATOM     28  H   UNL     1      -0.446   2.846  19.653  0.00  0.00    +0.000 HD
ENDBRANCH  21  27
BRANCH  24  29
ATOM     29  C   UNL     1       4.575   4.197  16.543  0.00  0.00    +0.000 C 
BRANCH  29  30
ATOM     30  C   UNL     1       5.629   5.123  17.106  0.00  0.00    +0.000 A 
ATOM     31  C   UNL     1       6.647   4.624  17.931  0.00  0.00    +0.000 A 
ATOM     32  C   UNL     1       7.655   5.467  18.403  0.00  0.00    +0.000 A 
ATOM     33  C   UNL     1       7.652   6.818  18.064  0.00  0.00    +0.000 A 
ATOM     34  C   UNL     1       6.630   7.332  17.268  0.00  0.00    +0.000 A 
ATOM     35  C   UNL     1       5.619   6.491  16.796  0.00  0.00    +0.000 A 
ENDBRANCH  29  30
ENDBRANCH  24  29
ENDBRANCH  20  26
ENDBRANCH   1  20
TORSDOF 8
ENDMDL
MODEL 6
REMARK VINA RESULT:      -9.2      0.573      1.014
REMARK  Name = 
REMARK  8 active torsions:
REMARK  status: ('A' for Active; 'I' for Inactive)
REMARK    1  A    between atoms: O_1  and  C_2
REMARK    2  A    between atoms: C_5  and  C_6
REMARK    3  A    between atoms: C_6  and  C_7
REMARK    4  A    between atoms: C_14  and  C_15
REMARK    5  A    between atoms: C_15  and  N_16
REMARK    6  A    between atoms: N_16  and  C_17
REMARK    7  A    between atoms: C_22  and  C_23
REMARK    8  A    between atoms: C_23  and  C_24
REMARK                            x       y       z     vdW  Elec       q    Type
REMARK                         _______ _______ _______ _____ _____    ______ ____
ROOT
ATOM      1  N   UNL     1       1.823   8.008  19.965  0.00  0.00    +0.000 N 
ATOM      2  H   UNL     1       1.978   7.903  18.967  0.00  0.00    +0.000 HD
ENDROOT
BRANCH   1   3
ATOM      3  C   UNL     1       1.011   9.085  20.313  0.00  0.00    +0.000 A 
ATOM      4  C   UNL     1       0.612   9.957  19.276  0.00  0.00    +0.000 A 
ATOM      5  C   UNL     1      -0.115  11.131  19.499  0.00  0.00    +0.000 A 
ATOM      6  C   UNL     1      -0.392  11.415  20.824  0.00  0.00    +0.000 A 
ATOM      7  O   UNL     1      -1.040  12.511  21.302  0.00  0.00    +0.000 OA
ATOM      8  C   UNL     1      -1.036  12.334  22.661  0.00  0.00    +0.000 A 
ATOM      9  N   UNL     1      -0.443  11.222  23.070  0.00  0.00    +0.000 NA
ATOM     10  C   UNL     1      -0.028  10.618  21.897  0.00  0.00    +0.000 A 
ATOM     11  C   UNL     1       0.677   9.424  21.641  0.00  0.00    +0.000 A 
BRANCH   8  12
ATOM     12  C   UNL     1      -1.675  13.428  23.450  0.00  0.00    +0.000 C 
BRANCH  12  13
ATOM     13  C   UNL     1      -3.186  13.321  23.497  0.00  0.00    +0.000 A 
ATOM     14  C   UNL     1      -3.797  12.412  24.374  0.00  0.00    +0.000 A 
ATOM     15  C   UNL     1      -5.187  12.276  24.399  0.00  0.00    +0.000 A 
ATOM     16  C   UNL     1      -5.975  13.050  23.552  0.00  0.00    +0.000 A 
ATOM     17 CL   UNL     1      -7.686  12.865  23.567  0.00  0.00    +0.000 Cl
ATOM     18  C   UNL     1      -5.385  13.970  22.687  0.00  0.00    +0.000 A 
ATOM     19  C   UNL     1      -3.994  14.105  22.659  0.00  0.00    +0.000 A 
ENDBRANCH  12  13
ENDBRANCH   8  12
ENDBRANCH   1   3
BRANCH   1  20
ATOM     20  C   UNL     1       1.792   6.710  20.632  0.00  0.00    +0.000 C 
BRANCH  20  26
ATOM     21  C   UNL     1       1.531   4.347  19.677  0.00  0.00    +0.000 A 
ATOM     22  C   UNL     1       1.912   3.349  18.774  0.00  0.00    +0.000 A 
ATOM     23  C   UNL     1       2.917   3.601  17.839  0.00  0.00    +0.000 A 
ATOM     24  C   UNL     1       3.539   4.854  17.788  0.00  0.00    +0.000 A 
ATOM     25  C   UNL     1       3.138   5.843  18.697  0.00  0.00    +0.000 A 
ATOM     26  C   UNL     1       2.136   5.609  19.654  0.00  0.00    +0.000 A 
BRANCH  21  27
ATOM     27  O   UNL     1       0.555   4.083  20.597  0.00  0.00    +0.000 OA
ATOM     28  H   UNL     1       0.212   3.190  20.436  0.00  0.00    +0.000 HD
ENDBRANCH  21  27
BRANCH  24  29
ATOM     29  C   UNL     1       4.627   5.146  16.784  0.00  0.00    +0.000 C 
BRANCH  29  30
ATOM     30  C   UNL     1       5.870   5.774  17.373  0.00  0.00    +0.000 A 
ATOM     31  C   UNL     1       6.275   7.056  16.978  0.00  0.00    +0.000 A 
ATOM     32  C   UNL     1       7.389   7.661  17.563  0.00  0.00    +0.000 A 
ATOM     33  C   UNL     1       8.115   6.987  18.543  0.00  0.00    +0.000 A 
ATOM     34  C   UNL     1       7.740   5.700  18.924  0.00  0.00    +0.000 A 
ATOM     35  C   UNL     1       6.627   5.092  18.338  0.00  0.00    +0.000 A 
ENDBRANCH  29  30
ENDBRANCH  24  29
ENDBRANCH  20  26
ENDBRANCH   1  20
TORSDOF 8
ENDMDL
MODEL 7
REMARK VINA RESULT:      -9.2      2.538      4.269
REMARK  Name = 
REMARK  8 active torsions:
REMARK  status: ('A' for Active; 'I' for Inactive)
REMARK    1  A    between atoms: O_1  and  C_2
REMARK    2  A    between atoms: C_5  and  C_6
REMARK    3  A    between atoms: C_6  and  C_7
REMARK    4  A    between atoms: C_14  and  C_15
REMARK    5  A    between atoms: C_15  and  N_16
REMARK    6  A    between atoms: N_16  and  C_17
REMARK    7  A    between atoms: C_22  and  C_23
REMARK    8  A    between atoms: C_23  and  C_24
REMARK                            x       y       z     vdW  Elec       q    Type
REMARK                         _______ _______ _______ _____ _____    ______ ____
ROOT
ATOM      1  N   UNL     1       2.684   7.129  18.748  0.00  0.00    +0.000 N 
ATOM      2  H   UNL     1       3.035   6.432  19.399  0.00  0.00    +0.000 HD
ENDROOT
BRANCH   1   3
ATOM      3  C   UNL     1       1.926   8.138  19.337  0.00  0.00    +0.000 A 
ATOM      4  C   UNL     1       1.439   7.906  20.642  0.00  0.00    +0.000 A 
ATOM      5  C   UNL     1       0.584   8.788  21.309  0.00  0.00    +0.000 A 
ATOM      6  C   UNL     1       0.201   9.904  20.588  0.00  0.00    +0.000 A 
ATOM      7  O   UNL     1      -0.655  10.880  20.994  0.00  0.00    +0.000 OA
ATOM      8  C   UNL     1      -0.719  11.732  19.922  0.00  0.00    +0.000 A 
ATOM      9  N   UNL     1       0.023  11.372  18.886  0.00  0.00    +0.000 NA
ATOM     10  C   UNL     1       0.625  10.199  19.303  0.00  0.00    +0.000 A 
ATOM     11  C   UNL     1       1.513   9.308  18.665  0.00  0.00    +0.000 A 
BRANCH   8  12
ATOM     12  C   UNL     1      -1.628  12.905  20.092  0.00  0.00    +0.000 C 
BRANCH  12  13
ATOM     13  C   UNL     1      -3.094  12.537  19.993  0.00  0.00    +0.000 A 
ATOM     14  C   UNL     1      -3.585  11.912  18.837  0.00  0.00    +0.000 A 
ATOM     15  C   UNL     1      -4.942  11.604  18.718  0.00  0.00    +0.000 A 
ATOM     16  C   UNL     1      -5.816  11.912  19.756  0.00  0.00    +0.000 A 
ATOM     17 CL   UNL     1      -7.492  11.553  19.599  0.00  0.00    +0.000 Cl
ATOM     18  C   UNL     1      -5.344  12.518  20.918  0.00  0.00    +0.000 A 
ATOM     19  C   UNL     1      -3.986  12.830  21.037  0.00  0.00    +0.000 A 
ENDBRANCH  12  13
ENDBRANCH   8  12
ENDBRANCH   1   3
BRANCH   1  20
ATOM     20  C   UNL     1       3.624   7.344  17.651  0.00  0.00    +0.000 C 
BRANCH  20  26
ATOM     21  C   UNL     1       5.169   5.919  16.188  0.00  0.00    +0.000 A 
ATOM     22  C   UNL     1       5.612   4.670  15.739  0.00  0.00    +0.000 A 
ATOM     23  C   UNL     1       5.047   3.503  16.254  0.00  0.00    +0.000 A 
ATOM     24  C   UNL     1       4.047   3.572  17.230  0.00  0.00    +0.000 A 
ATOM     25  C   UNL     1       3.622   4.832  17.672  0.00  0.00    +0.000 A 
ATOM     26  C   UNL     1       4.169   6.022  17.161  0.00  0.00    +0.000 A 
BRANCH  21  27
ATOM     27  O   UNL     1       5.722   7.055  15.665  0.00  0.00    +0.000 OA
ATOM     28  H   UNL     1       6.682   6.933  15.608  0.00  0.00    +0.000 HD
ENDBRANCH  21  27
BRANCH  24  29
ATOM     29  C   UNL     1       3.424   2.321  17.801  0.00  0.00    +0.000 C 
BRANCH  29  30
ATOM     30  C   UNL     1       2.674   2.530  19.097  0.00  0.00    +0.000 A 
ATOM     31  C   UNL     1       3.348   2.474  20.325  0.00  0.00    +0.000 A 
ATOM     32  C   UNL     1       2.669   2.724  21.520  0.00  0.00    +0.000 A 
ATOM     33  C   UNL     1       1.309   3.025  21.500  0.00  0.00    +0.000 A 
ATOM     34  C   UNL     1       0.622   3.056  20.288  0.00  0.00    +0.000 A 
ATOM     35  C   UNL     1       1.298   2.804  19.092  0.00  0.00    +0.000 A 
ENDBRANCH  29  30
ENDBRANCH  24  29
ENDBRANCH  20  26
ENDBRANCH   1  20
TORSDOF 8
ENDMDL
MODEL 8
REMARK VINA RESULT:      -9.2      2.283      2.906
REMARK  Name = 
REMARK  8 active torsions:
REMARK  status: ('A' for Active; 'I' for Inactive)
REMARK    1  A    between atoms: O_1  and  C_2
REMARK    2  A    between atoms: C_5  and  C_6
REMARK    3  A    between atoms: C_6  and  C_7
REMARK    4  A    between atoms: C_14  and  C_15
REMARK    5  A    between atoms: C_15  and  N_16
REMARK    6  A    between atoms: N_16  and  C_17
REMARK    7  A    between atoms: C_22  and  C_23
REMARK    8  A    between atoms: C_23  and  C_24
REMARK                            x       y       z     vdW  Elec       q    Type
REMARK                         _______ _______ _______ _____ _____    ______ ____
ROOT
ATOM      1  N   UNL     1       2.604   6.493  20.399  0.00  0.00    +0.000 N 
ATOM      2  H   UNL     1       3.320   6.435  19.682  0.00  0.00    +0.000 HD
ENDROOT
BRANCH   1   3
ATOM      3  C   UNL     1       1.887   7.688  20.405  0.00  0.00    +0.000 A 
ATOM      4  C   UNL     1       1.296   8.084  21.625  0.00  0.00    +0.000 A 
ATOM      5  C   UNL     1       0.468   9.203  21.748  0.00  0.00    +0.000 A 
ATOM      6  C   UNL     1       0.223   9.892  20.574  0.00  0.00    +0.000 A 
ATOM      7  O   UNL     1      -0.581  10.979  20.422  0.00  0.00    +0.000 OA
ATOM      8  C   UNL     1      -0.505  11.264  19.083  0.00  0.00    +0.000 A 
ATOM      9  N   UNL     1       0.276  10.449  18.390  0.00  0.00    +0.000 NA
ATOM     10  C   UNL     1       0.755   9.564  19.338  0.00  0.00    +0.000 A 
ATOM     11  C   UNL     1       1.613   8.449  19.249  0.00  0.00    +0.000 A 
BRANCH   8  12
ATOM     12  C   UNL     1      -1.330  12.422  18.629  0.00  0.00    +0.000 C 
BRANCH  12  13
ATOM     13  C   UNL     1      -2.818  12.138  18.657  0.00  0.00    +0.000 A 
ATOM     14  C   UNL     1      -3.422  11.455  17.591  0.00  0.00    +0.000 A 
ATOM     15  C   UNL     1      -4.799  11.222  17.587  0.00  0.00    +0.000 A 
ATOM     16  C   UNL     1      -5.580  11.663  18.651  0.00  0.00    +0.000 A 
ATOM     17 CL   UNL     1      -7.280  11.396  18.634  0.00  0.00    +0.000 Cl
ATOM     18  C   UNL     1      -4.994  12.328  19.726  0.00  0.00    +0.000 A 
ATOM     19  C   UNL     1      -3.617  12.566  19.730  0.00  0.00    +0.000 A 
ENDBRANCH  12  13
ENDBRANCH   8  12
ENDBRANCH   1   3
BRANCH   1  20
ATOM     20  C   UNL     1       2.014   5.183  20.660  0.00  0.00    +0.000 C 
BRANCH  20  26
ATOM     21  C   UNL     1       2.134   2.826  19.664  0.00  0.00    +0.000 A 
ATOM     22  C   UNL     1       2.666   1.919  18.743  0.00  0.00    +0.000 A 
ATOM     23  C   UNL     1       3.610   2.346  17.808  0.00  0.00    +0.000 A 
ATOM     24  C   UNL     1       4.020   3.684  17.777  0.00  0.00    +0.000 A 
ATOM     25  C   UNL     1       3.469   4.579  18.705  0.00  0.00    +0.000 A 
ATOM     26  C   UNL     1       2.525   4.170  19.661  0.00  0.00    +0.000 A 
BRANCH  21  27
ATOM     27  O   UNL     1       1.219   2.392  20.583  0.00  0.00    +0.000 OA
ATOM     28  H   UNL     1       0.530   3.067  20.677  0.00  0.00    +0.000 HD
ENDBRANCH  21  27
BRANCH  24  29
ATOM     29  C   UNL     1       5.039   4.166  16.774  0.00  0.00    +0.000 C 
BRANCH  29  30
ATOM     30  C   UNL     1       6.005   5.198  17.310  0.00  0.00    +0.000 A 
ATOM     31  C   UNL     1       6.913   4.865  18.324  0.00  0.00    +0.000 A 
ATOM     32  C   UNL     1       7.846   5.800  18.778  0.00  0.00    +0.000 A 
ATOM     33  C   UNL     1       7.874   7.080  18.230  0.00  0.00    +0.000 A 
ATOM     34  C   UNL     1       6.959   7.433  17.241  0.00  0.00    +0.000 A 
ATOM     35  C   UNL     1       6.023   6.500  16.787  0.00  0.00    +0.000 A 
ENDBRANCH  29  30
ENDBRANCH  24  29
ENDBRANCH  20  26
ENDBRANCH   1  20
TORSDOF 8
ENDMDL
MODEL 9
REMARK VINA RESULT:      -9.2      0.915      1.724
REMARK  Name = 
REMARK  8 active torsions:
REMARK  status: ('A' for Active; 'I' for Inactive)
REMARK    1  A    between atoms: O_1  and  C_2
REMARK    2  A    between atoms: C_5  and  C_6
REMARK    3  A    between atoms: C_6  and  C_7
REMARK    4  A    between atoms: C_14  and  C_15
REMARK    5  A    between atoms: C_15  and  N_16
REMARK    6  A    between atoms: N_16  and  C_17
REMARK    7  A    between atoms: C_22  and  C_23
REMARK    8  A    between atoms: C_23  and  C_24
REMARK                            x       y       z     vdW  Elec       q    Type
REMARK                         _______ _______ _______ _____ _____    ______ ____
ROOT
ATOM      1  N   UNL     1       1.988   7.482  20.132  0.00  0.00    +0.000 N 
ATOM      2  H   UNL     1       2.113   7.496  19.125  0.00  0.00    +0.000 HD
ENDROOT
BRANCH   1   3
ATOM      3  C   UNL     1       1.287   8.573  20.642  0.00  0.00    +0.000 A 
ATOM      4  C   UNL     1       0.808   8.474  21.967  0.00  0.00    +0.000 A 
ATOM      5  C   UNL     1       0.005   9.449  22.566  0.00  0.00    +0.000 A 
ATOM      6  C   UNL     1      -0.334  10.519  21.757  0.00  0.00    +0.000 A 
ATOM      7  O   UNL     1      -1.137  11.566  22.088  0.00  0.00    +0.000 OA
ATOM      8  C   UNL     1      -1.174  12.329  20.951  0.00  0.00    +0.000 A 
ATOM      9  N   UNL     1      -0.464  11.848  19.941  0.00  0.00    +0.000 NA
ATOM     10  C   UNL     1       0.086  10.685  20.448  0.00  0.00    +0.000 A 
ATOM     11  C   UNL     1       0.922   9.703  19.879  0.00  0.00    +0.000 A 
BRANCH   8  12
ATOM     12  C   UNL     1      -2.024  13.554  21.030  0.00  0.00    +0.000 C 
BRANCH  12  13
ATOM     13  C   UNL     1      -3.300  13.340  21.818  0.00  0.00    +0.000 A 
ATOM     14  C   UNL     1      -4.433  12.804  21.186  0.00  0.00    +0.000 A 
ATOM     15  C   UNL     1      -5.627  12.639  21.891  0.00  0.00    +0.000 A 
ATOM     16  C   UNL     1      -5.695  13.002  23.233  0.00  0.00    +0.000 A 
ATOM     17 CL   UNL     1      -7.174  12.820  24.095  0.00  0.00    +0.000 Cl
ATOM     18  C   UNL     1      -4.576  13.521  23.880  0.00  0.00    +0.000 A 
ATOM     19  C   UNL     1      -3.381  13.690  23.175  0.00  0.00    +0.000 A 
ENDBRANCH  12  13
ENDBRANCH   8  12
ENDBRANCH   1   3
BRANCH   1  20
ATOM     20  C   UNL     1       1.849   6.116  20.627  0.00  0.00    +0.000 C 
BRANCH  20  26
ATOM     21  C   UNL     1       1.449   3.907  19.392  0.00  0.00    +0.000 A 
ATOM     22  C   UNL     1       1.769   3.008  18.370  0.00  0.00    +0.000 A 
ATOM     23  C   UNL     1       2.784   3.316  17.462  0.00  0.00    +0.000 A 
ATOM     24  C   UNL     1       3.477   4.527  17.559  0.00  0.00    +0.000 A 
ATOM     25  C   UNL     1       3.136   5.418  18.587  0.00  0.00    +0.000 A 
ATOM     26  C   UNL     1       2.125   5.126  19.518  0.00  0.00    +0.000 A 
BRANCH  21  27
ATOM     27  O   UNL     1       0.461   3.589  20.282  0.00  0.00    +0.000 OA
ATOM     28  H   UNL     1       0.757   2.834  20.814  0.00  0.00    +0.000 HD
ENDBRANCH  21  27
BRANCH  24  29
ATOM     29  C   UNL     1       4.577   4.878  16.588  0.00  0.00    +0.000 C 
BRANCH  29  30
ATOM     30  C   UNL     1       5.783   5.537  17.219  0.00  0.00    +0.000 A 
ATOM     31  C   UNL     1       6.124   6.857  16.894  0.00  0.00    +0.000 A 
ATOM     32  C   UNL     1       7.202   7.487  17.519  0.00  0.00    +0.000 A 
ATOM     33  C   UNL     1       7.956   6.801  18.469  0.00  0.00    +0.000 A 
ATOM     34  C   UNL     1       7.645   5.478  18.780  0.00  0.00    +0.000 A 
ATOM     35  C   UNL     1       6.568   4.846  18.154  0.00  0.00    +0.000 A 
ENDBRANCH  29  30
ENDBRANCH  24  29
ENDBRANCH  20  26
ENDBRANCH   1  20
TORSDOF 8
ENDMDL
