MODEL 1
REMARK VINA RESULT:      -7.3      0.000      0.000
REMARK  Name = 
REMARK  11 active torsions:
REMARK  status: ('A' for Active; 'I' for Inactive)
REMARK    1  A    between atoms: C_1  and  C_2
REMARK    2  A    between atoms: C_2  and  C_3
REMARK    3  A    between atoms: C_3  and  O_4
REMARK    4  A    between atoms: O_4  and  C_5
REMARK    5  A    between atoms: C_8  and  C_9
REMARK    6  A    between atoms: C_10  and  C_11
REMARK    7  A    between atoms: C_14  and  C_15
REMARK    8  A    between atoms: C_15  and  C_16
REMARK    9  A    between atoms: C_16  and  C_17
REMARK   10  A    between atoms: C_16  and  N_18
REMARK   11  A    between atoms: C_19  and  C_20
REMARK                            x       y       z     vdW  Elec       q    Type
REMARK                         _______ _______ _______ _____ _____    ______ ____
ROOT
ATOM      1  C   UNL     1       7.414   7.447  17.899  0.00  0.00    +0.000 A 
ATOM      2  C   UNL     1       6.277   7.365  17.091  0.00  0.00    +0.000 A 
ATOM      3  C   UNL     1       5.521   6.183  17.046  0.00  0.00    +0.000 A 
ATOM      4  C   UNL     1       5.899   5.066  17.803  0.00  0.00    +0.000 A 
ATOM      5  C   UNL     1       7.060   5.149  18.586  0.00  0.00    +0.000 A 
ATOM      6  C   UNL     1       7.811   6.332  18.634  0.00  0.00    +0.000 A 
ENDROOT
BRANCH   1   8
ATOM      7  C   UNL     1       8.682   9.747  18.135  0.00  0.00    +0.000 C 
ATOM      8  C   UNL     1       8.133   8.683  18.018  0.00  0.00    +0.000 C 
BRANCH   7  12
ATOM      9  C   UNL     1      10.453  13.465  18.540  0.00  0.00    +0.000 A 
ATOM     10  N   UNL     1      11.034  12.428  19.168  0.00  0.00    +0.000 NA
ATOM     11  C   UNL     1      10.427  11.230  19.021  0.00  0.00    +0.000 A 
ATOM     12  C   UNL     1       9.281  11.036  18.282  0.00  0.00    +0.000 A 
ATOM     13  C   UNL     1       8.774  12.172  17.689  0.00  0.00    +0.000 A 
ATOM     14  N   UNL     1       9.331  13.399  17.808  0.00  0.00    +0.000 NA
BRANCH   9  15
ATOM     15  O   UNL     1      11.007  14.724  18.665  0.00  0.00    +0.000 OA
BRANCH  15  16
ATOM     16  C   UNL     1      11.822  14.821  19.834  0.00  0.00    +0.000 C 
BRANCH  16  18
ATOM     17  C   UNL     1      10.352  15.216  21.838  0.00  0.00    +0.000 C 
ATOM     18  C   UNL     1      11.219  15.864  20.770  0.00  0.00    +0.000 C 
ENDBRANCH  16  18
ENDBRANCH  15  16
ENDBRANCH   9  15
ENDBRANCH   7  12
ENDBRANCH   1   8
BRANCH   4  19
ATOM     19  C   UNL     1       5.027   3.824  17.865  0.00  0.00    +0.000 C 
BRANCH  19  20
ATOM     20  C   UNL     1       3.550   4.040  18.276  0.00  0.00    +0.000 C 
ATOM     21  C   UNL     1       2.598   3.481  17.215  0.00  0.00    +0.000 C 
BRANCH  20  22
ATOM     22  N   UNL     1       3.242   3.404  19.566  0.00  0.00    +0.000 N 
ATOM     23  C   UNL     1       2.312   3.913  20.444  0.00  0.00    +0.000 C 
ATOM     24  C   UNL     1       2.109   3.082  21.686  0.00  0.00    +0.000 C 
ATOM     25  O   UNL     1       1.710   4.966  20.266  0.00  0.00    +0.000 OA
ATOM     26  H   UNL     1       3.540   2.446  19.702  0.00  0.00    +0.000 HD
ENDBRANCH  20  22
ENDBRANCH  19  20
ENDBRANCH   4  19
TORSDOF 8
ENDMDL
MODEL 2
REMARK VINA RESULT:      -7.2      1.027      1.448
REMARK  Name = 
REMARK  11 active torsions:
REMARK  status: ('A' for Active; 'I' for Inactive)
REMARK    1  A    between atoms: C_1  and  C_2
REMARK    2  A    between atoms: C_2  and  C_3
REMARK    3  A    between atoms: C_3  and  O_4
REMARK    4  A    between atoms: O_4  and  C_5
REMARK    5  A    between atoms: C_8  and  C_9
REMARK    6  A    between atoms: C_10  and  C_11
REMARK    7  A    between atoms: C_14  and  C_15
REMARK    8  A    between atoms: C_15  and  C_16
REMARK    9  A    between atoms: C_16  and  C_17
REMARK   10  A    between atoms: C_16  and  N_18
REMARK   11  A    between atoms: C_19  and  C_20
REMARK                            x       y       z     vdW  Elec       q    Type
REMARK                         _______ _______ _______ _____ _____    ______ ____
ROOT
ATOM      1  C   UNL     1       7.437   7.459  17.940  0.00  0.00    +0.000 A 
ATOM      2  C   UNL     1       6.324   7.339  17.104  0.00  0.00    +0.000 A 
ATOM      3  C   UNL     1       5.578   6.150  17.083  0.00  0.00    +0.000 A 
ATOM      4  C   UNL     1       5.942   5.064  17.891  0.00  0.00    +0.000 A 
ATOM      5  C   UNL     1       7.079   5.185  18.701  0.00  0.00    +0.000 A 
ATOM      6  C   UNL     1       7.821   6.374  18.726  0.00  0.00    +0.000 A 
ENDROOT
BRANCH   1   8
ATOM      7  C   UNL     1       8.702   9.762  18.160  0.00  0.00    +0.000 C 
ATOM      8  C   UNL     1       8.144   8.705  18.033  0.00  0.00    +0.000 C 
BRANCH   7  12
ATOM      9  C   UNL     1      10.463  13.463  18.735  0.00  0.00    +0.000 A 
ATOM     10  N   UNL     1       9.484  13.376  17.818  0.00  0.00    +0.000 NA
ATOM     11  C   UNL     1       8.936  12.152  17.650  0.00  0.00    +0.000 A 
ATOM     12  C   UNL     1       9.324  11.034  18.354  0.00  0.00    +0.000 A 
ATOM     13  C   UNL     1      10.340  11.243  19.261  0.00  0.00    +0.000 A 
ATOM     14  N   UNL     1      10.935  12.442  19.466  0.00  0.00    +0.000 NA
BRANCH   9  15
ATOM     15  O   UNL     1      11.085  14.678  18.942  0.00  0.00    +0.000 OA
BRANCH  15  16
ATOM     16  C   UNL     1      10.458  15.719  18.192  0.00  0.00    +0.000 C 
BRANCH  16  18
ATOM     17  C   UNL     1       8.430  17.180  18.488  0.00  0.00    +0.000 C 
ATOM     18  C   UNL     1       9.678  16.617  19.148  0.00  0.00    +0.000 C 
ENDBRANCH  16  18
ENDBRANCH  15  16
ENDBRANCH   9  15
ENDBRANCH   7  12
ENDBRANCH   1   8
BRANCH   4  19
ATOM     19  C   UNL     1       5.077   3.819  17.974  0.00  0.00    +0.000 C 
BRANCH  19  20
ATOM     20  C   UNL     1       3.576   4.043  18.283  0.00  0.00    +0.000 C 
ATOM     21  C   UNL     1       2.698   3.516  17.144  0.00  0.00    +0.000 C 
BRANCH  20  22
ATOM     22  N   UNL     1       3.170   3.384  19.533  0.00  0.00    +0.000 N 
ATOM     23  C   UNL     1       2.477   4.036  20.528  0.00  0.00    +0.000 C 
ATOM     24  C   UNL     1       2.112   3.167  21.705  0.00  0.00    +0.000 C 
ATOM     25  O   UNL     1       2.196   5.229  20.494  0.00  0.00    +0.000 OA
ATOM     26  H   UNL     1       3.185   2.372  19.559  0.00  0.00    +0.000 HD
ENDBRANCH  20  22
ENDBRANCH  19  20
ENDBRANCH   4  19
TORSDOF 8
ENDMDL
MODEL 3
REMARK VINA RESULT:      -7.2      7.110      8.840
REMARK  Name = 
REMARK  11 active torsions:
REMARK  status: ('A' for Active; 'I' for Inactive)
REMARK    1  A    between atoms: C_1  and  C_2
REMARK    2  A    between atoms: C_2  and  C_3
REMARK    3  A    between atoms: C_3  and  O_4
REMARK    4  A    between atoms: O_4  and  C_5
REMARK    5  A    between atoms: C_8  and  C_9
REMARK    6  A    between atoms: C_10  and  C_11
REMARK    7  A    between atoms: C_14  and  C_15
REMARK    8  A    between atoms: C_15  and  C_16
REMARK    9  A    between atoms: C_16  and  C_17
REMARK   10  A    between atoms: C_16  and  N_18
REMARK   11  A    between atoms: C_19  and  C_20
REMARK                            x       y       z     vdW  Elec       q    Type
REMARK                         _______ _______ _______ _____ _____    ______ ____
ROOT
ATOM      1  C   UNL     1       3.438   6.348  18.302  0.00  0.00    +0.000 A 
ATOM      2  C   UNL     1       4.215   6.867  17.263  0.00  0.00    +0.000 A 
ATOM      3  C   UNL     1       4.956   6.009  16.435  0.00  0.00    +0.000 A 
ATOM      4  C   UNL     1       4.935   4.623  16.641  0.00  0.00    +0.000 A 
ATOM      5  C   UNL     1       4.177   4.117  17.707  0.00  0.00    +0.000 A 
ATOM      6  C   UNL     1       3.433   4.974  18.530  0.00  0.00    +0.000 A 
ENDROOT
BRANCH   1   8
ATOM      7  C   UNL     1       1.949   7.929  19.797  0.00  0.00    +0.000 C 
ATOM      8  C   UNL     1       2.607   7.214  19.089  0.00  0.00    +0.000 C 
BRANCH   7  12
ATOM      9  C   UNL     1      -0.264  10.305  22.364  0.00  0.00    +0.000 A 
ATOM     10  N   UNL     1      -0.585  10.332  21.058  0.00  0.00    +0.000 NA
ATOM     11  C   UNL     1       0.162   9.551  20.247  0.00  0.00    +0.000 A 
ATOM     12  C   UNL     1       1.198   8.758  20.687  0.00  0.00    +0.000 A 
ATOM     13  C   UNL     1       1.438   8.816  22.042  0.00  0.00    +0.000 A 
ATOM     14  N   UNL     1       0.732   9.586  22.903  0.00  0.00    +0.000 NA
BRANCH   9  15
ATOM     15  O   UNL     1      -0.970  11.097  23.247  0.00  0.00    +0.000 OA
BRANCH  15  16
ATOM     16  C   UNL     1      -1.030  12.452  22.800  0.00  0.00    +0.000 C 
BRANCH  16  18
ATOM     17  C   UNL     1      -3.510  12.605  22.400  0.00  0.00    +0.000 C 
ATOM     18  C   UNL     1      -2.348  13.067  23.263  0.00  0.00    +0.000 C 
ENDBRANCH  16  18
ENDBRANCH  15  16
ENDBRANCH   9  15
ENDBRANCH   7  12
ENDBRANCH   1   8
BRANCH   4  19
ATOM     19  C   UNL     1       5.628   3.672  15.681  0.00  0.00    +0.000 C 
BRANCH  19  20
ATOM     20  C   UNL     1       5.964   4.234  14.278  0.00  0.00    +0.000 C 
ATOM     21  C   UNL     1       7.182   5.161  14.336  0.00  0.00    +0.000 C 
BRANCH  20  22
ATOM     22  N   UNL     1       6.234   3.162  13.309  0.00  0.00    +0.000 N 
ATOM     23  C   UNL     1       5.484   2.982  12.169  0.00  0.00    +0.000 C 
ATOM     24  C   UNL     1       5.958   1.858  11.282  0.00  0.00    +0.000 C 
ATOM     25  O   UNL     1       4.492   3.648  11.892  0.00  0.00    +0.000 OA
ATOM     26  H   UNL     1       7.135   2.701  13.355  0.00  0.00    +0.000 HD
ENDBRANCH  20  22
ENDBRANCH  19  20
ENDBRANCH   4  19
TORSDOF 8
ENDMDL
MODEL 4
REMARK VINA RESULT:      -7.2      7.009      9.283
REMARK  Name = 
REMARK  11 active torsions:
REMARK  status: ('A' for Active; 'I' for Inactive)
REMARK    1  A    between atoms: C_1  and  C_2
REMARK    2  A    between atoms: C_2  and  C_3
REMARK    3  A    between atoms: C_3  and  O_4
REMARK    4  A    between atoms: O_4  and  C_5
REMARK    5  A    between atoms: C_8  and  C_9
REMARK    6  A    between atoms: C_10  and  C_11
REMARK    7  A    between atoms: C_14  and  C_15
REMARK    8  A    between atoms: C_15  and  C_16
REMARK    9  A    between atoms: C_16  and  C_17
REMARK   10  A    between atoms: C_16  and  N_18
REMARK   11  A    between atoms: C_19  and  C_20
REMARK                            x       y       z     vdW  Elec       q    Type
REMARK                         _______ _______ _______ _____ _____    ______ ____
ROOT
ATOM      1  C   UNL     1       2.516   6.932  18.944  0.00  0.00    +0.000 A 
ATOM      2  C   UNL     1       2.379   5.572  19.238  0.00  0.00    +0.000 A 
ATOM      3  C   UNL     1       3.092   4.612  18.503  0.00  0.00    +0.000 A 
ATOM      4  C   UNL     1       3.944   5.000  17.460  0.00  0.00    +0.000 A 
ATOM      5  C   UNL     1       4.049   6.364  17.153  0.00  0.00    +0.000 A 
ATOM      6  C   UNL     1       3.340   7.323  17.891  0.00  0.00    +0.000 A 
ENDROOT
BRANCH   1   8
ATOM      7  C   UNL     1       1.259   8.715  20.425  0.00  0.00    +0.000 C 
ATOM      8  C   UNL     1       1.861   7.919  19.754  0.00  0.00    +0.000 C 
BRANCH   7  12
ATOM      9  C   UNL     1      -0.926  11.386  22.709  0.00  0.00    +0.000 A 
ATOM     10  N   UNL     1      -0.363  10.342  23.342  0.00  0.00    +0.000 NA
ATOM     11  C   UNL     1       0.337   9.485  22.566  0.00  0.00    +0.000 A 
ATOM     12  C   UNL     1       0.491   9.633  21.205  0.00  0.00    +0.000 A 
ATOM     13  C   UNL     1      -0.135  10.736  20.667  0.00  0.00    +0.000 A 
ATOM     14  N   UNL     1      -0.857  11.623  21.390  0.00  0.00    +0.000 NA
BRANCH   9  15
ATOM     15  O   UNL     1      -1.675  12.290  23.436  0.00  0.00    +0.000 OA
BRANCH  15  16
ATOM     16  C   UNL     1      -3.049  12.261  23.046  0.00  0.00    +0.000 C 
BRANCH  16  18
ATOM     17  C   UNL     1      -4.609  13.992  23.996  0.00  0.00    +0.000 C 
ATOM     18  C   UNL     1      -3.909  12.665  24.240  0.00  0.00    +0.000 C 
ENDBRANCH  16  18
ENDBRANCH  15  16
ENDBRANCH   9  15
ENDBRANCH   7  12
ENDBRANCH   1   8
BRANCH   4  19
ATOM     19  C   UNL     1       4.818   3.988  16.738  0.00  0.00    +0.000 C 
BRANCH  19  20
ATOM     20  C   UNL     1       5.978   4.563  15.889  0.00  0.00    +0.000 C 
ATOM     21  C   UNL     1       7.322   4.376  16.599  0.00  0.00    +0.000 C 
BRANCH  20  22
ATOM     22  N   UNL     1       6.054   3.929  14.564  0.00  0.00    +0.000 N 
ATOM     23  C   UNL     1       6.821   4.434  13.539  0.00  0.00    +0.000 C 
ATOM     24  C   UNL     1       6.801   3.606  12.279  0.00  0.00    +0.000 C 
ATOM     25  O   UNL     1       7.451   5.483  13.612  0.00  0.00    +0.000 OA
ATOM     26  H   UNL     1       5.731   2.973  14.480  0.00  0.00    +0.000 HD
ENDBRANCH  20  22
ENDBRANCH  19  20
ENDBRANCH   4  19
TORSDOF 8
ENDMDL
MODEL 5
REMARK VINA RESULT:      -7.1      1.523      2.160
REMARK  Name = 
REMARK  11 active torsions:
REMARK  status: ('A' for Active; 'I' for Inactive)
REMARK    1  A    between atoms: C_1  and  C_2
REMARK    2  A    between atoms: C_2  and  C_3
REMARK    3  A    between atoms: C_3  and  O_4
REMARK    4  A    between atoms: O_4  and  C_5
REMARK    5  A    between atoms: C_8  and  C_9
REMARK    6  A    between atoms: C_10  and  C_11
REMARK    7  A    between atoms: C_14  and  C_15
REMARK    8  A    between atoms: C_15  and  C_16
REMARK    9  A    between atoms: C_16  and  C_17
REMARK   10  A    between atoms: C_16  and  N_18
REMARK   11  A    between atoms: C_19  and  C_20
REMARK                            x       y       z     vdW  Elec       q    Type
REMARK                         _______ _______ _______ _____ _____    ______ ____
ROOT
ATOM      1  C   UNL     1       7.550   7.446  17.869  0.00  0.00    +0.000 A 
ATOM      2  C   UNL     1       6.521   7.345  16.928  0.00  0.00    +0.000 A 
ATOM      3  C   UNL     1       5.814   6.142  16.778  0.00  0.00    +0.000 A 
ATOM      4  C   UNL     1       6.131   5.024  17.561  0.00  0.00    +0.000 A 
ATOM      5  C   UNL     1       7.186   5.128  18.479  0.00  0.00    +0.000 A 
ATOM      6  C   UNL     1       7.890   6.331  18.632  0.00  0.00    +0.000 A 
ENDROOT
BRANCH   1   8
ATOM      7  C   UNL     1       8.739   9.773  18.221  0.00  0.00    +0.000 C 
ATOM      8  C   UNL     1       8.211   8.701  18.090  0.00  0.00    +0.000 C 
BRANCH   7  12
ATOM      9  C   UNL     1      10.470  13.519  18.535  0.00  0.00    +0.000 A 
ATOM     10  N   UNL     1       9.306  13.426  17.870  0.00  0.00    +0.000 NA
ATOM     11  C   UNL     1       8.772  12.188  17.779  0.00  0.00    +0.000 A 
ATOM     12  C   UNL     1       9.350  11.061  18.321  0.00  0.00    +0.000 A 
ATOM     13  C   UNL     1      10.543  11.278  18.975  0.00  0.00    +0.000 A 
ATOM     14  N   UNL     1      11.132  12.492  19.089  0.00  0.00    +0.000 NA
BRANCH   9  15
ATOM     15  O   UNL     1      11.085  14.750  18.647  0.00  0.00    +0.000 OA
BRANCH  15  16
ATOM     16  C   UNL     1      10.367  15.758  17.935  0.00  0.00    +0.000 C 
BRANCH  16  18
ATOM     17  C   UNL     1      12.112  17.543  17.618  0.00  0.00    +0.000 C 
ATOM     18  C   UNL     1      11.314  16.436  16.949  0.00  0.00    +0.000 C 
ENDBRANCH  16  18
ENDBRANCH  15  16
ENDBRANCH   9  15
ENDBRANCH   7  12
ENDBRANCH   1   8
BRANCH   4  19
ATOM     19  C   UNL     1       5.297   3.757  17.501  0.00  0.00    +0.000 C 
BRANCH  19  20
ATOM     20  C   UNL     1       4.103   3.672  18.483  0.00  0.00    +0.000 C 
ATOM     21  C   UNL     1       4.412   2.716  19.640  0.00  0.00    +0.000 C 
BRANCH  20  22
ATOM     22  N   UNL     1       3.759   4.988  19.041  0.00  0.00    +0.000 N 
ATOM     23  C   UNL     1       2.614   5.668  18.692  0.00  0.00    +0.000 C 
ATOM     24  C   UNL     1       2.421   6.977  19.416  0.00  0.00    +0.000 C 
ATOM     25  O   UNL     1       1.819   5.276  17.845  0.00  0.00    +0.000 OA
ATOM     26  H   UNL     1       4.245   5.288  19.877  0.00  0.00    +0.000 HD
ENDBRANCH  20  22
ENDBRANCH  19  20
ENDBRANCH   4  19
TORSDOF 8
ENDMDL
MODEL 6
REMARK VINA RESULT:      -7.1      1.066      1.500
REMARK  Name = 
REMARK  11 active torsions:
REMARK  status: ('A' for Active; 'I' for Inactive)
REMARK    1  A    between atoms: C_1  and  C_2
REMARK    2  A    between atoms: C_2  and  C_3
REMARK    3  A    between atoms: C_3  and  O_4
REMARK    4  A    between atoms: O_4  and  C_5
REMARK    5  A    between atoms: C_8  and  C_9
REMARK    6  A    between atoms: C_10  and  C_11
REMARK    7  A    between atoms: C_14  and  C_15
REMARK    8  A    between atoms: C_15  and  C_16
REMARK    9  A    between atoms: C_16  and  C_17
REMARK   10  A    between atoms: C_16  and  N_18
REMARK   11  A    between atoms: C_19  and  C_20
REMARK                            x       y       z     vdW  Elec       q    Type
REMARK                         _______ _______ _______ _____ _____    ______ ____
ROOT
ATOM      1  C   UNL     1       7.055   7.197  17.688  0.00  0.00    +0.000 A 
ATOM      2  C   UNL     1       7.503   5.952  18.137  0.00  0.00    +0.000 A 
ATOM      3  C   UNL     1       6.779   4.788  17.840  0.00  0.00    +0.000 A 
ATOM      4  C   UNL     1       5.592   4.855  17.097  0.00  0.00    +0.000 A 
ATOM      5  C   UNL     1       5.135   6.113  16.680  0.00  0.00    +0.000 A 
ATOM      6  C   UNL     1       5.862   7.275  16.972  0.00  0.00    +0.000 A 
ENDROOT
BRANCH   1   8
ATOM      7  C   UNL     1       8.460   9.383  18.138  0.00  0.00    +0.000 C 
ATOM      8  C   UNL     1       7.842   8.376  17.910  0.00  0.00    +0.000 C 
BRANCH   7  12
ATOM      9  C   UNL     1      10.487  12.885  19.003  0.00  0.00    +0.000 A 
ATOM     10  N   UNL     1      10.792  11.795  19.729  0.00  0.00    +0.000 NA
ATOM     11  C   UNL     1      10.106  10.671  19.426  0.00  0.00    +0.000 A 
ATOM     12  C   UNL     1       9.146  10.599  18.441  0.00  0.00    +0.000 A 
ATOM     13  C   UNL     1       8.915  11.779  17.769  0.00  0.00    +0.000 A 
ATOM     14  N   UNL     1       9.561  12.939  18.034  0.00  0.00    +0.000 NA
BRANCH   9  15
ATOM     15  O   UNL     1      11.132  14.076  19.274  0.00  0.00    +0.000 OA
BRANCH  15  16
ATOM     16  C   UNL     1      10.249  15.021  19.881  0.00  0.00    +0.000 C 
BRANCH  16  18
ATOM     17  C   UNL     1       9.395  14.366  22.156  0.00  0.00    +0.000 C 
ATOM     18  C   UNL     1      10.512  15.049  21.384  0.00  0.00    +0.000 C 
ENDBRANCH  16  18
ENDBRANCH  15  16
ENDBRANCH   9  15
ENDBRANCH   7  12
ENDBRANCH   1   8
BRANCH   4  19
ATOM     19  C   UNL     1       4.863   3.597  16.660  0.00  0.00    +0.000 C 
BRANCH  19  20
ATOM     20  C   UNL     1       3.612   3.205  17.484  0.00  0.00    +0.000 C 
ATOM     21  C   UNL     1       3.724   1.767  18.000  0.00  0.00    +0.000 C 
BRANCH  20  22
ATOM     22  N   UNL     1       3.409   4.102  18.632  0.00  0.00    +0.000 N 
ATOM     23  C   UNL     1       2.167   4.356  19.168  0.00  0.00    +0.000 C 
ATOM     24  C   UNL     1       2.182   5.263  20.372  0.00  0.00    +0.000 C 
ATOM     25  O   UNL     1       1.120   3.917  18.703  0.00  0.00    +0.000 OA
ATOM     26  H   UNL     1       4.219   4.344  19.190  0.00  0.00    +0.000 HD
ENDBRANCH  20  22
ENDBRANCH  19  20
ENDBRANCH   4  19
TORSDOF 8
ENDMDL
MODEL 7
REMARK VINA RESULT:      -7.1      2.335     10.966
REMARK  Name = 
REMARK  11 active torsions:
REMARK  status: ('A' for Active; 'I' for Inactive)
REMARK    1  A    between atoms: C_1  and  C_2
REMARK    2  A    between atoms: C_2  and  C_3
REMARK    3  A    between atoms: C_3  and  O_4
REMARK    4  A    between atoms: O_4  and  C_5
REMARK    5  A    between atoms: C_8  and  C_9
REMARK    6  A    between atoms: C_10  and  C_11
REMARK    7  A    between atoms: C_14  and  C_15
REMARK    8  A    between atoms: C_15  and  C_16
REMARK    9  A    between atoms: C_16  and  C_17
REMARK   10  A    between atoms: C_16  and  N_18
REMARK   11  A    between atoms: C_19  and  C_20
REMARK                            x       y       z     vdW  Elec       q    Type
REMARK                         _______ _______ _______ _____ _____    ______ ____
ROOT
ATOM      1  C   UNL     1       9.234  10.246  18.742  0.00  0.00    +0.000 A 
ATOM      2  C   UNL     1       9.366  10.521  20.106  0.00  0.00    +0.000 A 
ATOM      3  C   UNL     1       9.971  11.712  20.534  0.00  0.00    +0.000 A 
ATOM      4  C   UNL     1      10.460  12.640  19.603  0.00  0.00    +0.000 A 
ATOM      5  C   UNL     1      10.350  12.338  18.239  0.00  0.00    +0.000 A 
ATOM      6  C   UNL     1       9.741  11.150  17.811  0.00  0.00    +0.000 A 
ENDROOT
BRANCH   1   8
ATOM      7  C   UNL     1       7.903   8.101  17.979  0.00  0.00    +0.000 C 
ATOM      8  C   UNL     1       8.532   9.074  18.302  0.00  0.00    +0.000 C 
BRANCH   7  12
ATOM      9  C   UNL     1       5.645   4.784  16.968  0.00  0.00    +0.000 A 
ATOM     10  N   UNL     1       5.157   5.992  16.636  0.00  0.00    +0.000 NA
ATOM     11  C   UNL     1       5.916   7.054  16.987  0.00  0.00    +0.000 A 
ATOM     12  C   UNL     1       7.121   6.952  17.645  0.00  0.00    +0.000 A 
ATOM     13  C   UNL     1       7.516   5.665  17.938  0.00  0.00    +0.000 A 
ATOM     14  N   UNL     1       6.796   4.564  17.621  0.00  0.00    +0.000 NA
BRANCH   9  15
ATOM     15  O   UNL     1       4.912   3.655  16.661  0.00  0.00    +0.000 OA
BRANCH  15  16
ATOM     16  C   UNL     1       3.664   3.639  17.355  0.00  0.00    +0.000 C 
BRANCH  16  18
ATOM     17  C   UNL     1       2.346   2.165  18.913  0.00  0.00    +0.000 C 
ATOM     18  C   UNL     1       3.348   2.205  17.771  0.00  0.00    +0.000 C 
ENDBRANCH  16  18
ENDBRANCH  15  16
ENDBRANCH   9  15
ENDBRANCH   7  12
ENDBRANCH   1   8
BRANCH   4  19
ATOM     19  C   UNL     1      11.003  13.987  20.044  0.00  0.00    +0.000 C 
BRANCH  19  20
ATOM     20  C   UNL     1      10.042  15.194  19.910  0.00  0.00    +0.000 C 
ATOM     21  C   UNL     1       9.758  15.824  21.276  0.00  0.00    +0.000 C 
BRANCH  20  22
ATOM     22  N   UNL     1      10.585  16.230  19.018  0.00  0.00    +0.000 N 
ATOM     23  C   UNL     1       9.789  17.003  18.203  0.00  0.00    +0.000 C 
ATOM     24  C   UNL     1      10.537  18.042  17.407  0.00  0.00    +0.000 C 
ATOM     25  O   UNL     1       8.576  16.857  18.097  0.00  0.00    +0.000 OA
ATOM     26  H   UNL     1      11.532  16.547  19.186  0.00  0.00    +0.000 HD
ENDBRANCH  20  22
ENDBRANCH  19  20
ENDBRANCH   4  19
TORSDOF 8
ENDMDL
MODEL 8
REMARK VINA RESULT:      -7.1      1.220      1.544
REMARK  Name = 
REMARK  11 active torsions:
REMARK  status: ('A' for Active; 'I' for Inactive)
REMARK    1  A    between atoms: C_1  and  C_2
REMARK    2  A    between atoms: C_2  and  C_3
REMARK    3  A    between atoms: C_3  and  O_4
REMARK    4  A    between atoms: O_4  and  C_5
REMARK    5  A    between atoms: C_8  and  C_9
REMARK    6  A    between atoms: C_10  and  C_11
REMARK    7  A    between atoms: C_14  and  C_15
REMARK    8  A    between atoms: C_15  and  C_16
REMARK    9  A    between atoms: C_16  and  C_17
REMARK   10  A    between atoms: C_16  and  N_18
REMARK   11  A    between atoms: C_19  and  C_20
REMARK                            x       y       z     vdW  Elec       q    Type
REMARK                         _______ _______ _______ _____ _____    ______ ____
ROOT
ATOM      1  C   UNL     1       7.129   7.051  17.633  0.00  0.00    +0.000 A 
ATOM      2  C   UNL     1       5.976   7.119  16.846  0.00  0.00    +0.000 A 
ATOM      3  C   UNL     1       5.224   5.962  16.589  0.00  0.00    +0.000 A 
ATOM      4  C   UNL     1       5.621   4.722  17.108  0.00  0.00    +0.000 A 
ATOM      5  C   UNL     1       6.797   4.661  17.869  0.00  0.00    +0.000 A 
ATOM      6  C   UNL     1       7.545   5.818  18.130  0.00  0.00    +0.000 A 
ENDROOT
BRANCH   1   8
ATOM      7  C   UNL     1       8.487   9.214  18.291  0.00  0.00    +0.000 C 
ATOM      8  C   UNL     1       7.845   8.247  17.974  0.00  0.00    +0.000 C 
BRANCH   7  12
ATOM      9  C   UNL     1      10.761  12.466  19.465  0.00  0.00    +0.000 A 
ATOM     10  N   UNL     1      10.663  12.219  18.147  0.00  0.00    +0.000 NA
ATOM     11  C   UNL     1       9.920  11.145  17.798  0.00  0.00    +0.000 A 
ATOM     12  C   UNL     1       9.282  10.327  18.704  0.00  0.00    +0.000 A 
ATOM     13  C   UNL     1       9.459  10.674  20.025  0.00  0.00    +0.000 A 
ATOM     14  N   UNL     1      10.200  11.730  20.436  0.00  0.00    +0.000 NA
BRANCH   9  15
ATOM     15  O   UNL     1      11.525  13.533  19.894  0.00  0.00    +0.000 OA
BRANCH  15  16
ATOM     16  C   UNL     1      11.471  14.619  18.968  0.00  0.00    +0.000 C 
BRANCH  16  18
ATOM     17  C   UNL     1       9.417  15.843  18.184  0.00  0.00    +0.000 C 
ATOM     18  C   UNL     1      10.328  15.549  19.364  0.00  0.00    +0.000 C 
ENDBRANCH  16  18
ENDBRANCH  15  16
ENDBRANCH   9  15
ENDBRANCH   7  12
ENDBRANCH   1   8
BRANCH   4  19
ATOM     19  C   UNL     1       4.756   3.485  16.945  0.00  0.00    +0.000 C 
BRANCH  19  20
ATOM     20  C   UNL     1       3.328   3.562  17.539  0.00  0.00    +0.000 C 
ATOM     21  C   UNL     1       2.630   2.201  17.466  0.00  0.00    +0.000 C 
BRANCH  20  22
ATOM     22  N   UNL     1       3.341   4.008  18.940  0.00  0.00    +0.000 N 
ATOM     23  C   UNL     1       2.189   4.249  19.656  0.00  0.00    +0.000 C 
ATOM     24  C   UNL     1       2.421   4.649  21.091  0.00  0.00    +0.000 C 
ATOM     25  O   UNL     1       1.062   4.180  19.178  0.00  0.00    +0.000 OA
ATOM     26  H   UNL     1       4.202   3.901  19.461  0.00  0.00    +0.000 HD
ENDBRANCH  20  22
ENDBRANCH  19  20
ENDBRANCH   4  19
TORSDOF 8
ENDMDL
MODEL 9
REMARK VINA RESULT:      -7.1      1.511      1.794
REMARK  Name = 
REMARK  11 active torsions:
REMARK  status: ('A' for Active; 'I' for Inactive)
REMARK    1  A    between atoms: C_1  and  C_2
REMARK    2  A    between atoms: C_2  and  C_3
REMARK    3  A    between atoms: C_3  and  O_4
REMARK    4  A    between atoms: O_4  and  C_5
REMARK    5  A    between atoms: C_8  and  C_9
REMARK    6  A    between atoms: C_10  and  C_11
REMARK    7  A    between atoms: C_14  and  C_15
REMARK    8  A    between atoms: C_15  and  C_16
REMARK    9  A    between atoms: C_16  and  C_17
REMARK   10  A    between atoms: C_16  and  N_18
REMARK   11  A    between atoms: C_19  and  C_20
REMARK                            x       y       z     vdW  Elec       q    Type
REMARK                         _______ _______ _______ _____ _____    ______ ____
ROOT
ATOM      1  C   UNL     1       7.608   7.681  17.921  0.00  0.00    +0.000 A 
ATOM      2  C   UNL     1       6.523   7.558  17.048  0.00  0.00    +0.000 A 
ATOM      3  C   UNL     1       5.775   6.371  17.009  0.00  0.00    +0.000 A 
ATOM      4  C   UNL     1       6.109   5.289  17.836  0.00  0.00    +0.000 A 
ATOM      5  C   UNL     1       7.219   5.414  18.684  0.00  0.00    +0.000 A 
ATOM      6  C   UNL     1       7.962   6.601  18.726  0.00  0.00    +0.000 A 
ENDROOT
BRANCH   1   8
ATOM      7  C   UNL     1       8.858   9.991  18.151  0.00  0.00    +0.000 C 
ATOM      8  C   UNL     1       8.314   8.926  18.029  0.00  0.00    +0.000 C 
BRANCH   7  12
ATOM      9  C   UNL     1      10.614  13.711  18.611  0.00  0.00    +0.000 A 
ATOM     10  N   UNL     1      11.296  12.641  19.057  0.00  0.00    +0.000 NA
ATOM     11  C   UNL     1      10.691  11.443  18.898  0.00  0.00    +0.000 A 
ATOM     12  C   UNL     1       9.453  11.280  18.320  0.00  0.00    +0.000 A 
ATOM     13  C   UNL     1       8.847  12.446  17.906  0.00  0.00    +0.000 A 
ATOM     14  N   UNL     1       9.397  13.675  18.047  0.00  0.00    +0.000 NA
BRANCH   9  15
ATOM     15  O   UNL     1      11.161  14.969  18.762  0.00  0.00    +0.000 OA
BRANCH  15  16
ATOM     16  C   UNL     1      10.805  15.826  17.676  0.00  0.00    +0.000 C 
BRANCH  16  18
ATOM     17  C   UNL     1      10.805  18.317  17.315  0.00  0.00    +0.000 C 
ATOM     18  C   UNL     1      10.385  17.183  18.235  0.00  0.00    +0.000 C 
ENDBRANCH  16  18
ENDBRANCH  15  16
ENDBRANCH   9  15
ENDBRANCH   7  12
ENDBRANCH   1   8
BRANCH   4  19
ATOM     19  C   UNL     1       5.239   4.047  17.899  0.00  0.00    +0.000 C 
BRANCH  19  20
ATOM     20  C   UNL     1       4.189   3.998  19.036  0.00  0.00    +0.000 C 
ATOM     21  C   UNL     1       3.910   5.400  19.584  0.00  0.00    +0.000 C 
BRANCH  20  22
ATOM     22  N   UNL     1       2.919   3.409  18.584  0.00  0.00    +0.000 N 
ATOM     23  C   UNL     1       2.069   2.733  19.430  0.00  0.00    +0.000 C 
ATOM     24  C   UNL     1       0.796   2.252  18.781  0.00  0.00    +0.000 C 
ATOM     25  O   UNL     1       2.319   2.504  20.609  0.00  0.00    +0.000 OA
ATOM     26  H   UNL     1       2.548   3.715  17.694  0.00  0.00    +0.000 HD
ENDBRANCH  20  22
ENDBRANCH  19  20
ENDBRANCH   4  19
TORSDOF 8
ENDMDL
