MODEL 1
REMARK VINA RESULT:      -8.5      0.000      0.000
REMARK  Name = 
REMARK  5 active torsions:
REMARK  status: ('A' for Active; 'I' for Inactive)
REMARK    1  A    between atoms: C_2  and  C_3
REMARK    2  A    between atoms: C_3  and  C_4
REMARK    3  A    between atoms: C_4  and  C_5
REMARK    4  A    between atoms: C_13  and  C_14
REMARK    5  A    between atoms: N_21  and  C_22
REMARK                            x       y       z     vdW  Elec       q    Type
REMARK                         _______ _______ _______ _____ _____    ______ ____
ROOT
ATOM      1  C   UNL     1       4.227   6.145  17.872  0.00  0.00    +0.000 C 
ATOM      2  O   UNL     1       4.386   4.978  18.235  0.00  0.00    +0.000 OA
ATOM      3  N   UNL     1       3.246   6.980  18.403  0.00  0.00    +0.000 N 
ATOM      4  C   UNL     1       3.107   8.376  17.974  0.00  0.00    +0.000 C 
ATOM      5  C   UNL     1       1.642   8.784  17.992  0.00  0.00    +0.000 C 
ATOM      6  N   UNL     1       1.079   8.627  19.306  0.00  0.00    +0.000 N 
ATOM      7  C   UNL     1       1.468   7.638  20.171  0.00  0.00    +0.000 C 
ATOM      8  O   UNL     1       0.868   7.536  21.243  0.00  0.00    +0.000 OA
ATOM      9  C   UNL     1       2.673   6.702  19.757  0.00  0.00    +0.000 C 
ATOM     10  H   UNL     1       0.232   9.119  19.569  0.00  0.00    +0.000 HD
ENDROOT
BRANCH   9  11
ATOM     11  C   UNL     1       2.256   5.264  20.040  0.00  0.00    +0.000 A 
ATOM     12  C   UNL     1       2.557   4.679  21.286  0.00  0.00    +0.000 A 
ATOM     13  C   UNL     1       2.055   3.419  21.626  0.00  0.00    +0.000 A 
ATOM     14  C   UNL     1       1.242   2.733  20.728  0.00  0.00    +0.000 A 
ATOM     15  C   UNL     1       0.964   3.297  19.488  0.00  0.00    +0.000 A 
ATOM     16  F   UNL     1       0.163   2.644  18.634  0.00  0.00    +0.000 F 
ATOM     17  C   UNL     1       1.471   4.543  19.130  0.00  0.00    +0.000 A 
ENDBRANCH   9  11
BRANCH   1  18
ATOM     18  C   UNL     1       5.106   6.707  16.756  0.00  0.00    +0.000 C 
BRANCH  18  19
ATOM     19  C   UNL     1       6.592   6.451  16.976  0.00  0.00    +0.000 C 
BRANCH  19  21
ATOM     20  O   UNL     1       7.856   4.462  16.505  0.00  0.00    +0.000 OA
ATOM     21  C   UNL     1       7.067   5.306  16.103  0.00  0.00    +0.000 C 
ATOM     22  N   UNL     1       6.498   5.305  14.852  0.00  0.00    +0.000 N 
ATOM     23  H   UNL     1       5.671   5.892  14.732  0.00  0.00    +0.000 HD
BRANCH  22  24
ATOM     24  C   UNL     1       6.745   4.282  13.865  0.00  0.00    +0.000 C 
ATOM     25  C   UNL     1       5.487   3.620  13.309  0.00  0.00    +0.000 C 
ATOM     26  C   UNL     1       5.977   2.956  12.027  0.00  0.00    +0.000 C 
ATOM     27  C   UNL     1       7.119   3.833  11.514  0.00  0.00    +0.000 C 
ATOM     28  C   UNL     1       7.390   4.861  12.607  0.00  0.00    +0.000 C 
ENDBRANCH  22  24
ENDBRANCH  19  21
ENDBRANCH  18  19
ENDBRANCH   1  18
TORSDOF 5
ENDMDL
MODEL 2
REMARK VINA RESULT:      -8.3      0.899      1.298
REMARK  Name = 
REMARK  5 active torsions:
REMARK  status: ('A' for Active; 'I' for Inactive)
REMARK    1  A    between atoms: C_2  and  C_3
REMARK    2  A    between atoms: C_3  and  C_4
REMARK    3  A    between atoms: C_4  and  C_5
REMARK    4  A    between atoms: C_13  and  C_14
REMARK    5  A    between atoms: N_21  and  C_22
REMARK                            x       y       z     vdW  Elec       q    Type
REMARK                         _______ _______ _______ _____ _____    ______ ____
ROOT
ATOM      1  C   UNL     1       4.050   6.090  17.704  0.00  0.00    +0.000 C 
ATOM      2  O   UNL     1       4.132   4.897  18.002  0.00  0.00    +0.000 OA
ATOM      3  N   UNL     1       3.172   6.973  18.332  0.00  0.00    +0.000 N 
ATOM      4  C   UNL     1       3.125   8.396  17.977  0.00  0.00    +0.000 C 
ATOM      5  C   UNL     1       1.703   8.918  18.101  0.00  0.00    +0.000 C 
ATOM      6  N   UNL     1       1.202   8.739  19.437  0.00  0.00    +0.000 N 
ATOM      7  C   UNL     1       1.556   7.678  20.231  0.00  0.00    +0.000 C 
ATOM      8  O   UNL     1       1.009   7.570  21.330  0.00  0.00    +0.000 OA
ATOM      9  C   UNL     1       2.654   6.672  19.702  0.00  0.00    +0.000 C 
ATOM     10  H   UNL     1       0.414   9.282  19.772  0.00  0.00    +0.000 HD
ENDROOT
BRANCH   9  11
ATOM     11  C   UNL     1       2.136   5.260  19.941  0.00  0.00    +0.000 A 
ATOM     12  C   UNL     1       1.244   4.674  19.019  0.00  0.00    +0.000 A 
ATOM     13  C   UNL     1       0.874   3.331  19.135  0.00  0.00    +0.000 A 
ATOM     14  C   UNL     1       1.394   2.556  20.167  0.00  0.00    +0.000 A 
ATOM     15  C   UNL     1       2.255   3.137  21.092  0.00  0.00    +0.000 A 
ATOM     16  F   UNL     1       2.773   2.383  22.072  0.00  0.00    +0.000 F 
ATOM     17  C   UNL     1       2.619   4.478  20.999  0.00  0.00    +0.000 A 
ENDBRANCH   9  11
BRANCH   1  18
ATOM     18  C   UNL     1       4.910   6.638  16.566  0.00  0.00    +0.000 C 
BRANCH  18  19
ATOM     19  C   UNL     1       6.403   6.432  16.790  0.00  0.00    +0.000 C 
BRANCH  19  21
ATOM     20  O   UNL     1       7.853   4.589  16.263  0.00  0.00    +0.000 OA
ATOM     21  C   UNL     1       6.917   5.300  15.921  0.00  0.00    +0.000 C 
ATOM     22  N   UNL     1       6.208   5.146  14.754  0.00  0.00    +0.000 N 
ATOM     23  H   UNL     1       5.304   5.616  14.710  0.00  0.00    +0.000 HD
BRANCH  22  24
ATOM     24  C   UNL     1       6.470   4.098  13.797  0.00  0.00    +0.000 C 
ATOM     25  C   UNL     1       5.226   3.553  13.099  0.00  0.00    +0.000 C 
ATOM     26  C   UNL     1       5.794   2.839  11.878  0.00  0.00    +0.000 C 
ATOM     27  C   UNL     1       7.062   3.603  11.501  0.00  0.00    +0.000 C 
ATOM     28  C   UNL     1       7.303   4.608  12.622  0.00  0.00    +0.000 C 
ENDBRANCH  22  24
ENDBRANCH  19  21
ENDBRANCH  18  19
ENDBRANCH   1  18
TORSDOF 5
ENDMDL
MODEL 3
REMARK VINA RESULT:      -8.3      2.985      7.867
REMARK  Name = 
REMARK  5 active torsions:
REMARK  status: ('A' for Active; 'I' for Inactive)
REMARK    1  A    between atoms: C_2  and  C_3
REMARK    2  A    between atoms: C_3  and  C_4
REMARK    3  A    between atoms: C_4  and  C_5
REMARK    4  A    between atoms: C_13  and  C_14
REMARK    5  A    between atoms: N_21  and  C_22
REMARK                            x       y       z     vdW  Elec       q    Type
REMARK                         _______ _______ _______ _____ _____    ______ ____
ROOT
ATOM      1  C   UNL     1       2.933   6.653  18.371  0.00  0.00    +0.000 C 
ATOM      2  O   UNL     1       3.927   7.102  17.798  0.00  0.00    +0.000 OA
ATOM      3  N   UNL     1       2.878   5.365  18.903  0.00  0.00    +0.000 N 
ATOM      4  C   UNL     1       1.691   4.874  19.611  0.00  0.00    +0.000 C 
ATOM      5  C   UNL     1       1.507   3.387  19.352  0.00  0.00    +0.000 C 
ATOM      6  N   UNL     1       2.662   2.643  19.775  0.00  0.00    +0.000 N 
ATOM      7  C   UNL     1       3.937   3.141  19.707  0.00  0.00    +0.000 C 
ATOM      8  O   UNL     1       4.868   2.396  20.017  0.00  0.00    +0.000 OA
ATOM      9  C   UNL     1       4.138   4.643  19.257  0.00  0.00    +0.000 C 
ATOM     10  H   UNL     1       2.599   1.647  19.956  0.00  0.00    +0.000 HD
ENDROOT
BRANCH   9  11
ATOM     11  C   UNL     1       5.254   4.666  18.219  0.00  0.00    +0.000 A 
ATOM     12  C   UNL     1       6.542   5.108  18.583  0.00  0.00    +0.000 A 
ATOM     13  C   UNL     1       7.615   4.996  17.695  0.00  0.00    +0.000 A 
ATOM     14  C   UNL     1       7.417   4.436  16.436  0.00  0.00    +0.000 A 
ATOM     15  C   UNL     1       6.142   4.021  16.065  0.00  0.00    +0.000 A 
ATOM     16  F   UNL     1       5.958   3.461  14.861  0.00  0.00    +0.000 F 
ATOM     17  C   UNL     1       5.061   4.142  16.933  0.00  0.00    +0.000 A 
ENDBRANCH   9  11
BRANCH   1  18
ATOM     18  C   UNL     1       1.676   7.516  18.476  0.00  0.00    +0.000 C 
BRANCH  18  19
ATOM     19  C   UNL     1       1.841   8.895  17.849  0.00  0.00    +0.000 C 
BRANCH  19  21
ATOM     20  O   UNL     1       1.620  11.167  18.600  0.00  0.00    +0.000 OA
ATOM     21  C   UNL     1       1.486   9.977  18.850  0.00  0.00    +0.000 C 
ATOM     22  N   UNL     1       0.976   9.482  20.027  0.00  0.00    +0.000 N 
ATOM     23  H   UNL     1       0.669   8.510  20.012  0.00  0.00    +0.000 HD
BRANCH  22  24
ATOM     24  C   UNL     1       0.508  10.319  21.106  0.00  0.00    +0.000 C 
ATOM     25  C   UNL     1      -0.772  11.092  20.798  0.00  0.00    +0.000 C 
ATOM     26  C   UNL     1      -1.275  11.500  22.178  0.00  0.00    +0.000 C 
ATOM     27  C   UNL     1      -0.817  10.397  23.132  0.00  0.00    +0.000 C 
ATOM     28  C   UNL     1       0.101   9.489  22.322  0.00  0.00    +0.000 C 
ENDBRANCH  22  24
ENDBRANCH  19  21
ENDBRANCH  18  19
ENDBRANCH   1  18
TORSDOF 5
ENDMDL
MODEL 4
REMARK VINA RESULT:      -8.2      3.030      8.051
REMARK  Name = 
REMARK  5 active torsions:
REMARK  status: ('A' for Active; 'I' for Inactive)
REMARK    1  A    between atoms: C_2  and  C_3
REMARK    2  A    between atoms: C_3  and  C_4
REMARK    3  A    between atoms: C_4  and  C_5
REMARK    4  A    between atoms: C_13  and  C_14
REMARK    5  A    between atoms: N_21  and  C_22
REMARK                            x       y       z     vdW  Elec       q    Type
REMARK                         _______ _______ _______ _____ _____    ______ ____
ROOT
ATOM      1  C   UNL     1       3.318   6.529  18.411  0.00  0.00    +0.000 C 
ATOM      2  O   UNL     1       4.347   6.953  17.882  0.00  0.00    +0.000 OA
ATOM      3  N   UNL     1       2.967   5.180  18.419  0.00  0.00    +0.000 N 
ATOM      4  C   UNL     1       1.753   4.703  19.090  0.00  0.00    +0.000 C 
ATOM      5  C   UNL     1       1.163   3.526  18.327  0.00  0.00    +0.000 C 
ATOM      6  N   UNL     1       2.111   2.450  18.227  0.00  0.00    +0.000 N 
ATOM      7  C   UNL     1       3.463   2.652  18.125  0.00  0.00    +0.000 C 
ATOM      8  O   UNL     1       4.186   1.668  17.961  0.00  0.00    +0.000 OA
ATOM      9  C   UNL     1       4.017   4.128  18.246  0.00  0.00    +0.000 C 
ATOM     10  H   UNL     1       1.803   1.505  18.027  0.00  0.00    +0.000 HD
ENDROOT
BRANCH   9  11
ATOM     11  C   UNL     1       5.014   4.338  17.112  0.00  0.00    +0.000 A 
ATOM     12  C   UNL     1       6.379   4.529  17.406  0.00  0.00    +0.000 A 
ATOM     13  C   UNL     1       7.332   4.573  16.384  0.00  0.00    +0.000 A 
ATOM     14  C   UNL     1       6.934   4.419  15.059  0.00  0.00    +0.000 A 
ATOM     15  C   UNL     1       5.584   4.255  14.765  0.00  0.00    +0.000 A 
ATOM     16  F   UNL     1       5.205   4.085  13.490  0.00  0.00    +0.000 F 
ATOM     17  C   UNL     1       4.623   4.227  15.771  0.00  0.00    +0.000 A 
ENDBRANCH   9  11
BRANCH   1  18
ATOM     18  C   UNL     1       2.345   7.516  19.055  0.00  0.00    +0.000 C 
BRANCH  18  19
ATOM     19  C   UNL     1       1.926   8.642  18.118  0.00  0.00    +0.000 C 
BRANCH  19  21
ATOM     20  O   UNL     1       0.130  10.240  18.116  0.00  0.00    +0.000 OA
ATOM     21  C   UNL     1       0.854   9.498  18.766  0.00  0.00    +0.000 C 
ATOM     22  N   UNL     1       0.769   9.323  20.126  0.00  0.00    +0.000 N 
ATOM     23  H   UNL     1       1.234   8.498  20.506  0.00  0.00    +0.000 HD
BRANCH  22  24
ATOM     24  C   UNL     1      -0.214   9.980  20.953  0.00  0.00    +0.000 C 
ATOM     25  C   UNL     1      -0.324   9.424  22.370  0.00  0.00    +0.000 C 
ATOM     26  C   UNL     1      -1.048  10.532  23.127  0.00  0.00    +0.000 C 
ATOM     27  C   UNL     1      -0.634  11.838  22.450  0.00  0.00    +0.000 C 
ATOM     28  C   UNL     1       0.153  11.442  21.206  0.00  0.00    +0.000 C 
ENDBRANCH  22  24
ENDBRANCH  19  21
ENDBRANCH  18  19
ENDBRANCH   1  18
TORSDOF 5
ENDMDL
MODEL 5
REMARK VINA RESULT:      -8.1      3.438      7.546
REMARK  Name = 
REMARK  5 active torsions:
REMARK  status: ('A' for Active; 'I' for Inactive)
REMARK    1  A    between atoms: C_2  and  C_3
REMARK    2  A    between atoms: C_3  and  C_4
REMARK    3  A    between atoms: C_4  and  C_5
REMARK    4  A    between atoms: C_13  and  C_14
REMARK    5  A    between atoms: N_21  and  C_22
REMARK                            x       y       z     vdW  Elec       q    Type
REMARK                         _______ _______ _______ _____ _____    ______ ____
ROOT
ATOM      1  C   UNL     1       2.840   6.905  18.834  0.00  0.00    +0.000 C 
ATOM      2  O   UNL     1       3.764   7.084  18.039  0.00  0.00    +0.000 OA
ATOM      3  N   UNL     1       2.620   5.692  19.485  0.00  0.00    +0.000 N 
ATOM      4  C   UNL     1       1.531   5.523  20.454  0.00  0.00    +0.000 C 
ATOM      5  C   UNL     1       0.979   4.109  20.376  0.00  0.00    +0.000 C 
ATOM      6  N   UNL     1       2.008   3.138  20.635  0.00  0.00    +0.000 N 
ATOM      7  C   UNL     1       3.317   3.324  20.273  0.00  0.00    +0.000 C 
ATOM      8  O   UNL     1       4.108   2.398  20.465  0.00  0.00    +0.000 OA
ATOM      9  C   UNL     1       3.739   4.715  19.654  0.00  0.00    +0.000 C 
ATOM     10  H   UNL     1       1.770   2.193  20.916  0.00  0.00    +0.000 HD
ENDROOT
BRANCH   9  11
ATOM     11  C   UNL     1       4.589   4.430  18.421  0.00  0.00    +0.000 A 
ATOM     12  C   UNL     1       3.965   4.126  17.195  0.00  0.00    +0.000 A 
ATOM     13  C   UNL     1       4.713   4.009  16.019  0.00  0.00    +0.000 A 
ATOM     14  C   UNL     1       6.091   4.202  16.055  0.00  0.00    +0.000 A 
ATOM     15  C   UNL     1       6.713   4.478  17.268  0.00  0.00    +0.000 A 
ATOM     16  F   UNL     1       8.037   4.685  17.296  0.00  0.00    +0.000 F 
ATOM     17  C   UNL     1       5.982   4.580  18.449  0.00  0.00    +0.000 A 
ENDBRANCH   9  11
BRANCH   1  18
ATOM     18  C   UNL     1       1.851   8.040  19.100  0.00  0.00    +0.000 C 
BRANCH  18  19
ATOM     19  C   UNL     1       1.654   8.957  17.900  0.00  0.00    +0.000 C 
BRANCH  19  21
ATOM     20  O   UNL     1       0.531  10.790  18.976  0.00  0.00    +0.000 OA
ATOM     21  C   UNL     1       0.489   9.899  18.139  0.00  0.00    +0.000 C 
ATOM     22  N   UNL     1      -0.577   9.665  17.304  0.00  0.00    +0.000 N 
ATOM     23  H   UNL     1      -0.392   9.082  16.487  0.00  0.00    +0.000 HD
BRANCH  22  24
ATOM     24  C   UNL     1      -1.775  10.470  17.299  0.00  0.00    +0.000 C 
ATOM     25  C   UNL     1      -2.443  10.603  15.932  0.00  0.00    +0.000 C 
ATOM     26  C   UNL     1      -3.851  11.076  16.275  0.00  0.00    +0.000 C 
ATOM     27  C   UNL     1      -4.173  10.470  17.640  0.00  0.00    +0.000 C 
ATOM     28  C   UNL     1      -2.881   9.833  18.139  0.00  0.00    +0.000 C 
ENDBRANCH  22  24
ENDBRANCH  19  21
ENDBRANCH  18  19
ENDBRANCH   1  18
TORSDOF 5
ENDMDL
MODEL 6
REMARK VINA RESULT:      -8.1      3.130      8.112
REMARK  Name = 
REMARK  5 active torsions:
REMARK  status: ('A' for Active; 'I' for Inactive)
REMARK    1  A    between atoms: C_2  and  C_3
REMARK    2  A    between atoms: C_3  and  C_4
REMARK    3  A    between atoms: C_4  and  C_5
REMARK    4  A    between atoms: C_13  and  C_14
REMARK    5  A    between atoms: N_21  and  C_22
REMARK                            x       y       z     vdW  Elec       q    Type
REMARK                         _______ _______ _______ _____ _____    ______ ____
ROOT
ATOM      1  C   UNL     1       3.063   6.743  18.887  0.00  0.00    +0.000 C 
ATOM      2  O   UNL     1       3.962   7.178  18.165  0.00  0.00    +0.000 OA
ATOM      3  N   UNL     1       2.998   5.416  19.306  0.00  0.00    +0.000 N 
ATOM      4  C   UNL     1       1.933   4.938  20.195  0.00  0.00    +0.000 C 
ATOM      5  C   UNL     1       1.572   3.502  19.851  0.00  0.00    +0.000 C 
ATOM      6  N   UNL     1       2.717   2.640  19.967  0.00  0.00    +0.000 N 
ATOM      7  C   UNL     1       3.994   3.053  19.685  0.00  0.00    +0.000 C 
ATOM      8  O   UNL     1       4.897   2.217  19.735  0.00  0.00    +0.000 OA
ATOM      9  C   UNL     1       4.235   4.575  19.335  0.00  0.00    +0.000 C 
ATOM     10  H   UNL     1       2.603   1.637  20.070  0.00  0.00    +0.000 HD
ENDROOT
BRANCH   9  11
ATOM     11  C   UNL     1       5.125   4.626  18.099  0.00  0.00    +0.000 A 
ATOM     12  C   UNL     1       6.510   4.849  18.241  0.00  0.00    +0.000 A 
ATOM     13  C   UNL     1       7.368   4.749  17.141  0.00  0.00    +0.000 A 
ATOM     14  C   UNL     1       6.853   4.420  15.890  0.00  0.00    +0.000 A 
ATOM     15  C   UNL     1       5.484   4.223  15.743  0.00  0.00    +0.000 A 
ATOM     16  F   UNL     1       4.995   3.884  14.542  0.00  0.00    +0.000 F 
ATOM     17  C   UNL     1       4.617   4.336  16.825  0.00  0.00    +0.000 A 
ENDBRANCH   9  11
BRANCH   1  18
ATOM     18  C   UNL     1       1.932   7.677  19.318  0.00  0.00    +0.000 C 
BRANCH  18  19
ATOM     19  C   UNL     1       1.775   8.889  18.409  0.00  0.00    +0.000 C 
BRANCH  19  21
ATOM     20  O   UNL     1      -0.126  10.340  18.168  0.00  0.00    +0.000 OA
ATOM     21  C   UNL     1       0.671   9.795  18.919  0.00  0.00    +0.000 C 
ATOM     22  N   UNL     1       0.648   9.902  20.289  0.00  0.00    +0.000 N 
ATOM     23  H   UNL     1       1.182   9.204  20.806  0.00  0.00    +0.000 HD
BRANCH  22  24
ATOM     24  C   UNL     1      -0.349  10.656  21.011  0.00  0.00    +0.000 C 
ATOM     25  C   UNL     1      -0.613  10.161  22.430  0.00  0.00    +0.000 C 
ATOM     26  C   UNL     1      -1.313  11.343  23.090  0.00  0.00    +0.000 C 
ATOM     27  C   UNL     1      -0.751  12.592  22.412  0.00  0.00    +0.000 C 
ATOM     28  C   UNL     1       0.103  12.097  21.250  0.00  0.00    +0.000 C 
ENDBRANCH  22  24
ENDBRANCH  19  21
ENDBRANCH  18  19
ENDBRANCH   1  18
TORSDOF 5
ENDMDL
MODEL 7
REMARK VINA RESULT:      -8.1      2.566      3.746
REMARK  Name = 
REMARK  5 active torsions:
REMARK  status: ('A' for Active; 'I' for Inactive)
REMARK    1  A    between atoms: C_2  and  C_3
REMARK    2  A    between atoms: C_3  and  C_4
REMARK    3  A    between atoms: C_4  and  C_5
REMARK    4  A    between atoms: C_13  and  C_14
REMARK    5  A    between atoms: N_21  and  C_22
REMARK                            x       y       z     vdW  Elec       q    Type
REMARK                         _______ _______ _______ _____ _____    ______ ____
ROOT
ATOM      1  C   UNL     1       5.311   5.258  18.780  0.00  0.00    +0.000 C 
ATOM      2  O   UNL     1       5.114   6.409  19.173  0.00  0.00    +0.000 OA
ATOM      3  N   UNL     1       4.287   4.413  18.355  0.00  0.00    +0.000 N 
ATOM      4  C   UNL     1       4.560   3.060  17.859  0.00  0.00    +0.000 C 
ATOM      5  C   UNL     1       3.426   2.123  18.247  0.00  0.00    +0.000 C 
ATOM      6  N   UNL     1       2.171   2.586  17.718  0.00  0.00    +0.000 N 
ATOM      7  C   UNL     1       1.868   3.914  17.568  0.00  0.00    +0.000 C 
ATOM      8  O   UNL     1       0.736   4.211  17.183  0.00  0.00    +0.000 OA
ATOM      9  C   UNL     1       2.990   4.984  17.877  0.00  0.00    +0.000 C 
ATOM     10  H   UNL     1       1.385   1.952  17.619  0.00  0.00    +0.000 HD
ENDROOT
BRANCH   9  11
ATOM     11  C   UNL     1       2.362   6.071  18.741  0.00  0.00    +0.000 A 
ATOM     12  C   UNL     1       1.999   5.785  20.073  0.00  0.00    +0.000 A 
ATOM     13  C   UNL     1       1.563   6.800  20.931  0.00  0.00    +0.000 A 
ATOM     14  C   UNL     1       1.491   8.111  20.470  0.00  0.00    +0.000 A 
ATOM     15  C   UNL     1       1.825   8.392  19.149  0.00  0.00    +0.000 A 
ATOM     16  F   UNL     1       1.776   9.659  18.715  0.00  0.00    +0.000 F 
ATOM     17  C   UNL     1       2.244   7.389  18.280  0.00  0.00    +0.000 A 
ENDBRANCH   9  11
BRANCH   1  18
ATOM     18  C   UNL     1       6.732   4.695  18.794  0.00  0.00    +0.000 C 
BRANCH  18  19
ATOM     19  C   UNL     1       7.712   5.524  17.974  0.00  0.00    +0.000 C 
BRANCH  19  21
ATOM     20  O   UNL     1       6.661   6.942  16.342  0.00  0.00    +0.000 OA
ATOM     21  C   UNL     1       7.126   5.842  16.611  0.00  0.00    +0.000 C 
ATOM     22  N   UNL     1       7.207   4.793  15.727  0.00  0.00    +0.000 N 
ATOM     23  H   UNL     1       7.843   4.037  15.981  0.00  0.00    +0.000 HD
BRANCH  22  24
ATOM     24  C   UNL     1       6.773   4.876  14.353  0.00  0.00    +0.000 C 
ATOM     25  C   UNL     1       7.901   5.068  13.343  0.00  0.00    +0.000 C 
ATOM     26  C   UNL     1       7.258   4.672  12.019  0.00  0.00    +0.000 C 
ATOM     27  C   UNL     1       6.214   3.611  12.364  0.00  0.00    +0.000 C 
ATOM     28  C   UNL     1       6.140   3.566  13.886  0.00  0.00    +0.000 C 
ENDBRANCH  22  24
ENDBRANCH  19  21
ENDBRANCH  18  19
ENDBRANCH   1  18
TORSDOF 5
ENDMDL
MODEL 8
REMARK VINA RESULT:      -8.1      3.345      8.086
REMARK  Name = 
REMARK  5 active torsions:
REMARK  status: ('A' for Active; 'I' for Inactive)
REMARK    1  A    between atoms: C_2  and  C_3
REMARK    2  A    between atoms: C_3  and  C_4
REMARK    3  A    between atoms: C_4  and  C_5
REMARK    4  A    between atoms: C_13  and  C_14
REMARK    5  A    between atoms: N_21  and  C_22
REMARK                            x       y       z     vdW  Elec       q    Type
REMARK                         _______ _______ _______ _____ _____    ______ ____
ROOT
ATOM      1  C   UNL     1       2.947   6.529  18.263  0.00  0.00    +0.000 C 
ATOM      2  O   UNL     1       4.022   7.058  17.976  0.00  0.00    +0.000 OA
ATOM      3  N   UNL     1       2.842   5.215  18.716  0.00  0.00    +0.000 N 
ATOM      4  C   UNL     1       1.550   4.627  19.083  0.00  0.00    +0.000 C 
ATOM      5  C   UNL     1       1.531   3.147  18.732  0.00  0.00    +0.000 C 
ATOM      6  N   UNL     1       2.588   2.444  19.406  0.00  0.00    +0.000 N 
ATOM      7  C   UNL     1       3.806   3.011  19.681  0.00  0.00    +0.000 C 
ATOM      8  O   UNL     1       4.675   2.300  20.189  0.00  0.00    +0.000 OA
ATOM      9  C   UNL     1       4.017   4.542  19.351  0.00  0.00    +0.000 C 
ATOM     10  H   UNL     1       2.545   1.438  19.529  0.00  0.00    +0.000 HD
ENDROOT
BRANCH   9  11
ATOM     11  C   UNL     1       5.353   4.676  18.631  0.00  0.00    +0.000 A 
ATOM     12  C   UNL     1       5.499   4.168  17.324  0.00  0.00    +0.000 A 
ATOM     13  C   UNL     1       6.662   4.411  16.586  0.00  0.00    +0.000 A 
ATOM     14  C   UNL     1       7.688   5.169  17.143  0.00  0.00    +0.000 A 
ATOM     15  C   UNL     1       7.557   5.651  18.441  0.00  0.00    +0.000 A 
ATOM     16  F   UNL     1       8.538   6.399  18.966  0.00  0.00    +0.000 F 
ATOM     17  C   UNL     1       6.412   5.402  19.192  0.00  0.00    +0.000 A 
ENDBRANCH   9  11
BRANCH   1  18
ATOM     18  C   UNL     1       1.652   7.319  18.078  0.00  0.00    +0.000 C 
BRANCH  18  19
ATOM     19  C   UNL     1       1.868   8.827  18.046  0.00  0.00    +0.000 C 
BRANCH  19  21
ATOM     20  O   UNL     1      -0.215  10.025  18.080  0.00  0.00    +0.000 OA
ATOM     21  C   UNL     1       0.710   9.542  18.717  0.00  0.00    +0.000 C 
ATOM     22  N   UNL     1       0.801   9.553  20.088  0.00  0.00    +0.000 N 
ATOM     23  H   UNL     1       1.466   8.899  20.502  0.00  0.00    +0.000 HD
BRANCH  22  24
ATOM     24  C   UNL     1      -0.211  10.118  20.948  0.00  0.00    +0.000 C 
ATOM     25  C   UNL     1      -0.263   9.513  22.348  0.00  0.00    +0.000 C 
ATOM     26  C   UNL     1      -1.046  10.547  23.148  0.00  0.00    +0.000 C 
ATOM     27  C   UNL     1      -0.729  11.898  22.508  0.00  0.00    +0.000 C 
ATOM     28  C   UNL     1       0.063  11.593  21.242  0.00  0.00    +0.000 C 
ENDBRANCH  22  24
ENDBRANCH  19  21
ENDBRANCH  18  19
ENDBRANCH   1  18
TORSDOF 5
ENDMDL
MODEL 9
REMARK VINA RESULT:      -8.0      3.032      7.483
REMARK  Name = 
REMARK  5 active torsions:
REMARK  status: ('A' for Active; 'I' for Inactive)
REMARK    1  A    between atoms: C_2  and  C_3
REMARK    2  A    between atoms: C_3  and  C_4
REMARK    3  A    between atoms: C_4  and  C_5
REMARK    4  A    between atoms: C_13  and  C_14
REMARK    5  A    between atoms: N_21  and  C_22
REMARK                            x       y       z     vdW  Elec       q    Type
REMARK                         _______ _______ _______ _____ _____    ______ ____
ROOT
ATOM      1  C   UNL     1       2.584   5.692  19.584  0.00  0.00    +0.000 C 
ATOM      2  O   UNL     1       3.600   6.289  19.222  0.00  0.00    +0.000 OA
ATOM      3  N   UNL     1       2.374   4.335  19.345  0.00  0.00    +0.000 N 
ATOM      4  C   UNL     1       1.169   3.646  19.821  0.00  0.00    +0.000 C 
ATOM      5  C   UNL     1       0.760   2.566  18.831  0.00  0.00    +0.000 C 
ATOM      6  N   UNL     1       1.818   1.611  18.643  0.00  0.00    +0.000 N 
ATOM      7  C   UNL     1       3.146   1.947  18.696  0.00  0.00    +0.000 C 
ATOM      8  O   UNL     1       3.976   1.072  18.441  0.00  0.00    +0.000 OA
ATOM      9  C   UNL     1       3.535   3.425  19.099  0.00  0.00    +0.000 C 
ATOM     10  H   UNL     1       1.623   0.689  18.268  0.00  0.00    +0.000 HD
ENDROOT
BRANCH   9  11
ATOM     11  C   UNL     1       4.585   3.910  18.106  0.00  0.00    +0.000 A 
ATOM     12  C   UNL     1       5.882   4.229  18.557  0.00  0.00    +0.000 A 
ATOM     13  C   UNL     1       6.902   4.530  17.649  0.00  0.00    +0.000 A 
ATOM     14  C   UNL     1       6.640   4.508  16.282  0.00  0.00    +0.000 A 
ATOM     15  C   UNL     1       5.355   4.217  15.836  0.00  0.00    +0.000 A 
ATOM     16  F   UNL     1       5.111   4.176  14.518  0.00  0.00    +0.000 F 
ATOM     17  C   UNL     1       4.326   3.933  16.729  0.00  0.00    +0.000 A 
ENDBRANCH   9  11
BRANCH   1  18
ATOM     18  C   UNL     1       1.472   6.467  20.289  0.00  0.00    +0.000 C 
BRANCH  18  19
ATOM     19  C   UNL     1       1.835   7.920  20.565  0.00  0.00    +0.000 C 
BRANCH  19  21
ATOM     20  O   UNL     1       2.039   8.701  18.300  0.00  0.00    +0.000 OA
ATOM     21  C   UNL     1       1.468   8.792  19.379  0.00  0.00    +0.000 C 
ATOM     22  N   UNL     1       0.425   9.648  19.637  0.00  0.00    +0.000 N 
ATOM     23  H   UNL     1      -0.130   9.446  20.469  0.00  0.00    +0.000 HD
BRANCH  22  24
ATOM     24  C   UNL     1      -0.144  10.531  18.647  0.00  0.00    +0.000 C 
ATOM     25  C   UNL     1      -1.651  10.380  18.456  0.00  0.00    +0.000 C 
ATOM     26  C   UNL     1      -2.045  11.670  17.746  0.00  0.00    +0.000 C 
ATOM     27  C   UNL     1      -1.066  12.734  18.241  0.00  0.00    +0.000 C 
ATOM     28  C   UNL     1      -0.015  11.996  19.063  0.00  0.00    +0.000 C 
ENDBRANCH  22  24
ENDBRANCH  19  21
ENDBRANCH  18  19
ENDBRANCH   1  18
TORSDOF 5
ENDMDL
