MODEL 1
REMARK VINA RESULT:      -9.1      0.000      0.000
REMARK  Name = 
REMARK  4 active torsions:
REMARK  status: ('A' for Active; 'I' for Inactive)
REMARK    1  A    between atoms: C_7  and  C_8
REMARK    2  A    between atoms: C_11  and  C_12
REMARK    3  A    between atoms: N_15  and  C_16
REMARK    4  A    between atoms: C_22  and  C_23
REMARK                            x       y       z     vdW  Elec       q    Type
REMARK                         _______ _______ _______ _____ _____    ______ ____
ROOT
ATOM      1  C   UNL     1       3.135   7.457  18.154  0.00  0.00    +0.000 A 
ATOM      2  C   UNL     1       4.260   7.872  17.452  0.00  0.00    +0.000 A 
ATOM      3  N   UNL     1       4.988   6.838  17.053  0.00  0.00    +0.000 NA
ATOM      4  N   UNL     1       4.399   5.738  17.615  0.00  0.00    +0.000 N 
ATOM      5  C   UNL     1       3.252   6.074  18.315  0.00  0.00    +0.000 A 
ENDROOT
BRANCH   4   6
ATOM      6  C   UNL     1       5.177   4.508  17.411  0.00  0.00    +0.000 C 
ATOM      7  C   UNL     1       4.635   3.785  16.165  0.00  0.00    +0.000 C 
ATOM      8  C   UNL     1       5.120   4.531  14.926  0.00  0.00    +0.000 C 
ATOM      9  C   UNL     1       6.605   4.266  14.760  0.00  0.00    +0.000 C 
ATOM     10  C   UNL     1       7.411   4.626  16.004  0.00  0.00    +0.000 C 
ATOM     11  C   UNL     1       6.719   4.457  17.368  0.00  0.00    +0.000 C 
ENDBRANCH   4   6
BRANCH   5  12
ATOM     12  C   UNL     1       2.262   5.220  18.974  0.00  0.00    +0.000 A 
ATOM     13  C   UNL     1       1.602   4.228  18.230  0.00  0.00    +0.000 A 
ATOM     14  C   UNL     1       1.060   3.143  18.904  0.00  0.00    +0.000 A 
ATOM     15  N   UNL     1       1.047   3.032  20.246  0.00  0.00    +0.000 NA
ATOM     16  C   UNL     1       1.624   4.033  20.943  0.00  0.00    +0.000 A 
ATOM     17  C   UNL     1       2.248   5.124  20.362  0.00  0.00    +0.000 A 
ENDBRANCH   5  12
BRANCH   1  21
ATOM     18  C   UNL     1       0.677   9.540  19.654  0.00  0.00    +0.000 A 
ATOM     19  N   UNL     1       0.312   9.756  18.384  0.00  0.00    +0.000 NA
ATOM     20  O   UNL     1       1.178   8.957  17.665  0.00  0.00    +0.000 OA
ATOM     21  C   UNL     1       1.996   8.322  18.560  0.00  0.00    +0.000 A 
ATOM     22  N   UNL     1       1.706   8.641  19.805  0.00  0.00    +0.000 NA
BRANCH  18  29
ATOM     23  F   UNL     1      -0.460  13.743  21.683  0.00  0.00    +0.000 F 
ATOM     24  C   UNL     1      -0.449  12.409  21.748  0.00  0.00    +0.000 A 
ATOM     25  C   UNL     1      -0.987  11.779  22.863  0.00  0.00    +0.000 A 
ATOM     26  C   UNL     1      -0.982  10.387  22.921  0.00  0.00    +0.000 A 
ATOM     27  C   UNL     1      -0.435   9.643  21.867  0.00  0.00    +0.000 A 
ATOM     28  F   UNL     1      -0.475   8.308  21.941  0.00  0.00    +0.000 F 
ATOM     29  C   UNL     1       0.104  10.284  20.750  0.00  0.00    +0.000 A 
ATOM     30  C   UNL     1       0.088  11.685  20.693  0.00  0.00    +0.000 A 
ENDBRANCH  18  29
ENDBRANCH   1  21
TORSDOF 4
ENDMDL
MODEL 2
REMARK VINA RESULT:      -8.9      0.874      1.524
REMARK  Name = 
REMARK  4 active torsions:
REMARK  status: ('A' for Active; 'I' for Inactive)
REMARK    1  A    between atoms: C_7  and  C_8
REMARK    2  A    between atoms: C_11  and  C_12
REMARK    3  A    between atoms: N_15  and  C_16
REMARK    4  A    between atoms: C_22  and  C_23
REMARK                            x       y       z     vdW  Elec       q    Type
REMARK                         _______ _______ _______ _____ _____    ______ ____
ROOT
ATOM      1  C   UNL     1       3.308   7.449  17.905  0.00  0.00    +0.000 A 
ATOM      2  C   UNL     1       4.423   7.881  17.197  0.00  0.00    +0.000 A 
ATOM      3  N   UNL     1       5.149   6.857  16.771  0.00  0.00    +0.000 NA
ATOM      4  N   UNL     1       4.572   5.745  17.320  0.00  0.00    +0.000 N 
ATOM      5  C   UNL     1       3.433   6.064  18.040  0.00  0.00    +0.000 A 
ENDROOT
BRANCH   4   6
ATOM      6  C   UNL     1       5.351   4.522  17.084  0.00  0.00    +0.000 C 
ATOM      7  C   UNL     1       4.719   3.756  15.907  0.00  0.00    +0.000 C 
ATOM      8  C   UNL     1       5.086   4.474  14.613  0.00  0.00    +0.000 C 
ATOM      9  C   UNL     1       6.556   4.228  14.329  0.00  0.00    +0.000 C 
ATOM     10  C   UNL     1       7.457   4.635  15.491  0.00  0.00    +0.000 C 
ATOM     11  C   UNL     1       6.885   4.493  16.912  0.00  0.00    +0.000 C 
ENDBRANCH   4   6
BRANCH   5  12
ATOM     12  C   UNL     1       2.454   5.194  18.696  0.00  0.00    +0.000 A 
ATOM     13  C   UNL     1       1.688   4.308  17.921  0.00  0.00    +0.000 A 
ATOM     14  C   UNL     1       1.145   3.188  18.533  0.00  0.00    +0.000 A 
ATOM     15  N   UNL     1       1.230   2.949  19.856  0.00  0.00    +0.000 NA
ATOM     16  C   UNL     1       1.911   3.852  20.593  0.00  0.00    +0.000 A 
ATOM     17  C   UNL     1       2.543   4.966  20.066  0.00  0.00    +0.000 A 
ENDBRANCH   5  12
BRANCH   1  21
ATOM     18  C   UNL     1       0.798   9.398  19.496  0.00  0.00    +0.000 A 
ATOM     19  N   UNL     1       0.581   9.846  18.253  0.00  0.00    +0.000 NA
ATOM     20  O   UNL     1       1.483   9.128  17.495  0.00  0.00    +0.000 OA
ATOM     21  C   UNL     1       2.172   8.302  18.342  0.00  0.00    +0.000 A 
ATOM     22  N   UNL     1       1.764   8.425  19.589  0.00  0.00    +0.000 NA
BRANCH  18  29
ATOM     23  F   UNL     1      -0.156   9.368  24.204  0.00  0.00    +0.000 F 
ATOM     24  C   UNL     1      -0.324   9.938  23.008  0.00  0.00    +0.000 A 
ATOM     25  C   UNL     1      -1.119  11.071  22.902  0.00  0.00    +0.000 A 
ATOM     26  C   UNL     1      -1.283  11.668  21.654  0.00  0.00    +0.000 A 
ATOM     27  C   UNL     1      -0.654  11.122  20.528  0.00  0.00    +0.000 A 
ATOM     28  F   UNL     1      -0.807  11.738  19.351  0.00  0.00    +0.000 F 
ATOM     29  C   UNL     1       0.143   9.982  20.643  0.00  0.00    +0.000 A 
ATOM     30  C   UNL     1       0.312   9.391  21.902  0.00  0.00    +0.000 A 
ENDBRANCH  18  29
ENDBRANCH   1  21
TORSDOF 4
ENDMDL
MODEL 3
REMARK VINA RESULT:      -8.8      2.251      2.786
REMARK  Name = 
REMARK  4 active torsions:
REMARK  status: ('A' for Active; 'I' for Inactive)
REMARK    1  A    between atoms: C_7  and  C_8
REMARK    2  A    between atoms: C_11  and  C_12
REMARK    3  A    between atoms: N_15  and  C_16
REMARK    4  A    between atoms: C_22  and  C_23
REMARK                            x       y       z     vdW  Elec       q    Type
REMARK                         _______ _______ _______ _____ _____    ______ ____
ROOT
ATOM      1  C   UNL     1       3.131   7.501  18.201  0.00  0.00    +0.000 A 
ATOM      2  C   UNL     1       4.238   7.916  17.470  0.00  0.00    +0.000 A 
ATOM      3  N   UNL     1       4.967   6.882  17.073  0.00  0.00    +0.000 NA
ATOM      4  N   UNL     1       4.400   5.786  17.664  0.00  0.00    +0.000 N 
ATOM      5  C   UNL     1       3.265   6.123  18.381  0.00  0.00    +0.000 A 
ENDROOT
BRANCH   4   6
ATOM      6  C   UNL     1       5.186   4.561  17.463  0.00  0.00    +0.000 C 
ATOM      7  C   UNL     1       4.628   3.815  16.236  0.00  0.00    +0.000 C 
ATOM      8  C   UNL     1       5.086   4.548  14.979  0.00  0.00    +0.000 C 
ATOM      9  C   UNL     1       6.570   4.294  14.791  0.00  0.00    +0.000 C 
ATOM     10  C   UNL     1       7.394   4.678  16.015  0.00  0.00    +0.000 C 
ATOM     11  C   UNL     1       6.728   4.522  17.393  0.00  0.00    +0.000 C 
ENDBRANCH   4   6
BRANCH   5  12
ATOM     12  C   UNL     1       2.297   5.269  19.073  0.00  0.00    +0.000 A 
ATOM     13  C   UNL     1       1.579   4.307  18.345  0.00  0.00    +0.000 A 
ATOM     14  C   UNL     1       1.054   3.216  19.021  0.00  0.00    +0.000 A 
ATOM     15  N   UNL     1       1.112   3.073  20.360  0.00  0.00    +0.000 NA
ATOM     16  C   UNL     1       1.745   4.046  21.047  0.00  0.00    +0.000 A 
ATOM     17  C   UNL     1       2.356   5.141  20.458  0.00  0.00    +0.000 A 
ENDBRANCH   5  12
BRANCH   1  21
ATOM     18  C   UNL     1       0.235   9.516  18.631  0.00  0.00    +0.000 A 
ATOM     19  N   UNL     1       0.472   9.302  19.931  0.00  0.00    +0.000 NA
ATOM     20  O   UNL     1       1.626   8.544  19.923  0.00  0.00    +0.000 OA
ATOM     21  C   UNL     1       1.993   8.362  18.617  0.00  0.00    +0.000 A 
ATOM     22  N   UNL     1       1.167   8.964  17.785  0.00  0.00    +0.000 NA
BRANCH  18  29
ATOM     23  F   UNL     1      -3.396   9.835  15.503  0.00  0.00    +0.000 F 
ATOM     24  C   UNL     1      -2.775  10.313  16.584  0.00  0.00    +0.000 A 
ATOM     25  C   UNL     1      -3.298  11.423  17.233  0.00  0.00    +0.000 A 
ATOM     26  C   UNL     1      -2.652  11.912  18.366  0.00  0.00    +0.000 A 
ATOM     27  C   UNL     1      -1.487  11.287  18.832  0.00  0.00    +0.000 A 
ATOM     28  F   UNL     1      -0.909  11.763  19.940  0.00  0.00    +0.000 F 
ATOM     29  C   UNL     1      -0.967  10.172  18.173  0.00  0.00    +0.000 A 
ATOM     30  C   UNL     1      -1.627   9.680  17.039  0.00  0.00    +0.000 A 
ENDBRANCH  18  29
ENDBRANCH   1  21
TORSDOF 4
ENDMDL
MODEL 4
REMARK VINA RESULT:      -8.6      3.304      8.852
REMARK  Name = 
REMARK  4 active torsions:
REMARK  status: ('A' for Active; 'I' for Inactive)
REMARK    1  A    between atoms: C_7  and  C_8
REMARK    2  A    between atoms: C_11  and  C_12
REMARK    3  A    between atoms: N_15  and  C_16
REMARK    4  A    between atoms: C_22  and  C_23
REMARK                            x       y       z     vdW  Elec       q    Type
REMARK                         _______ _______ _______ _____ _____    ______ ____
ROOT
ATOM      1  C   UNL     1       0.575   9.430  21.439  0.00  0.00    +0.000 A 
ATOM      2  C   UNL     1       0.578   9.428  22.829  0.00  0.00    +0.000 A 
ATOM      3  N   UNL     1      -0.344  10.248  23.313  0.00  0.00    +0.000 NA
ATOM      4  N   UNL     1      -0.869  10.892  22.226  0.00  0.00    +0.000 N 
ATOM      5  C   UNL     1      -0.322  10.425  21.043  0.00  0.00    +0.000 A 
ENDROOT
BRANCH   4   6
ATOM      6  C   UNL     1      -1.800  11.967  22.595  0.00  0.00    +0.000 C 
ATOM      7  C   UNL     1      -0.989  13.147  23.162  0.00  0.00    +0.000 C 
ATOM      8  C   UNL     1      -0.310  13.866  22.002  0.00  0.00    +0.000 C 
ATOM      9  C   UNL     1      -1.370  14.625  21.224  0.00  0.00    +0.000 C 
ATOM     10  C   UNL     1      -2.513  13.729  20.758  0.00  0.00    +0.000 C 
ATOM     11  C   UNL     1      -2.884  12.534  21.654  0.00  0.00    +0.000 C 
ENDBRANCH   4   6
BRANCH   5  12
ATOM     12  C   UNL     1      -0.659  10.746  19.654  0.00  0.00    +0.000 A 
ATOM     13  C   UNL     1      -1.794  10.165  19.066  0.00  0.00    +0.000 A 
ATOM     14  C   UNL     1      -2.380  10.800  17.982  0.00  0.00    +0.000 A 
ATOM     15  N   UNL     1      -1.865  11.900  17.397  0.00  0.00    +0.000 NA
ATOM     16  C   UNL     1      -0.734  12.400  17.935  0.00  0.00    +0.000 A 
ATOM     17  C   UNL     1      -0.110  11.876  19.055  0.00  0.00    +0.000 A 
ENDBRANCH   5  12
BRANCH   1  21
ATOM     18  C   UNL     1       2.136   6.746  19.708  0.00  0.00    +0.000 A 
ATOM     19  N   UNL     1       2.314   7.672  18.758  0.00  0.00    +0.000 NA
ATOM     20  O   UNL     1       1.778   8.812  19.320  0.00  0.00    +0.000 OA
ATOM     21  C   UNL     1       1.319   8.484  20.567  0.00  0.00    +0.000 A 
ATOM     22  N   UNL     1       1.538   7.216  20.854  0.00  0.00    +0.000 NA
BRANCH  18  29
ATOM     23  F   UNL     1       0.692   2.266  18.751  0.00  0.00    +0.000 F 
ATOM     24  C   UNL     1       1.692   3.113  19.011  0.00  0.00    +0.000 A 
ATOM     25  C   UNL     1       2.993   2.633  19.059  0.00  0.00    +0.000 A 
ATOM     26  C   UNL     1       4.033   3.522  19.321  0.00  0.00    +0.000 A 
ATOM     27  C   UNL     1       3.757   4.879  19.535  0.00  0.00    +0.000 A 
ATOM     28  F   UNL     1       4.782   5.711  19.753  0.00  0.00    +0.000 F 
ATOM     29  C   UNL     1       2.445   5.354  19.486  0.00  0.00    +0.000 A 
ATOM     30  C   UNL     1       1.404   4.456  19.214  0.00  0.00    +0.000 A 
ENDBRANCH  18  29
ENDBRANCH   1  21
TORSDOF 4
ENDMDL
MODEL 5
REMARK VINA RESULT:      -8.5      0.786      1.216
REMARK  Name = 
REMARK  4 active torsions:
REMARK  status: ('A' for Active; 'I' for Inactive)
REMARK    1  A    between atoms: C_7  and  C_8
REMARK    2  A    between atoms: C_11  and  C_12
REMARK    3  A    between atoms: N_15  and  C_16
REMARK    4  A    between atoms: C_22  and  C_23
REMARK                            x       y       z     vdW  Elec       q    Type
REMARK                         _______ _______ _______ _____ _____    ______ ____
ROOT
ATOM      1  C   UNL     1       3.627   7.360  17.679  0.00  0.00    +0.000 A 
ATOM      2  C   UNL     1       4.627   7.875  16.863  0.00  0.00    +0.000 A 
ATOM      3  N   UNL     1       5.411   6.913  16.398  0.00  0.00    +0.000 NA
ATOM      4  N   UNL     1       4.998   5.769  17.023  0.00  0.00    +0.000 N 
ATOM      5  C   UNL     1       3.900   5.999  17.835  0.00  0.00    +0.000 A 
ENDROOT
BRANCH   4   6
ATOM      6  C   UNL     1       5.873   4.621  16.748  0.00  0.00    +0.000 C 
ATOM      7  C   UNL     1       5.090   3.598  15.903  0.00  0.00    +0.000 C 
ATOM      8  C   UNL     1       4.999   4.122  14.474  0.00  0.00    +0.000 C 
ATOM      9  C   UNL     1       6.369   4.001  13.832  0.00  0.00    +0.000 C 
ATOM     10  C   UNL     1       7.461   4.700  14.636  0.00  0.00    +0.000 C 
ATOM     11  C   UNL     1       7.298   4.738  16.166  0.00  0.00    +0.000 C 
ENDBRANCH   4   6
BRANCH   5  12
ATOM     12  C   UNL     1       3.075   5.059  18.597  0.00  0.00    +0.000 A 
ATOM     13  C   UNL     1       3.081   5.115  20.001  0.00  0.00    +0.000 A 
ATOM     14  C   UNL     1       1.995   4.599  20.691  0.00  0.00    +0.000 A 
ATOM     15  N   UNL     1       0.970   3.959  20.094  0.00  0.00    +0.000 NA
ATOM     16  C   UNL     1       1.020   3.855  18.750  0.00  0.00    +0.000 A 
ATOM     17  C   UNL     1       2.029   4.392  17.967  0.00  0.00    +0.000 A 
ENDBRANCH   5  12
BRANCH   1  21
ATOM     18  C   UNL     1       1.071   9.085  19.445  0.00  0.00    +0.000 A 
ATOM     19  N   UNL     1       0.733   9.513  18.223  0.00  0.00    +0.000 NA
ATOM     20  O   UNL     1       1.640   8.875  17.401  0.00  0.00    +0.000 OA
ATOM     21  C   UNL     1       2.453   8.112  18.196  0.00  0.00    +0.000 A 
ATOM     22  N   UNL     1       2.122   8.200  19.468  0.00  0.00    +0.000 NA
BRANCH  18  29
ATOM     23  F   UNL     1      -0.336  12.838  22.093  0.00  0.00    +0.000 F 
ATOM     24  C   UNL     1      -0.242  11.514  21.949  0.00  0.00    +0.000 A 
ATOM     25  C   UNL     1      -0.743  10.684  22.942  0.00  0.00    +0.000 A 
ATOM     26  C   UNL     1      -0.651   9.304  22.782  0.00  0.00    +0.000 A 
ATOM     27  C   UNL     1      -0.054   8.771  21.632  0.00  0.00    +0.000 A 
ATOM     28  F   UNL     1      -0.011   7.441  21.495  0.00  0.00    +0.000 F 
ATOM     29  C   UNL     1       0.448   9.612  20.637  0.00  0.00    +0.000 A 
ATOM     30  C   UNL     1       0.345  11.000  20.800  0.00  0.00    +0.000 A 
ENDBRANCH  18  29
ENDBRANCH   1  21
TORSDOF 4
ENDMDL
MODEL 6
REMARK VINA RESULT:      -8.5      0.944      1.759
REMARK  Name = 
REMARK  4 active torsions:
REMARK  status: ('A' for Active; 'I' for Inactive)
REMARK    1  A    between atoms: C_7  and  C_8
REMARK    2  A    between atoms: C_11  and  C_12
REMARK    3  A    between atoms: N_15  and  C_16
REMARK    4  A    between atoms: C_22  and  C_23
REMARK                            x       y       z     vdW  Elec       q    Type
REMARK                         _______ _______ _______ _____ _____    ______ ____
ROOT
ATOM      1  C   UNL     1       3.049   7.404  17.913  0.00  0.00    +0.000 A 
ATOM      2  C   UNL     1       4.165   7.726  17.149  0.00  0.00    +0.000 A 
ATOM      3  N   UNL     1       4.799   6.636  16.741  0.00  0.00    +0.000 NA
ATOM      4  N   UNL     1       4.165   5.591  17.355  0.00  0.00    +0.000 N 
ATOM      5  C   UNL     1       3.079   6.020  18.101  0.00  0.00    +0.000 A 
ENDROOT
BRANCH   4   6
ATOM      6  C   UNL     1       4.846   4.307  17.143  0.00  0.00    +0.000 C 
ATOM      7  C   UNL     1       5.840   4.081  18.297  0.00  0.00    +0.000 C 
ATOM      8  C   UNL     1       5.053   3.681  19.539  0.00  0.00    +0.000 C 
ATOM      9  C   UNL     1       4.544   2.264  19.348  0.00  0.00    +0.000 C 
ATOM     10  C   UNL     1       3.729   2.097  18.070  0.00  0.00    +0.000 C 
ATOM     11  C   UNL     1       4.115   2.975  16.866  0.00  0.00    +0.000 C 
ENDBRANCH   4   6
BRANCH   5  12
ATOM     12  C   UNL     1       2.067   5.249  18.825  0.00  0.00    +0.000 A 
ATOM     13  C   UNL     1       1.270   4.327  18.127  0.00  0.00    +0.000 A 
ATOM     14  C   UNL     1       0.683   3.288  18.833  0.00  0.00    +0.000 A 
ATOM     15  N   UNL     1       0.755   3.164  20.173  0.00  0.00    +0.000 NA
ATOM     16  C   UNL     1       1.468   4.102  20.831  0.00  0.00    +0.000 A 
ATOM     17  C   UNL     1       2.143   5.140  20.211  0.00  0.00    +0.000 A 
ENDBRANCH   5  12
BRANCH   1  21
ATOM     18  C   UNL     1       0.748   9.594  19.508  0.00  0.00    +0.000 A 
ATOM     19  N   UNL     1       0.511  10.001  18.255  0.00  0.00    +0.000 NA
ATOM     20  O   UNL     1       1.328   9.188  17.497  0.00  0.00    +0.000 OA
ATOM     21  C   UNL     1       1.994   8.353  18.354  0.00  0.00    +0.000 A 
ATOM     22  N   UNL     1       1.649   8.560  19.608  0.00  0.00    +0.000 NA
BRANCH  18  29
ATOM     23  F   UNL     1      -0.366  13.670  21.792  0.00  0.00    +0.000 F 
ATOM     24  C   UNL     1      -0.356  12.335  21.778  0.00  0.00    +0.000 A 
ATOM     25  C   UNL     1      -0.885  11.640  22.858  0.00  0.00    +0.000 A 
ATOM     26  C   UNL     1      -0.882  10.247  22.834  0.00  0.00    +0.000 A 
ATOM     27  C   UNL     1      -0.345   9.567  21.733  0.00  0.00    +0.000 A 
ATOM     28  F   UNL     1      -0.386   8.230  21.728  0.00  0.00    +0.000 F 
ATOM     29  C   UNL     1       0.185  10.273  20.651  0.00  0.00    +0.000 A 
ATOM     30  C   UNL     1       0.171  11.674  20.677  0.00  0.00    +0.000 A 
ENDBRANCH  18  29
ENDBRANCH   1  21
TORSDOF 4
ENDMDL
MODEL 7
REMARK VINA RESULT:      -8.5      3.056      8.861
REMARK  Name = 
REMARK  4 active torsions:
REMARK  status: ('A' for Active; 'I' for Inactive)
REMARK    1  A    between atoms: C_7  and  C_8
REMARK    2  A    between atoms: C_11  and  C_12
REMARK    3  A    between atoms: N_15  and  C_16
REMARK    4  A    between atoms: C_22  and  C_23
REMARK                            x       y       z     vdW  Elec       q    Type
REMARK                         _______ _______ _______ _____ _____    ______ ____
ROOT
ATOM      1  C   UNL     1       0.515   9.554  21.526  0.00  0.00    +0.000 A 
ATOM      2  C   UNL     1       0.479   9.538  22.915  0.00  0.00    +0.000 A 
ATOM      3  N   UNL     1      -0.472  10.338  23.381  0.00  0.00    +0.000 NA
ATOM      4  N   UNL     1      -0.976  10.984  22.285  0.00  0.00    +0.000 N 
ATOM      5  C   UNL     1      -0.387  10.538  21.114  0.00  0.00    +0.000 A 
ENDROOT
BRANCH   4   6
ATOM      6  C   UNL     1      -1.936  12.039  22.638  0.00  0.00    +0.000 C 
ATOM      7  C   UNL     1      -1.165  13.215  23.265  0.00  0.00    +0.000 C 
ATOM      8  C   UNL     1      -0.447  13.969  22.151  0.00  0.00    +0.000 C 
ATOM      9  C   UNL     1      -1.482  14.731  21.345  0.00  0.00    +0.000 C 
ATOM     10  C   UNL     1      -2.593  13.833  20.811  0.00  0.00    +0.000 C 
ATOM     11  C   UNL     1      -2.986  12.614  21.663  0.00  0.00    +0.000 C 
ENDBRANCH   4   6
BRANCH   5  12
ATOM     12  C   UNL     1      -0.690  10.867  19.719  0.00  0.00    +0.000 A 
ATOM     13  C   UNL     1      -1.795  10.270  19.092  0.00  0.00    +0.000 A 
ATOM     14  C   UNL     1      -2.362  10.905  17.997  0.00  0.00    +0.000 A 
ATOM     15  N   UNL     1      -1.852  12.021  17.439  0.00  0.00    +0.000 NA
ATOM     16  C   UNL     1      -0.748  12.538  18.016  0.00  0.00    +0.000 A 
ATOM     17  C   UNL     1      -0.146  12.014  19.148  0.00  0.00    +0.000 A 
ENDBRANCH   5  12
BRANCH   1  21
ATOM     18  C   UNL     1       2.274   6.937  19.886  0.00  0.00    +0.000 A 
ATOM     19  N   UNL     1       2.221   7.771  18.840  0.00  0.00    +0.000 NA
ATOM     20  O   UNL     1       1.581   8.882  19.351  0.00  0.00    +0.000 OA
ATOM     21  C   UNL     1       1.300   8.630  20.667  0.00  0.00    +0.000 A 
ATOM     22  N   UNL     1       1.729   7.442  21.043  0.00  0.00    +0.000 NA
BRANCH  18  29
ATOM     23  F   UNL     1       5.789   3.870  18.741  0.00  0.00    +0.000 F 
ATOM     24  C   UNL     1       4.540   4.067  19.171  0.00  0.00    +0.000 A 
ATOM     25  C   UNL     1       3.747   2.970  19.482  0.00  0.00    +0.000 A 
ATOM     26  C   UNL     1       2.449   3.181  19.939  0.00  0.00    +0.000 A 
ATOM     27  C   UNL     1       1.957   4.486  20.075  0.00  0.00    +0.000 A 
ATOM     28  F   UNL     1       0.717   4.654  20.546  0.00  0.00    +0.000 F 
ATOM     29  C   UNL     1       2.760   5.584  19.759  0.00  0.00    +0.000 A 
ATOM     30  C   UNL     1       4.069   5.365  19.308  0.00  0.00    +0.000 A 
ENDBRANCH  18  29
ENDBRANCH   1  21
TORSDOF 4
ENDMDL
MODEL 8
REMARK VINA RESULT:      -8.4      3.466      8.915
REMARK  Name = 
REMARK  4 active torsions:
REMARK  status: ('A' for Active; 'I' for Inactive)
REMARK    1  A    between atoms: C_7  and  C_8
REMARK    2  A    between atoms: C_11  and  C_12
REMARK    3  A    between atoms: N_15  and  C_16
REMARK    4  A    between atoms: C_22  and  C_23
REMARK                            x       y       z     vdW  Elec       q    Type
REMARK                         _______ _______ _______ _____ _____    ______ ____
ROOT
ATOM      1  C   UNL     1       0.334   9.490  21.707  0.00  0.00    +0.000 A 
ATOM      2  C   UNL     1       0.209   9.513  23.091  0.00  0.00    +0.000 A 
ATOM      3  N   UNL     1      -0.708  10.390  23.477  0.00  0.00    +0.000 NA
ATOM      4  N   UNL     1      -1.093  11.042  22.338  0.00  0.00    +0.000 N 
ATOM      5  C   UNL     1      -0.466  10.524  21.217  0.00  0.00    +0.000 A 
ENDROOT
BRANCH   4   6
ATOM      6  C   UNL     1      -1.994  12.172  22.604  0.00  0.00    +0.000 C 
ATOM      7  C   UNL     1      -1.187  13.294  23.284  0.00  0.00    +0.000 C 
ATOM      8  C   UNL     1      -0.326  13.976  22.227  0.00  0.00    +0.000 C 
ATOM      9  C   UNL     1      -1.231  14.805  21.335  0.00  0.00    +0.000 C 
ATOM     10  C   UNL     1      -2.362  13.988  20.719  0.00  0.00    +0.000 C 
ATOM     11  C   UNL     1      -2.916  12.813  21.545  0.00  0.00    +0.000 C 
ENDBRANCH   4   6
BRANCH   5  12
ATOM     12  C   UNL     1      -0.655  10.839  19.799  0.00  0.00    +0.000 A 
ATOM     13  C   UNL     1      -1.752  10.294  19.110  0.00  0.00    +0.000 A 
ATOM     14  C   UNL     1      -2.205  10.937  17.968  0.00  0.00    +0.000 A 
ATOM     15  N   UNL     1      -1.592  12.006  17.423  0.00  0.00    +0.000 NA
ATOM     16  C   UNL     1      -0.497  12.468  18.062  0.00  0.00    +0.000 A 
ATOM     17  C   UNL     1      -0.005  11.936  19.243  0.00  0.00    +0.000 A 
ENDBRANCH   5  12
BRANCH   1  21
ATOM     18  C   UNL     1       1.870   6.695  20.140  0.00  0.00    +0.000 A 
ATOM     19  N   UNL     1       2.256   7.610  19.242  0.00  0.00    +0.000 NA
ATOM     20  O   UNL     1       1.752   8.788  19.754  0.00  0.00    +0.000 OA
ATOM     21  C   UNL     1       1.102   8.490  20.921  0.00  0.00    +0.000 A 
ATOM     22  N   UNL     1       1.167   7.205  21.205  0.00  0.00    +0.000 NA
BRANCH  18  29
ATOM     23  F   UNL     1       2.857   2.330  21.885  0.00  0.00    +0.000 F 
ATOM     24  C   UNL     1       2.586   3.104  20.831  0.00  0.00    +0.000 A 
ATOM     25  C   UNL     1       2.515   2.532  19.568  0.00  0.00    +0.000 A 
ATOM     26  C   UNL     1       2.222   3.341  18.474  0.00  0.00    +0.000 A 
ATOM     27  C   UNL     1       2.008   4.714  18.655  0.00  0.00    +0.000 A 
ATOM     28  F   UNL     1       1.698   5.458  17.587  0.00  0.00    +0.000 F 
ATOM     29  C   UNL     1       2.081   5.282  19.928  0.00  0.00    +0.000 A 
ATOM     30  C   UNL     1       2.368   4.461  21.027  0.00  0.00    +0.000 A 
ENDBRANCH  18  29
ENDBRANCH   1  21
TORSDOF 4
ENDMDL
MODEL 9
REMARK VINA RESULT:      -8.4      1.297      2.343
REMARK  Name = 
REMARK  4 active torsions:
REMARK  status: ('A' for Active; 'I' for Inactive)
REMARK    1  A    between atoms: C_7  and  C_8
REMARK    2  A    between atoms: C_11  and  C_12
REMARK    3  A    between atoms: N_15  and  C_16
REMARK    4  A    between atoms: C_22  and  C_23
REMARK                            x       y       z     vdW  Elec       q    Type
REMARK                         _______ _______ _______ _____ _____    ______ ____
ROOT
ATOM      1  C   UNL     1       3.181   7.314  17.825  0.00  0.00    +0.000 A 
ATOM      2  C   UNL     1       4.258   7.550  16.979  0.00  0.00    +0.000 A 
ATOM      3  N   UNL     1       4.820   6.414  16.588  0.00  0.00    +0.000 NA
ATOM      4  N   UNL     1       4.183   5.429  17.292  0.00  0.00    +0.000 N 
ATOM      5  C   UNL     1       3.165   5.941  18.079  0.00  0.00    +0.000 A 
ENDROOT
BRANCH   4   6
ATOM      6  C   UNL     1       4.795   4.107  17.103  0.00  0.00    +0.000 C 
ATOM      7  C   UNL     1       5.852   3.893  18.202  0.00  0.00    +0.000 C 
ATOM      8  C   UNL     1       5.130   3.589  19.511  0.00  0.00    +0.000 C 
ATOM      9  C   UNL     1       4.553   2.189  19.425  0.00  0.00    +0.000 C 
ATOM     10  C   UNL     1       3.650   1.997  18.210  0.00  0.00    +0.000 C 
ATOM     11  C   UNL     1       3.993   2.797  16.941  0.00  0.00    +0.000 C 
ENDBRANCH   4   6
BRANCH   5  12
ATOM     12  C   UNL     1       2.170   5.251  18.903  0.00  0.00    +0.000 A 
ATOM     13  C   UNL     1       1.269   4.360  18.296  0.00  0.00    +0.000 A 
ATOM     14  C   UNL     1       0.680   3.377  19.077  0.00  0.00    +0.000 A 
ATOM     15  N   UNL     1       0.849   3.286  20.411  0.00  0.00    +0.000 NA
ATOM     16  C   UNL     1       1.663   4.197  20.983  0.00  0.00    +0.000 A 
ATOM     17  C   UNL     1       2.347   5.176  20.281  0.00  0.00    +0.000 A 
ENDBRANCH   5  12
BRANCH   1  21
ATOM     18  C   UNL     1       0.924   9.523  19.455  0.00  0.00    +0.000 A 
ATOM     19  N   UNL     1       0.997  10.196  18.300  0.00  0.00    +0.000 NA
ATOM     20  O   UNL     1       1.832   9.414  17.529  0.00  0.00    +0.000 OA
ATOM     21  C   UNL     1       2.196   8.330  18.280  0.00  0.00    +0.000 A 
ATOM     22  N   UNL     1       1.639   8.350  19.475  0.00  0.00    +0.000 NA
BRANCH  18  29
ATOM     23  F   UNL     1      -0.046   9.369  24.157  0.00  0.00    +0.000 F 
ATOM     24  C   UNL     1      -0.234   9.953  22.971  0.00  0.00    +0.000 A 
ATOM     25  C   UNL     1      -1.076  11.053  22.880  0.00  0.00    +0.000 A 
ATOM     26  C   UNL     1      -1.261  11.664  21.643  0.00  0.00    +0.000 A 
ATOM     27  C   UNL     1      -0.605  11.165  20.510  0.00  0.00    +0.000 A 
ATOM     28  F   UNL     1      -0.779  11.795  19.343  0.00  0.00    +0.000 F 
ATOM     29  C   UNL     1       0.240  10.058  20.609  0.00  0.00    +0.000 A 
ATOM     30  C   UNL     1       0.429   9.453  21.859  0.00  0.00    +0.000 A 
ENDBRANCH  18  29
ENDBRANCH   1  21
TORSDOF 4
ENDMDL
