MODEL 1
REMARK VINA RESULT:      -8.2      0.000      0.000
REMARK  Name = 
REMARK  4 active torsions:
REMARK  status: ('A' for Active; 'I' for Inactive)
REMARK    1  A    between atoms: N_2  and  C_4
REMARK    2  A    between atoms: C_7  and  O_8
REMARK    3  A    between atoms: O_8  and  C_9
REMARK    4  A    between atoms: C_16  and  N_17
REMARK                            x       y       z     vdW  Elec       q    Type
REMARK                         _______ _______ _______ _____ _____    ______ ____
ROOT
ATOM      1  C   UNL     1       6.425   4.854  15.618  0.00  0.00    +0.000 A 
ATOM      2  C   UNL     1       5.113   4.429  15.859  0.00  0.00    +0.000 A 
ATOM      3  C   UNL     1       4.578   4.522  17.146  0.00  0.00    +0.000 A 
ATOM      4  C   UNL     1       5.316   5.092  18.193  0.00  0.00    +0.000 A 
ATOM      5  C   UNL     1       6.648   5.448  17.943  0.00  0.00    +0.000 A 
ATOM      6  C   UNL     1       7.216   5.348  16.663  0.00  0.00    +0.000 A 
ENDROOT
BRANCH   1   8
ATOM      7  O   UNL     1       6.458   3.952  13.480  0.00  0.00    +0.000 OA
ATOM      8  N   UNL     1       6.970   4.768  14.256  0.00  0.00    +0.000 N 
ATOM      9  O   UNL     1       7.907   5.523  13.972  0.00  0.00    +0.000 OA
ENDBRANCH   1   8
BRANCH   5  10
ATOM     10  N   UNL     1       7.493   5.928  19.019  0.00  0.00    +0.000 N 
ATOM     11  O   UNL     1       7.543   5.247  20.052  0.00  0.00    +0.000 OA
ATOM     12  O   UNL     1       8.155   6.951  18.795  0.00  0.00    +0.000 OA
ENDBRANCH   5  10
BRANCH   4  13
ATOM     13  O   UNL     1       4.772   5.294  19.444  0.00  0.00    +0.000 OA
BRANCH  13  14
ATOM     14  C   UNL     1       3.534   4.747  19.720  0.00  0.00    +0.000 A 
ATOM     15  C   UNL     1       2.534   5.624  20.150  0.00  0.00    +0.000 A 
ATOM     16  C   UNL     1       1.266   5.134  20.482  0.00  0.00    +0.000 A 
ATOM     17  C   UNL     1       0.998   3.770  20.382  0.00  0.00    +0.000 A 
ATOM     18  C   UNL     1       1.989   2.910  19.925  0.00  0.00    +0.000 A 
ATOM     19  F   UNL     1       1.740   1.597  19.845  0.00  0.00    +0.000 F 
ATOM     20  C   UNL     1       3.244   3.387  19.565  0.00  0.00    +0.000 A 
ENDBRANCH  13  14
ENDBRANCH   4  13
TORSDOF 4
ENDMDL
MODEL 2
REMARK VINA RESULT:      -8.2      0.933      1.593
REMARK  Name = 
REMARK  4 active torsions:
REMARK  status: ('A' for Active; 'I' for Inactive)
REMARK    1  A    between atoms: N_2  and  C_4
REMARK    2  A    between atoms: C_7  and  O_8
REMARK    3  A    between atoms: O_8  and  C_9
REMARK    4  A    between atoms: C_16  and  N_17
REMARK                            x       y       z     vdW  Elec       q    Type
REMARK                         _______ _______ _______ _____ _____    ______ ____
ROOT
ATOM      1  C   UNL     1       6.519   4.963  15.237  0.00  0.00    +0.000 A 
ATOM      2  C   UNL     1       5.174   4.655  15.473  0.00  0.00    +0.000 A 
ATOM      3  C   UNL     1       4.641   4.803  16.756  0.00  0.00    +0.000 A 
ATOM      4  C   UNL     1       5.421   5.314  17.804  0.00  0.00    +0.000 A 
ATOM      5  C   UNL     1       6.780   5.552  17.560  0.00  0.00    +0.000 A 
ATOM      6  C   UNL     1       7.343   5.394  16.284  0.00  0.00    +0.000 A 
ENDROOT
BRANCH   1   8
ATOM      7  O   UNL     1       8.008   5.549  13.557  0.00  0.00    +0.000 OA
ATOM      8  N   UNL     1       7.061   4.821  13.879  0.00  0.00    +0.000 N 
ATOM      9  O   UNL     1       6.536   3.977  13.144  0.00  0.00    +0.000 OA
ENDBRANCH   1   8
BRANCH   5  10
ATOM     10  N   UNL     1       7.658   5.964  18.638  0.00  0.00    +0.000 N 
ATOM     11  O   UNL     1       7.934   5.122  19.501  0.00  0.00    +0.000 OA
ATOM     12  O   UNL     1       8.119   7.113  18.573  0.00  0.00    +0.000 OA
ENDBRANCH   5  10
BRANCH   4  13
ATOM     13  O   UNL     1       4.889   5.571  19.051  0.00  0.00    +0.000 OA
BRANCH  13  14
ATOM     14  C   UNL     1       3.940   4.703  19.553  0.00  0.00    +0.000 A 
ATOM     15  C   UNL     1       4.334   3.376  19.748  0.00  0.00    +0.000 A 
ATOM     16  C   UNL     1       3.415   2.432  20.220  0.00  0.00    +0.000 A 
ATOM     17  C   UNL     1       2.104   2.816  20.498  0.00  0.00    +0.000 A 
ATOM     18  C   UNL     1       1.729   4.144  20.329  0.00  0.00    +0.000 A 
ATOM     19  F   UNL     1       0.466   4.511  20.577  0.00  0.00    +0.000 F 
ATOM     20  C   UNL     1       2.640   5.097  19.888  0.00  0.00    +0.000 A 
ENDBRANCH  13  14
ENDBRANCH   4  13
TORSDOF 4
ENDMDL
MODEL 3
REMARK VINA RESULT:      -8.1      0.475      1.081
REMARK  Name = 
REMARK  4 active torsions:
REMARK  status: ('A' for Active; 'I' for Inactive)
REMARK    1  A    between atoms: N_2  and  C_4
REMARK    2  A    between atoms: C_7  and  O_8
REMARK    3  A    between atoms: O_8  and  C_9
REMARK    4  A    between atoms: C_16  and  N_17
REMARK                            x       y       z     vdW  Elec       q    Type
REMARK                         _______ _______ _______ _____ _____    ______ ____
ROOT
ATOM      1  C   UNL     1       6.540   4.708  15.479  0.00  0.00    +0.000 A 
ATOM      2  C   UNL     1       5.331   4.105  15.847  0.00  0.00    +0.000 A 
ATOM      3  C   UNL     1       4.927   4.118  17.184  0.00  0.00    +0.000 A 
ATOM      4  C   UNL     1       5.687   4.780  18.160  0.00  0.00    +0.000 A 
ATOM      5  C   UNL     1       6.924   5.316  17.780  0.00  0.00    +0.000 A 
ATOM      6  C   UNL     1       7.362   5.301  16.446  0.00  0.00    +0.000 A 
ENDROOT
BRANCH   1   8
ATOM      7  O   UNL     1       7.825   5.500  13.717  0.00  0.00    +0.000 OA
ATOM      8  N   UNL     1       6.945   4.704  14.067  0.00  0.00    +0.000 N 
ATOM      9  O   UNL     1       6.381   3.899  13.317  0.00  0.00    +0.000 OA
ENDBRANCH   1   8
BRANCH   5  10
ATOM     10  N   UNL     1       7.805   5.904  18.771  0.00  0.00    +0.000 N 
ATOM     11  O   UNL     1       8.104   7.096  18.632  0.00  0.00    +0.000 OA
ATOM     12  O   UNL     1       8.135   5.181  19.722  0.00  0.00    +0.000 OA
ENDBRANCH   5  10
BRANCH   4  13
ATOM     13  O   UNL     1       5.255   4.899  19.464  0.00  0.00    +0.000 OA
BRANCH  13  14
ATOM     14  C   UNL     1       3.926   4.645  19.744  0.00  0.00    +0.000 A 
ATOM     15  C   UNL     1       3.072   5.748  19.817  0.00  0.00    +0.000 A 
ATOM     16  C   UNL     1       1.720   5.570  20.132  0.00  0.00    +0.000 A 
ATOM     17  C   UNL     1       1.224   4.290  20.371  0.00  0.00    +0.000 A 
ATOM     18  C   UNL     1       2.075   3.196  20.267  0.00  0.00    +0.000 A 
ATOM     19  F   UNL     1       1.606   1.967  20.514  0.00  0.00    +0.000 F 
ATOM     20  C   UNL     1       3.413   3.357  19.927  0.00  0.00    +0.000 A 
ENDBRANCH  13  14
ENDBRANCH   4  13
TORSDOF 4
ENDMDL
MODEL 4
REMARK VINA RESULT:      -7.9      1.863      2.474
REMARK  Name = 
REMARK  4 active torsions:
REMARK  status: ('A' for Active; 'I' for Inactive)
REMARK    1  A    between atoms: N_2  and  C_4
REMARK    2  A    between atoms: C_7  and  O_8
REMARK    3  A    between atoms: O_8  and  C_9
REMARK    4  A    between atoms: C_16  and  N_17
REMARK                            x       y       z     vdW  Elec       q    Type
REMARK                         _______ _______ _______ _____ _____    ______ ____
ROOT
ATOM      1  C   UNL     1       6.871   4.822  14.557  0.00  0.00    +0.000 A 
ATOM      2  C   UNL     1       5.600   4.241  14.640  0.00  0.00    +0.000 A 
ATOM      3  C   UNL     1       4.969   4.124  15.882  0.00  0.00    +0.000 A 
ATOM      4  C   UNL     1       5.566   4.636  17.043  0.00  0.00    +0.000 A 
ATOM      5  C   UNL     1       6.864   5.151  16.945  0.00  0.00    +0.000 A 
ATOM      6  C   UNL     1       7.527   5.264  15.712  0.00  0.00    +0.000 A 
ENDROOT
BRANCH   1   8
ATOM      7  O   UNL     1       8.464   5.744  13.144  0.00  0.00    +0.000 OA
ATOM      8  N   UNL     1       7.515   4.956  13.244  0.00  0.00    +0.000 N 
ATOM      9  O   UNL     1       7.068   4.268  12.319  0.00  0.00    +0.000 OA
ENDBRANCH   1   8
BRANCH   5  10
ATOM     10  N   UNL     1       7.575   5.581  18.134  0.00  0.00    +0.000 N 
ATOM     11  O   UNL     1       7.994   4.702  18.896  0.00  0.00    +0.000 OA
ATOM     12  O   UNL     1       7.767   6.799  18.259  0.00  0.00    +0.000 OA
ENDBRANCH   5  10
BRANCH   4  13
ATOM     13  O   UNL     1       4.916   4.629  18.260  0.00  0.00    +0.000 OA
BRANCH  13  14
ATOM     14  C   UNL     1       3.998   5.626  18.522  0.00  0.00    +0.000 A 
ATOM     15  C   UNL     1       3.935   6.685  17.611  0.00  0.00    +0.000 A 
ATOM     16  C   UNL     1       3.052   7.749  17.831  0.00  0.00    +0.000 A 
ATOM     17  C   UNL     1       2.234   7.753  18.959  0.00  0.00    +0.000 A 
ATOM     18  C   UNL     1       2.283   6.682  19.843  0.00  0.00    +0.000 A 
ATOM     19  F   UNL     1       1.511   6.692  20.937  0.00  0.00    +0.000 F 
ATOM     20  C   UNL     1       3.133   5.605  19.622  0.00  0.00    +0.000 A 
ENDBRANCH  13  14
ENDBRANCH   4  13
TORSDOF 4
ENDMDL
MODEL 5
REMARK VINA RESULT:      -7.8      2.195      2.783
REMARK  Name = 
REMARK  4 active torsions:
REMARK  status: ('A' for Active; 'I' for Inactive)
REMARK    1  A    between atoms: N_2  and  C_4
REMARK    2  A    between atoms: C_7  and  O_8
REMARK    3  A    between atoms: O_8  and  C_9
REMARK    4  A    between atoms: C_16  and  N_17
REMARK                            x       y       z     vdW  Elec       q    Type
REMARK                         _______ _______ _______ _____ _____    ______ ____
ROOT
ATOM      1  C   UNL     1       6.854   4.807  14.522  0.00  0.00    +0.000 A 
ATOM      2  C   UNL     1       5.588   4.214  14.601  0.00  0.00    +0.000 A 
ATOM      3  C   UNL     1       4.967   4.064  15.844  0.00  0.00    +0.000 A 
ATOM      4  C   UNL     1       5.569   4.554  17.013  0.00  0.00    +0.000 A 
ATOM      5  C   UNL     1       6.863   5.082  16.917  0.00  0.00    +0.000 A 
ATOM      6  C   UNL     1       7.516   5.228  15.683  0.00  0.00    +0.000 A 
ENDROOT
BRANCH   1   8
ATOM      7  O   UNL     1       8.393   5.813  13.107  0.00  0.00    +0.000 OA
ATOM      8  N   UNL     1       7.487   4.976  13.208  0.00  0.00    +0.000 N 
ATOM      9  O   UNL     1       7.076   4.265  12.284  0.00  0.00    +0.000 OA
ENDBRANCH   1   8
BRANCH   5  10
ATOM     10  N   UNL     1       7.579   5.491  18.110  0.00  0.00    +0.000 N 
ATOM     11  O   UNL     1       7.572   6.696  18.394  0.00  0.00    +0.000 OA
ATOM     12  O   UNL     1       8.086   4.590  18.792  0.00  0.00    +0.000 OA
ENDBRANCH   5  10
BRANCH   4  13
ATOM     13  O   UNL     1       4.929   4.515  18.234  0.00  0.00    +0.000 OA
BRANCH  13  14
ATOM     14  C   UNL     1       4.021   5.512  18.534  0.00  0.00    +0.000 A 
ATOM     15  C   UNL     1       3.297   5.375  19.722  0.00  0.00    +0.000 A 
ATOM     16  C   UNL     1       2.335   6.329  20.072  0.00  0.00    +0.000 A 
ATOM     17  C   UNL     1       2.098   7.418  19.236  0.00  0.00    +0.000 A 
ATOM     18  C   UNL     1       2.843   7.562  18.072  0.00  0.00    +0.000 A 
ATOM     19  F   UNL     1       2.605   8.597  17.258  0.00  0.00    +0.000 F 
ATOM     20  C   UNL     1       3.822   6.637  17.727  0.00  0.00    +0.000 A 
ENDBRANCH  13  14
ENDBRANCH   4  13
TORSDOF 4
ENDMDL
MODEL 6
REMARK VINA RESULT:      -7.8      1.358      1.794
REMARK  Name = 
REMARK  4 active torsions:
REMARK  status: ('A' for Active; 'I' for Inactive)
REMARK    1  A    between atoms: N_2  and  C_4
REMARK    2  A    between atoms: C_7  and  O_8
REMARK    3  A    between atoms: O_8  and  C_9
REMARK    4  A    between atoms: C_16  and  N_17
REMARK                            x       y       z     vdW  Elec       q    Type
REMARK                         _______ _______ _______ _____ _____    ______ ____
ROOT
ATOM      1  C   UNL     1       6.294   5.250  15.473  0.00  0.00    +0.000 A 
ATOM      2  C   UNL     1       5.195   6.096  15.280  0.00  0.00    +0.000 A 
ATOM      3  C   UNL     1       4.359   6.405  16.356  0.00  0.00    +0.000 A 
ATOM      4  C   UNL     1       4.638   5.928  17.645  0.00  0.00    +0.000 A 
ATOM      5  C   UNL     1       5.703   5.031  17.800  0.00  0.00    +0.000 A 
ATOM      6  C   UNL     1       6.548   4.690  16.732  0.00  0.00    +0.000 A 
ENDROOT
BRANCH   1   8
ATOM      7  O   UNL     1       8.168   5.668  14.170  0.00  0.00    +0.000 OA
ATOM      8  N   UNL     1       7.177   4.948  14.339  0.00  0.00    +0.000 N 
ATOM      9  O   UNL     1       6.872   3.985  13.624  0.00  0.00    +0.000 OA
ENDBRANCH   1   8
BRANCH   5  10
ATOM     10  N   UNL     1       5.960   4.413  19.086  0.00  0.00    +0.000 N 
ATOM     11  O   UNL     1       6.653   5.045  19.894  0.00  0.00    +0.000 OA
ATOM     12  O   UNL     1       5.408   3.325  19.303  0.00  0.00    +0.000 OA
ENDBRANCH   5  10
BRANCH   4  13
ATOM     13  O   UNL     1       3.891   6.308  18.741  0.00  0.00    +0.000 OA
BRANCH  13  14
ATOM     14  C   UNL     1       2.930   5.437  19.216  0.00  0.00    +0.000 A 
ATOM     15  C   UNL     1       2.726   5.410  20.598  0.00  0.00    +0.000 A 
ATOM     16  C   UNL     1       1.794   4.526  21.154  0.00  0.00    +0.000 A 
ATOM     17  C   UNL     1       1.067   3.671  20.327  0.00  0.00    +0.000 A 
ATOM     18  C   UNL     1       1.255   3.726  18.951  0.00  0.00    +0.000 A 
ATOM     19  F   UNL     1       0.571   2.894  18.157  0.00  0.00    +0.000 F 
ATOM     20  C   UNL     1       2.157   4.619  18.384  0.00  0.00    +0.000 A 
ENDBRANCH  13  14
ENDBRANCH   4  13
TORSDOF 4
ENDMDL
MODEL 7
REMARK VINA RESULT:      -7.8      1.503      1.759
REMARK  Name = 
REMARK  4 active torsions:
REMARK  status: ('A' for Active; 'I' for Inactive)
REMARK    1  A    between atoms: N_2  and  C_4
REMARK    2  A    between atoms: C_7  and  O_8
REMARK    3  A    between atoms: O_8  and  C_9
REMARK    4  A    between atoms: C_16  and  N_17
REMARK                            x       y       z     vdW  Elec       q    Type
REMARK                         _______ _______ _______ _____ _____    ______ ____
ROOT
ATOM      1  C   UNL     1       6.954   5.020  14.370  0.00  0.00    +0.000 A 
ATOM      2  C   UNL     1       5.599   4.669  14.345  0.00  0.00    +0.000 A 
ATOM      3  C   UNL     1       4.865   4.642  15.533  0.00  0.00    +0.000 A 
ATOM      4  C   UNL     1       5.452   5.019  16.750  0.00  0.00    +0.000 A 
ATOM      5  C   UNL     1       6.824   5.301  16.761  0.00  0.00    +0.000 A 
ATOM      6  C   UNL     1       7.588   5.319  15.583  0.00  0.00    +0.000 A 
ENDROOT
BRANCH   1   8
ATOM      7  O   UNL     1       7.321   4.347  12.180  0.00  0.00    +0.000 OA
ATOM      8  N   UNL     1       7.709   5.063  13.112  0.00  0.00    +0.000 N 
ATOM      9  O   UNL     1       8.687   5.819  13.062  0.00  0.00    +0.000 OA
ENDBRANCH   1   8
BRANCH   5  10
ATOM     10  N   UNL     1       7.506   5.578  18.011  0.00  0.00    +0.000 N 
ATOM     11  O   UNL     1       7.632   6.764  18.340  0.00  0.00    +0.000 OA
ATOM     12  O   UNL     1       7.851   4.599  18.687  0.00  0.00    +0.000 OA
ENDBRANCH   5  10
BRANCH   4  13
ATOM     13  O   UNL     1       4.721   5.105  17.917  0.00  0.00    +0.000 OA
BRANCH  13  14
ATOM     14  C   UNL     1       3.742   4.159  18.151  0.00  0.00    +0.000 A 
ATOM     15  C   UNL     1       2.423   4.616  18.226  0.00  0.00    +0.000 A 
ATOM     16  C   UNL     1       1.383   3.720  18.497  0.00  0.00    +0.000 A 
ATOM     17  C   UNL     1       1.662   2.368  18.691  0.00  0.00    +0.000 A 
ATOM     18  C   UNL     1       2.973   1.918  18.585  0.00  0.00    +0.000 A 
ATOM     19  F   UNL     1       3.246   0.624  18.789  0.00  0.00    +0.000 F 
ATOM     20  C   UNL     1       4.011   2.793  18.289  0.00  0.00    +0.000 A 
ENDBRANCH  13  14
ENDBRANCH   4  13
TORSDOF 4
ENDMDL
MODEL 8
REMARK VINA RESULT:      -7.8      1.270      1.441
REMARK  Name = 
REMARK  4 active torsions:
REMARK  status: ('A' for Active; 'I' for Inactive)
REMARK    1  A    between atoms: N_2  and  C_4
REMARK    2  A    between atoms: C_7  and  O_8
REMARK    3  A    between atoms: O_8  and  C_9
REMARK    4  A    between atoms: C_16  and  N_17
REMARK                            x       y       z     vdW  Elec       q    Type
REMARK                         _______ _______ _______ _____ _____    ______ ____
ROOT
ATOM      1  C   UNL     1       6.316   5.285  15.432  0.00  0.00    +0.000 A 
ATOM      2  C   UNL     1       5.171   6.064  15.228  0.00  0.00    +0.000 A 
ATOM      3  C   UNL     1       4.343   6.379  16.308  0.00  0.00    +0.000 A 
ATOM      4  C   UNL     1       4.674   5.976  17.610  0.00  0.00    +0.000 A 
ATOM      5  C   UNL     1       5.786   5.143  17.780  0.00  0.00    +0.000 A 
ATOM      6  C   UNL     1       6.625   4.796  16.708  0.00  0.00    +0.000 A 
ENDROOT
BRANCH   1   8
ATOM      7  O   UNL     1       6.862   4.039  13.553  0.00  0.00    +0.000 OA
ATOM      8  N   UNL     1       7.188   4.976  14.292  0.00  0.00    +0.000 N 
ATOM      9  O   UNL     1       8.195   5.679  14.140  0.00  0.00    +0.000 OA
ENDBRANCH   1   8
BRANCH   5  10
ATOM     10  N   UNL     1       6.103   4.598  19.086  0.00  0.00    +0.000 N 
ATOM     11  O   UNL     1       5.591   3.513  19.390  0.00  0.00    +0.000 OA
ATOM     12  O   UNL     1       6.919   5.230  19.772  0.00  0.00    +0.000 OA
ENDBRANCH   5  10
BRANCH   4  13
ATOM     13  O   UNL     1       3.932   6.367  18.706  0.00  0.00    +0.000 OA
BRANCH  13  14
ATOM     14  C   UNL     1       2.905   5.547  19.131  0.00  0.00    +0.000 A 
ATOM     15  C   UNL     1       2.361   5.814  20.391  0.00  0.00    +0.000 A 
ATOM     16  C   UNL     1       1.342   5.002  20.902  0.00  0.00    +0.000 A 
ATOM     17  C   UNL     1       0.868   3.926  20.154  0.00  0.00    +0.000 A 
ATOM     18  C   UNL     1       1.395   3.686  18.891  0.00  0.00    +0.000 A 
ATOM     19  F   UNL     1       0.954   2.642  18.178  0.00  0.00    +0.000 F 
ATOM     20  C   UNL     1       2.387   4.502  18.359  0.00  0.00    +0.000 A 
ENDBRANCH  13  14
ENDBRANCH   4  13
TORSDOF 4
ENDMDL
MODEL 9
REMARK VINA RESULT:      -7.8      1.097      1.687
REMARK  Name = 
REMARK  4 active torsions:
REMARK  status: ('A' for Active; 'I' for Inactive)
REMARK    1  A    between atoms: N_2  and  C_4
REMARK    2  A    between atoms: C_7  and  O_8
REMARK    3  A    between atoms: O_8  and  C_9
REMARK    4  A    between atoms: C_16  and  N_17
REMARK                            x       y       z     vdW  Elec       q    Type
REMARK                         _______ _______ _______ _____ _____    ______ ____
ROOT
ATOM      1  C   UNL     1       6.522   4.609  15.606  0.00  0.00    +0.000 A 
ATOM      2  C   UNL     1       5.428   3.792  15.915  0.00  0.00    +0.000 A 
ATOM      3  C   UNL     1       5.022   3.647  17.244  0.00  0.00    +0.000 A 
ATOM      4  C   UNL     1       5.659   4.357  18.272  0.00  0.00    +0.000 A 
ATOM      5  C   UNL     1       6.791   5.115  17.947  0.00  0.00    +0.000 A 
ATOM      6  C   UNL     1       7.230   5.263  16.622  0.00  0.00    +0.000 A 
ENDROOT
BRANCH   1   8
ATOM      7  O   UNL     1       6.331   4.098  13.351  0.00  0.00    +0.000 OA
ATOM      8  N   UNL     1       6.926   4.769  14.203  0.00  0.00    +0.000 N 
ATOM      9  O   UNL     1       7.837   5.570  13.962  0.00  0.00    +0.000 OA
ENDBRANCH   1   8
BRANCH   5  10
ATOM     10  N   UNL     1       7.560   5.770  18.989  0.00  0.00    +0.000 N 
ATOM     11  O   UNL     1       8.080   6.859  18.713  0.00  0.00    +0.000 OA
ATOM     12  O   UNL     1       7.579   5.220  20.098  0.00  0.00    +0.000 OA
ENDBRANCH   5  10
BRANCH   4  13
ATOM     13  O   UNL     1       5.209   4.314  19.576  0.00  0.00    +0.000 OA
BRANCH  13  14
ATOM     14  C   UNL     1       3.874   4.043  19.803  0.00  0.00    +0.000 A 
ATOM     15  C   UNL     1       3.461   2.717  19.651  0.00  0.00    +0.000 A 
ATOM     16  C   UNL     1       2.116   2.374  19.830  0.00  0.00    +0.000 A 
ATOM     17  C   UNL     1       1.186   3.358  20.160  0.00  0.00    +0.000 A 
ATOM     18  C   UNL     1       1.610   4.669  20.338  0.00  0.00    +0.000 A 
ATOM     19  F   UNL     1       0.716   5.619  20.638  0.00  0.00    +0.000 F 
ATOM     20  C   UNL     1       2.948   5.017  20.192  0.00  0.00    +0.000 A 
ENDBRANCH  13  14
ENDBRANCH   4  13
TORSDOF 4
ENDMDL
