MODEL 1
REMARK VINA RESULT:      -7.6      0.000      0.000
REMARK  Name = 
REMARK  5 active torsions:
REMARK  status: ('A' for Active; 'I' for Inactive)
REMARK    1  A    between atoms: C_2  and  C_3
REMARK    2  A    between atoms: C_7  and  C_8
REMARK    3  A    between atoms: C_10  and  N_11
REMARK    4  A    between atoms: C_12  and  C_14
REMARK    5  A    between atoms: N_19  and  C_20
REMARK                            x       y       z     vdW  Elec       q    Type
REMARK                         _______ _______ _______ _____ _____    ______ ____
ROOT
ATOM      1  C   UNL     1       2.659   6.899  18.484  0.00  0.00    +0.000 A 
ATOM      2  C   UNL     1       2.387   8.195  17.966  0.00  0.00    +0.000 A 
ATOM      3  C   UNL     1       1.826   8.877  19.014  0.00  0.00    +0.000 A 
ATOM      4  O   UNL     1       1.696   8.028  20.068  0.00  0.00    +0.000 OA
ATOM      5  N   UNL     1       2.197   6.788  19.735  0.00  0.00    +0.000 NA
ENDROOT
BRANCH   1  10
ATOM      6  C   UNL     1       5.239   5.021  16.496  0.00  0.00    +0.000 A 
ATOM      7  C   UNL     1       4.679   3.739  16.475  0.00  0.00    +0.000 A 
ATOM      8  C   UNL     1       3.485   3.487  17.149  0.00  0.00    +0.000 A 
ATOM      9  C   UNL     1       2.844   4.513  17.838  0.00  0.00    +0.000 A 
ATOM     10  C   UNL     1       3.389   5.808  17.853  0.00  0.00    +0.000 A 
ATOM     11  C   UNL     1       4.598   6.051  17.190  0.00  0.00    +0.000 A 
BRANCH   6  13
ATOM     12  N   UNL     1       7.438   5.503  15.207  0.00  0.00    +0.000 NA
ATOM     13  C   UNL     1       6.453   5.284  15.788  0.00  0.00    +0.000 C 
ENDBRANCH   6  13
ENDBRANCH   1  10
BRANCH   3  14
ATOM     14  N   UNL     1       1.428  10.187  19.130  0.00  0.00    +0.000 N 
ATOM     15  C   UNL     1       0.250  10.634  18.552  0.00  0.00    +0.000 C 
ATOM     16  O   UNL     1      -0.532   9.938  17.908  0.00  0.00    +0.000 OA
ATOM     17  H   UNL     1       2.035  10.839  19.611  0.00  0.00    +0.000 HD
BRANCH  15  18
ATOM     18  C   UNL     1      -0.039  12.117  18.837  0.00  0.00    +0.000 C 
ATOM     19  F   UNL     1       0.850  12.900  18.140  0.00  0.00    +0.000 F 
ATOM     20  C   UNL     1      -1.452  12.517  18.397  0.00  0.00    +0.000 C 
ATOM     21  C   UNL     1      -2.565  12.043  19.339  0.00  0.00    +0.000 C 
ATOM     22  C   UNL     1      -2.260  12.271  20.818  0.00  0.00    +0.000 C 
ATOM     23  N   UNL     1      -0.897  11.784  21.161  0.00  0.00    +0.000 N 
ATOM     24  C   UNL     1       0.159  12.421  20.323  0.00  0.00    +0.000 C 
BRANCH  23  25
ATOM     25  C   UNL     1      -0.615  11.153  22.310  0.00  0.00    +0.000 C 
ATOM     26  N   UNL     1      -0.398  10.582  23.293  0.00  0.00    +0.000 NA
ENDBRANCH  23  25
ENDBRANCH  15  18
ENDBRANCH   3  14
TORSDOF 5
ENDMDL
MODEL 2
REMARK VINA RESULT:      -7.5      5.344      7.012
REMARK  Name = 
REMARK  5 active torsions:
REMARK  status: ('A' for Active; 'I' for Inactive)
REMARK    1  A    between atoms: C_2  and  C_3
REMARK    2  A    between atoms: C_7  and  C_8
REMARK    3  A    between atoms: C_10  and  N_11
REMARK    4  A    between atoms: C_12  and  C_14
REMARK    5  A    between atoms: N_19  and  C_20
REMARK                            x       y       z     vdW  Elec       q    Type
REMARK                         _______ _______ _______ _____ _____    ______ ____
ROOT
ATOM      1  C   UNL     1       6.042   5.331  15.901  0.00  0.00    +0.000 A 
ATOM      2  C   UNL     1       5.178   4.587  16.752  0.00  0.00    +0.000 A 
ATOM      3  C   UNL     1       4.971   5.403  17.834  0.00  0.00    +0.000 A 
ATOM      4  O   UNL     1       5.720   6.527  17.684  0.00  0.00    +0.000 OA
ATOM      5  N   UNL     1       6.404   6.478  16.489  0.00  0.00    +0.000 NA
ENDROOT
BRANCH   1  10
ATOM      6  C   UNL     1       6.327   3.619  12.566  0.00  0.00    +0.000 A 
ATOM      7  C   UNL     1       7.435   4.278  12.022  0.00  0.00    +0.000 A 
ATOM      8  C   UNL     1       8.052   5.308  12.730  0.00  0.00    +0.000 A 
ATOM      9  C   UNL     1       7.572   5.677  13.983  0.00  0.00    +0.000 A 
ATOM     10  C   UNL     1       6.470   5.013  14.547  0.00  0.00    +0.000 A 
ATOM     11  C   UNL     1       5.843   3.991  13.823  0.00  0.00    +0.000 A 
BRANCH   6  13
ATOM     12  N   UNL     1       5.199   1.683  11.261  0.00  0.00    +0.000 NA
ATOM     13  C   UNL     1       5.706   2.549  11.850  0.00  0.00    +0.000 C 
ENDBRANCH   6  13
ENDBRANCH   1  10
BRANCH   3  14
ATOM     14  N   UNL     1       4.169   5.250  18.940  0.00  0.00    +0.000 N 
ATOM     15  C   UNL     1       2.788   5.329  18.843  0.00  0.00    +0.000 C 
ATOM     16  O   UNL     1       2.162   5.530  17.805  0.00  0.00    +0.000 OA
ATOM     17  H   UNL     1       4.607   5.122  19.843  0.00  0.00    +0.000 HD
BRANCH  15  18
ATOM     18  C   UNL     1       2.073   5.083  20.180  0.00  0.00    +0.000 C 
ATOM     19  F   UNL     1       1.879   6.282  20.825  0.00  0.00    +0.000 F 
ATOM     20  C   UNL     1       0.697   4.437  19.981  0.00  0.00    +0.000 C 
ATOM     21  C   UNL     1       0.744   2.942  19.646  0.00  0.00    +0.000 C 
ATOM     22  C   UNL     1       1.711   2.145  20.519  0.00  0.00    +0.000 C 
ATOM     23  N   UNL     1       3.038   2.815  20.591  0.00  0.00    +0.000 N 
ATOM     24  C   UNL     1       2.938   4.214  21.095  0.00  0.00    +0.000 C 
BRANCH  23  25
ATOM     25  C   UNL     1       4.197   2.140  20.572  0.00  0.00    +0.000 C 
ATOM     26  N   UNL     1       5.216   1.592  20.558  0.00  0.00    +0.000 NA
ENDBRANCH  23  25
ENDBRANCH  15  18
ENDBRANCH   3  14
TORSDOF 5
ENDMDL
MODEL 3
REMARK VINA RESULT:      -7.4      2.861      8.671
REMARK  Name = 
REMARK  5 active torsions:
REMARK  status: ('A' for Active; 'I' for Inactive)
REMARK    1  A    between atoms: C_2  and  C_3
REMARK    2  A    between atoms: C_7  and  C_8
REMARK    3  A    between atoms: C_10  and  N_11
REMARK    4  A    between atoms: C_12  and  C_14
REMARK    5  A    between atoms: N_19  and  C_20
REMARK                            x       y       z     vdW  Elec       q    Type
REMARK                         _______ _______ _______ _____ _____    ______ ____
ROOT
ATOM      1  C   UNL     1       1.328   9.254  18.869  0.00  0.00    +0.000 A 
ATOM      2  C   UNL     1       1.812   8.387  17.851  0.00  0.00    +0.000 A 
ATOM      3  C   UNL     1       2.313   7.305  18.526  0.00  0.00    +0.000 A 
ATOM      4  O   UNL     1       2.211   7.537  19.862  0.00  0.00    +0.000 OA
ATOM      5  N   UNL     1       1.615   8.759  20.080  0.00  0.00    +0.000 NA
ENDROOT
BRANCH   1  10
ATOM      6  C   UNL     1      -1.483  11.624  18.082  0.00  0.00    +0.000 A 
ATOM      7  C   UNL     1      -0.845  12.858  18.249  0.00  0.00    +0.000 A 
ATOM      8  C   UNL     1       0.485  12.907  18.661  0.00  0.00    +0.000 A 
ATOM      9  C   UNL     1       1.184  11.728  18.900  0.00  0.00    +0.000 A 
ATOM     10  C   UNL     1       0.560  10.482  18.722  0.00  0.00    +0.000 A 
ATOM     11  C   UNL     1      -0.782  10.439  18.325  0.00  0.00    +0.000 A 
BRANCH   6  13
ATOM     12  N   UNL     1      -3.946  11.534  17.273  0.00  0.00    +0.000 NA
ATOM     13  C   UNL     1      -2.841  11.572  17.640  0.00  0.00    +0.000 C 
ENDBRANCH   6  13
ENDBRANCH   1  10
BRANCH   3  14
ATOM     14  N   UNL     1       2.844   6.122  18.069  0.00  0.00    +0.000 N 
ATOM     15  C   UNL     1       4.048   6.092  17.382  0.00  0.00    +0.000 C 
ATOM     16  O   UNL     1       4.740   7.074  17.124  0.00  0.00    +0.000 OA
ATOM     17  H   UNL     1       2.316   5.269  18.204  0.00  0.00    +0.000 HD
BRANCH  15  18
ATOM     18  C   UNL     1       4.491   4.671  17.001  0.00  0.00    +0.000 C 
ATOM     19  F   UNL     1       3.389   3.851  16.926  0.00  0.00    +0.000 F 
ATOM     20  C   UNL     1       5.185   4.637  15.635  0.00  0.00    +0.000 C 
ATOM     21  C   UNL     1       6.625   5.164  15.645  0.00  0.00    +0.000 C 
ATOM     22  C   UNL     1       7.464   4.639  16.809  0.00  0.00    +0.000 C 
ATOM     23  N   UNL     1       6.733   4.782  18.097  0.00  0.00    +0.000 N 
ATOM     24  C   UNL     1       5.412   4.093  18.077  0.00  0.00    +0.000 C 
BRANCH  23  25
ATOM     25  C   UNL     1       7.334   5.147  19.240  0.00  0.00    +0.000 C 
ATOM     26  N   UNL     1       7.818   5.459  20.244  0.00  0.00    +0.000 NA
ENDBRANCH  23  25
ENDBRANCH  15  18
ENDBRANCH   3  14
TORSDOF 5
ENDMDL
MODEL 4
REMARK VINA RESULT:      -7.4      2.844      8.759
REMARK  Name = 
REMARK  5 active torsions:
REMARK  status: ('A' for Active; 'I' for Inactive)
REMARK    1  A    between atoms: C_2  and  C_3
REMARK    2  A    between atoms: C_7  and  C_8
REMARK    3  A    between atoms: C_10  and  N_11
REMARK    4  A    between atoms: C_12  and  C_14
REMARK    5  A    between atoms: N_19  and  C_20
REMARK                            x       y       z     vdW  Elec       q    Type
REMARK                         _______ _______ _______ _____ _____    ______ ____
ROOT
ATOM      1  C   UNL     1       1.019   8.797  20.414  0.00  0.00    +0.000 A 
ATOM      2  C   UNL     1       1.588   7.570  20.851  0.00  0.00    +0.000 A 
ATOM      3  C   UNL     1       2.428   7.195  19.834  0.00  0.00    +0.000 A 
ATOM      4  O   UNL     1       2.314   8.092  18.819  0.00  0.00    +0.000 OA
ATOM      5  N   UNL     1       1.422   9.082  19.169  0.00  0.00    +0.000 NA
ENDROOT
BRANCH   1  10
ATOM      6  C   UNL     1      -0.947  11.860  21.352  0.00  0.00    +0.000 A 
ATOM      7  C   UNL     1      -1.295  11.560  22.674  0.00  0.00    +0.000 A 
ATOM      8  C   UNL     1      -0.923  10.339  23.233  0.00  0.00    +0.000 A 
ATOM      9  C   UNL     1      -0.198   9.420  22.481  0.00  0.00    +0.000 A 
ATOM     10  C   UNL     1       0.170   9.716  21.158  0.00  0.00    +0.000 A 
ATOM     11  C   UNL     1      -0.222  10.937  20.595  0.00  0.00    +0.000 A 
BRANCH   6  13
ATOM     12  N   UNL     1      -1.600  14.149  20.320  0.00  0.00    +0.000 NA
ATOM     13  C   UNL     1      -1.311  13.121  20.784  0.00  0.00    +0.000 C 
ENDBRANCH   6  13
ENDBRANCH   1  10
BRANCH   3  14
ATOM     14  N   UNL     1       3.298   6.136  19.725  0.00  0.00    +0.000 N 
ATOM     15  C   UNL     1       3.122   5.158  18.759  0.00  0.00    +0.000 C 
ATOM     16  O   UNL     1       2.214   5.136  17.931  0.00  0.00    +0.000 OA
ATOM     17  H   UNL     1       4.051   6.056  20.396  0.00  0.00    +0.000 HD
BRANCH  15  18
ATOM     18  C   UNL     1       4.226   4.089  18.772  0.00  0.00    +0.000 C 
ATOM     19  F   UNL     1       4.143   3.357  19.933  0.00  0.00    +0.000 F 
ATOM     20  C   UNL     1       4.089   3.113  17.598  0.00  0.00    +0.000 C 
ATOM     21  C   UNL     1       4.549   3.678  16.249  0.00  0.00    +0.000 C 
ATOM     22  C   UNL     1       5.879   4.425  16.316  0.00  0.00    +0.000 C 
ATOM     23  N   UNL     1       5.887   5.399  17.440  0.00  0.00    +0.000 N 
ATOM     24  C   UNL     1       5.606   4.750  18.752  0.00  0.00    +0.000 C 
BRANCH  23  25
ATOM     25  C   UNL     1       6.442   6.616  17.347  0.00  0.00    +0.000 C 
ATOM     26  N   UNL     1       6.949   7.655  17.292  0.00  0.00    +0.000 NA
ENDBRANCH  23  25
ENDBRANCH  15  18
ENDBRANCH   3  14
TORSDOF 5
ENDMDL
MODEL 5
REMARK VINA RESULT:      -7.3      3.039      8.929
REMARK  Name = 
REMARK  5 active torsions:
REMARK  status: ('A' for Active; 'I' for Inactive)
REMARK    1  A    between atoms: C_2  and  C_3
REMARK    2  A    between atoms: C_7  and  C_8
REMARK    3  A    between atoms: C_10  and  N_11
REMARK    4  A    between atoms: C_12  and  C_14
REMARK    5  A    between atoms: N_19  and  C_20
REMARK                            x       y       z     vdW  Elec       q    Type
REMARK                         _______ _______ _______ _____ _____    ______ ____
ROOT
ATOM      1  C   UNL     1       1.029   9.364  20.557  0.00  0.00    +0.000 A 
ATOM      2  C   UNL     1       1.265   8.149  21.257  0.00  0.00    +0.000 A 
ATOM      3  C   UNL     1       1.888   7.338  20.344  0.00  0.00    +0.000 A 
ATOM      4  O   UNL     1       1.952   7.989  19.153  0.00  0.00    +0.000 OA
ATOM      5  N   UNL     1       1.401   9.246  19.276  0.00  0.00    +0.000 NA
ENDROOT
BRANCH   1  10
ATOM      6  C   UNL     1      -1.147  11.882  22.306  0.00  0.00    +0.000 A 
ATOM      7  C   UNL     1      -0.537  13.079  21.915  0.00  0.00    +0.000 A 
ATOM      8  C   UNL     1       0.607  13.053  21.121  0.00  0.00    +0.000 A 
ATOM      9  C   UNL     1       1.141  11.836  20.708  0.00  0.00    +0.000 A 
ATOM     10  C   UNL     1       0.529  10.627  21.081  0.00  0.00    +0.000 A 
ATOM     11  C   UNL     1      -0.610  10.659  21.894  0.00  0.00    +0.000 A 
BRANCH   6  13
ATOM     12  N   UNL     1      -3.299  11.923  23.753  0.00  0.00    +0.000 NA
ATOM     13  C   UNL     1      -2.333  11.908  23.104  0.00  0.00    +0.000 C 
ENDBRANCH   6  13
ENDBRANCH   1  10
BRANCH   3  14
ATOM     14  N   UNL     1       2.417   6.076  20.471  0.00  0.00    +0.000 N 
ATOM     15  C   UNL     1       1.601   4.955  20.508  0.00  0.00    +0.000 C 
ATOM     16  O   UNL     1       0.375   4.969  20.431  0.00  0.00    +0.000 OA
ATOM     17  H   UNL     1       3.418   5.978  20.582  0.00  0.00    +0.000 HD
BRANCH  15  18
ATOM     18  C   UNL     1       2.387   3.638  20.604  0.00  0.00    +0.000 C 
ATOM     19  F   UNL     1       2.761   3.420  21.910  0.00  0.00    +0.000 F 
ATOM     20  C   UNL     1       1.546   2.437  20.158  0.00  0.00    +0.000 C 
ATOM     21  C   UNL     1       1.379   2.313  18.638  0.00  0.00    +0.000 C 
ATOM     22  C   UNL     1       2.676   2.520  17.858  0.00  0.00    +0.000 C 
ATOM     23  N   UNL     1       3.381   3.747  18.314  0.00  0.00    +0.000 N 
ATOM     24  C   UNL     1       3.671   3.723  19.776  0.00  0.00    +0.000 C 
BRANCH  23  25
ATOM     25  C   UNL     1       4.008   4.583  17.473  0.00  0.00    +0.000 C 
ATOM     26  N   UNL     1       4.580   5.281  16.748  0.00  0.00    +0.000 NA
ENDBRANCH  23  25
ENDBRANCH  15  18
ENDBRANCH   3  14
TORSDOF 5
ENDMDL
MODEL 6
REMARK VINA RESULT:      -7.3      2.900      8.511
REMARK  Name = 
REMARK  5 active torsions:
REMARK  status: ('A' for Active; 'I' for Inactive)
REMARK    1  A    between atoms: C_2  and  C_3
REMARK    2  A    between atoms: C_7  and  C_8
REMARK    3  A    between atoms: C_10  and  N_11
REMARK    4  A    between atoms: C_12  and  C_14
REMARK    5  A    between atoms: N_19  and  C_20
REMARK                            x       y       z     vdW  Elec       q    Type
REMARK                         _______ _______ _______ _____ _____    ______ ____
ROOT
ATOM      1  C   UNL     1       1.393   9.283  18.807  0.00  0.00    +0.000 A 
ATOM      2  C   UNL     1       1.950   8.417  17.827  0.00  0.00    +0.000 A 
ATOM      3  C   UNL     1       2.326   7.299  18.525  0.00  0.00    +0.000 A 
ATOM      4  O   UNL     1       2.085   7.508  19.847  0.00  0.00    +0.000 OA
ATOM      5  N   UNL     1       1.521   8.751  20.029  0.00  0.00    +0.000 NA
ENDROOT
BRANCH   1  10
ATOM      6  C   UNL     1       0.695  12.974  18.642  0.00  0.00    +0.000 A 
ATOM      7  C   UNL     1      -0.686  12.974  18.418  0.00  0.00    +0.000 A 
ATOM      8  C   UNL     1      -1.372  11.769  18.277  0.00  0.00    +0.000 A 
ATOM      9  C   UNL     1      -0.684  10.562  18.366  0.00  0.00    +0.000 A 
ATOM     10  C   UNL     1       0.700  10.548  18.607  0.00  0.00    +0.000 A 
ATOM     11  C   UNL     1       1.386  11.762  18.729  0.00  0.00    +0.000 A 
BRANCH   6  13
ATOM     12  N   UNL     1       1.967  15.213  18.948  0.00  0.00    +0.000 NA
ATOM     13  C   UNL     1       1.395  14.209  18.807  0.00  0.00    +0.000 C 
ENDBRANCH   6  13
ENDBRANCH   1  10
BRANCH   3  14
ATOM     14  N   UNL     1       2.853   6.103  18.100  0.00  0.00    +0.000 N 
ATOM     15  C   UNL     1       4.004   6.058  17.328  0.00  0.00    +0.000 C 
ATOM     16  O   UNL     1       4.649   7.038  16.962  0.00  0.00    +0.000 OA
ATOM     17  H   UNL     1       2.359   5.248  18.323  0.00  0.00    +0.000 HD
BRANCH  15  18
ATOM     18  C   UNL     1       4.455   4.627  16.998  0.00  0.00    +0.000 C 
ATOM     19  F   UNL     1       3.357   3.802  16.934  0.00  0.00    +0.000 F 
ATOM     20  C   UNL     1       5.169   4.552  15.643  0.00  0.00    +0.000 C 
ATOM     21  C   UNL     1       6.608   5.083  15.658  0.00  0.00    +0.000 C 
ATOM     22  C   UNL     1       7.431   4.598  16.849  0.00  0.00    +0.000 C 
ATOM     23  N   UNL     1       6.682   4.779  18.122  0.00  0.00    +0.000 N 
ATOM     24  C   UNL     1       5.362   4.086  18.105  0.00  0.00    +0.000 C 
BRANCH  23  25
ATOM     25  C   UNL     1       7.265   5.181  19.261  0.00  0.00    +0.000 C 
ATOM     26  N   UNL     1       7.764   5.493  20.258  0.00  0.00    +0.000 NA
ENDBRANCH  23  25
ENDBRANCH  15  18
ENDBRANCH   3  14
TORSDOF 5
ENDMDL
MODEL 7
REMARK VINA RESULT:      -7.2      1.420      1.701
REMARK  Name = 
REMARK  5 active torsions:
REMARK  status: ('A' for Active; 'I' for Inactive)
REMARK    1  A    between atoms: C_2  and  C_3
REMARK    2  A    between atoms: C_7  and  C_8
REMARK    3  A    between atoms: C_10  and  N_11
REMARK    4  A    between atoms: C_12  and  C_14
REMARK    5  A    between atoms: N_19  and  C_20
REMARK                            x       y       z     vdW  Elec       q    Type
REMARK                         _______ _______ _______ _____ _____    ______ ____
ROOT
ATOM      1  C   UNL     1       2.366   7.488  18.422  0.00  0.00    +0.000 A 
ATOM      2  C   UNL     1       1.809   8.551  17.660  0.00  0.00    +0.000 A 
ATOM      3  C   UNL     1       1.326   9.432  18.593  0.00  0.00    +0.000 A 
ATOM      4  O   UNL     1       1.507   8.900  19.831  0.00  0.00    +0.000 OA
ATOM      5  N   UNL     1       2.138   7.680  19.728  0.00  0.00    +0.000 NA
ENDROOT
BRANCH   1  10
ATOM      6  C   UNL     1       5.123   5.462  16.865  0.00  0.00    +0.000 A 
ATOM      7  C   UNL     1       4.555   4.184  16.877  0.00  0.00    +0.000 A 
ATOM      8  C   UNL     1       3.293   3.986  17.436  0.00  0.00    +0.000 A 
ATOM      9  C   UNL     1       2.593   5.061  17.975  0.00  0.00    +0.000 A 
ATOM     10  C   UNL     1       3.147   6.352  17.955  0.00  0.00    +0.000 A 
ATOM     11  C   UNL     1       4.423   6.542  17.409  0.00  0.00    +0.000 A 
BRANCH   6  13
ATOM     12  N   UNL     1       7.453   5.834  15.787  0.00  0.00    +0.000 NA
ATOM     13  C   UNL     1       6.408   5.670  16.274  0.00  0.00    +0.000 C 
ENDBRANCH   6  13
ENDBRANCH   1  10
BRANCH   3  14
ATOM     14  N   UNL     1       0.748  10.671  18.451  0.00  0.00    +0.000 N 
ATOM     15  C   UNL     1      -0.542  10.918  18.896  0.00  0.00    +0.000 C 
ATOM     16  O   UNL     1      -1.271  10.094  19.443  0.00  0.00    +0.000 OA
ATOM     17  H   UNL     1       1.266  11.396  17.973  0.00  0.00    +0.000 HD
BRANCH  15  18
ATOM     18  C   UNL     1      -0.984  12.375  18.689  0.00  0.00    +0.000 C 
ATOM     19  F   UNL     1      -1.351  12.561  17.377  0.00  0.00    +0.000 F 
ATOM     20  C   UNL     1      -2.192  12.734  19.562  0.00  0.00    +0.000 C 
ATOM     21  C   UNL     1      -1.855  12.967  21.040  0.00  0.00    +0.000 C 
ATOM     22  C   UNL     1      -0.618  13.836  21.260  0.00  0.00    +0.000 C 
ATOM     23  N   UNL     1       0.518  13.363  20.424  0.00  0.00    +0.000 N 
ATOM     24  C   UNL     1       0.177  13.329  18.973  0.00  0.00    +0.000 C 
BRANCH  23  25
ATOM     25  C   UNL     1       1.785  13.338  20.863  0.00  0.00    +0.000 C 
ATOM     26  N   UNL     1       2.882  13.353  21.233  0.00  0.00    +0.000 NA
ENDBRANCH  23  25
ENDBRANCH  15  18
ENDBRANCH   3  14
TORSDOF 5
ENDMDL
MODEL 8
REMARK VINA RESULT:      -7.2      1.367      1.877
REMARK  Name = 
REMARK  5 active torsions:
REMARK  status: ('A' for Active; 'I' for Inactive)
REMARK    1  A    between atoms: C_2  and  C_3
REMARK    2  A    between atoms: C_7  and  C_8
REMARK    3  A    between atoms: C_10  and  N_11
REMARK    4  A    between atoms: C_12  and  C_14
REMARK    5  A    between atoms: N_19  and  C_20
REMARK                            x       y       z     vdW  Elec       q    Type
REMARK                         _______ _______ _______ _____ _____    ______ ____
ROOT
ATOM      1  C   UNL     1       2.656   7.075  18.436  0.00  0.00    +0.000 A 
ATOM      2  C   UNL     1       2.337   8.360  17.918  0.00  0.00    +0.000 A 
ATOM      3  C   UNL     1       1.776   9.031  18.974  0.00  0.00    +0.000 A 
ATOM      4  O   UNL     1       1.689   8.183  20.033  0.00  0.00    +0.000 OA
ATOM      5  N   UNL     1       2.220   6.957  19.697  0.00  0.00    +0.000 NA
ENDROOT
BRANCH   1  10
ATOM      6  C   UNL     1       3.971   3.651  17.610  0.00  0.00    +0.000 A 
ATOM      7  C   UNL     1       4.991   3.968  16.707  0.00  0.00    +0.000 A 
ATOM      8  C   UNL     1       5.212   5.294  16.339  0.00  0.00    +0.000 A 
ATOM      9  C   UNL     1       4.423   6.307  16.877  0.00  0.00    +0.000 A 
ATOM     10  C   UNL     1       3.405   6.003  17.797  0.00  0.00    +0.000 A 
ATOM     11  C   UNL     1       3.176   4.667  18.148  0.00  0.00    +0.000 A 
BRANCH   6  13
ATOM     12  N   UNL     1       3.590   1.187  18.325  0.00  0.00    +0.000 NA
ATOM     13  C   UNL     1       3.757   2.293  18.003  0.00  0.00    +0.000 C 
ENDBRANCH   6  13
ENDBRANCH   1  10
BRANCH   3  14
ATOM     14  N   UNL     1       1.342  10.329  19.091  0.00  0.00    +0.000 N 
ATOM     15  C   UNL     1       0.136  10.737  18.543  0.00  0.00    +0.000 C 
ATOM     16  O   UNL     1      -0.642  10.013  17.927  0.00  0.00    +0.000 OA
ATOM     17  H   UNL     1       1.943  11.003  19.550  0.00  0.00    +0.000 HD
BRANCH  15  18
ATOM     18  C   UNL     1      -0.189  12.212  18.826  0.00  0.00    +0.000 C 
ATOM     19  F   UNL     1       0.679  13.016  18.125  0.00  0.00    +0.000 F 
ATOM     20  C   UNL     1      -1.612  12.577  18.388  0.00  0.00    +0.000 C 
ATOM     21  C   UNL     1      -2.711  12.077  19.334  0.00  0.00    +0.000 C 
ATOM     22  C   UNL     1      -2.408  12.317  20.811  0.00  0.00    +0.000 C 
ATOM     23  N   UNL     1      -1.033  11.864  21.152  0.00  0.00    +0.000 N 
ATOM     24  C   UNL     1       0.005  12.525  20.311  0.00  0.00    +0.000 C 
BRANCH  23  25
ATOM     25  C   UNL     1      -0.733  11.243  22.303  0.00  0.00    +0.000 C 
ATOM     26  N   UNL     1      -0.477  10.741  23.314  0.00  0.00    +0.000 NA
ENDBRANCH  23  25
ENDBRANCH  15  18
ENDBRANCH   3  14
TORSDOF 5
ENDMDL
MODEL 9
REMARK VINA RESULT:      -7.1      2.634      8.640
REMARK  Name = 
REMARK  5 active torsions:
REMARK  status: ('A' for Active; 'I' for Inactive)
REMARK    1  A    between atoms: C_2  and  C_3
REMARK    2  A    between atoms: C_7  and  C_8
REMARK    3  A    between atoms: C_10  and  N_11
REMARK    4  A    between atoms: C_12  and  C_14
REMARK    5  A    between atoms: N_19  and  C_20
REMARK                            x       y       z     vdW  Elec       q    Type
REMARK                         _______ _______ _______ _____ _____    ______ ____
ROOT
ATOM      1  C   UNL     1       1.192   9.375  18.625  0.00  0.00    +0.000 A 
ATOM      2  C   UNL     1       1.627   8.213  19.319  0.00  0.00    +0.000 A 
ATOM      3  C   UNL     1       2.662   7.725  18.564  0.00  0.00    +0.000 A 
ATOM      4  O   UNL     1       2.791   8.495  17.450  0.00  0.00    +0.000 OA
ATOM      5  N   UNL     1       1.864   9.513  17.475  0.00  0.00    +0.000 NA
ENDROOT
BRANCH   1  10
ATOM      6  C   UNL     1      -0.635  11.897  20.731  0.00  0.00    +0.000 A 
ATOM      7  C   UNL     1      -1.766  12.134  19.943  0.00  0.00    +0.000 A 
ATOM      8  C   UNL     1      -1.902  11.502  18.709  0.00  0.00    +0.000 A 
ATOM      9  C   UNL     1      -0.915  10.628  18.261  0.00  0.00    +0.000 A 
ATOM     10  C   UNL     1       0.218  10.371  19.050  0.00  0.00    +0.000 A 
ATOM     11  C   UNL     1       0.358  11.023  20.281  0.00  0.00    +0.000 A 
BRANCH   6  13
ATOM     12  N   UNL     1      -0.406  13.044  23.047  0.00  0.00    +0.000 NA
ATOM     13  C   UNL     1      -0.504  12.530  22.007  0.00  0.00    +0.000 C 
ENDBRANCH   6  13
ENDBRANCH   1  10
BRANCH   3  14
ATOM     14  N   UNL     1       3.514   6.667  18.774  0.00  0.00    +0.000 N 
ATOM     15  C   UNL     1       3.215   5.399  18.301  0.00  0.00    +0.000 C 
ATOM     16  O   UNL     1       2.206   5.100  17.667  0.00  0.00    +0.000 OA
ATOM     17  H   UNL     1       4.350   6.819  19.325  0.00  0.00    +0.000 HD
BRANCH  15  18
ATOM     18  C   UNL     1       4.316   4.368  18.598  0.00  0.00    +0.000 C 
ATOM     19  F   UNL     1       4.047   3.741  19.792  0.00  0.00    +0.000 F 
ATOM     20  C   UNL     1       4.392   3.287  17.514  0.00  0.00    +0.000 C 
ATOM     21  C   UNL     1       5.066   3.742  16.214  0.00  0.00    +0.000 C 
ATOM     22  C   UNL     1       6.356   4.530  16.433  0.00  0.00    +0.000 C 
ATOM     23  N   UNL     1       6.160   5.600  17.447  0.00  0.00    +0.000 N 
ATOM     24  C   UNL     1       5.670   5.064  18.749  0.00  0.00    +0.000 C 
BRANCH  23  25
ATOM     25  C   UNL     1       6.707   6.820  17.336  0.00  0.00    +0.000 C 
ATOM     26  N   UNL     1       7.145   7.888  17.245  0.00  0.00    +0.000 NA
ENDBRANCH  23  25
ENDBRANCH  15  18
ENDBRANCH   3  14
TORSDOF 5
ENDMDL
