MODEL 1
REMARK VINA RESULT:      -7.2      0.000      0.000
REMARK  Name = 
REMARK  9 active torsions:
REMARK  status: ('A' for Active; 'I' for Inactive)
REMARK    1  A    between atoms: C_1  and  O_2
REMARK    2  A    between atoms: O_2  and  C_3
REMARK    3  A    between atoms: C_6  and  C_7
REMARK    4  A    between atoms: C_8  and  C_9
REMARK    5  A    between atoms: C_9  and  C_11
REMARK    6  A    between atoms: C_11  and  C_12
REMARK    7  A    between atoms: C_11  and  C_13
REMARK    8  A    between atoms: C_11  and  C_14
REMARK    9  A    between atoms: C_14  and  N_15
REMARK                            x       y       z     vdW  Elec       q    Type
REMARK                         _______ _______ _______ _____ _____    ______ ____
ROOT
ATOM      1  C   UNL     1       5.231   6.257  16.490  0.00  0.00    +0.000 C 
ATOM      2  O   UNL     1       5.423   6.780  15.392  0.00  0.00    +0.000 OA
ENDROOT
BRANCH   1   3
ATOM      3  C   UNL     1       5.739   4.831  16.833  0.00  0.00    +0.000 C 
ATOM      4  C   UNL     1       6.894   4.539  15.848  0.00  0.00    +0.000 C 
ATOM      5  C   UNL     1       6.300   4.781  18.265  0.00  0.00    +0.000 C 
BRANCH   3   6
ATOM      6  C   UNL     1       4.516   3.871  16.656  0.00  0.00    +0.000 C 
BRANCH   6   7
ATOM      7  N   UNL     1       3.637   3.524  17.807  0.00  0.00    +0.000 NA
ATOM      8  C   UNL     1       2.301   4.123  17.579  0.00  0.00    +0.000 C 
ATOM      9  C   UNL     1       1.271   3.762  18.652  0.00  0.00    +0.000 C 
ATOM     10  C   UNL     1       1.153   2.255  18.813  0.00  0.00    +0.000 C 
ATOM     11  C   UNL     1       2.525   1.679  19.103  0.00  0.00    +0.000 C 
ATOM     12  C   UNL     1       3.535   2.076  18.028  0.00  0.00    +0.000 C 
ENDBRANCH   6   7
ENDBRANCH   3   6
ENDBRANCH   1   3
BRANCH   1  14
ATOM     13  C   UNL     1       3.174   7.396  17.237  0.00  0.00    +0.000 C 
ATOM     14  C   UNL     1       4.420   6.984  17.504  0.00  0.00    +0.000 C 
BRANCH  13  18
ATOM     15  C   UNL     1       0.769   9.523  20.071  0.00  0.00    +0.000 A 
ATOM     16  C   UNL     1       0.922   9.990  18.765  0.00  0.00    +0.000 A 
ATOM     17  C   UNL     1       1.697   9.284  17.842  0.00  0.00    +0.000 A 
ATOM     18  C   UNL     1       2.346   8.104  18.222  0.00  0.00    +0.000 A 
ATOM     19  C   UNL     1       2.174   7.633  19.530  0.00  0.00    +0.000 A 
ATOM     20  C   UNL     1       1.402   8.343  20.455  0.00  0.00    +0.000 A 
BRANCH  15  22
ATOM     21  C   UNL     1       0.513  11.603  21.158  0.00  0.00    +0.000 C 
ATOM     22  O   UNL     1       0.000  10.304  20.889  0.00  0.00    +0.000 OA
ENDBRANCH  15  22
ENDBRANCH  13  18
ENDBRANCH   1  14
TORSDOF 6
ENDMDL
MODEL 2
REMARK VINA RESULT:      -7.2      5.119      6.118
REMARK  Name = 
REMARK  9 active torsions:
REMARK  status: ('A' for Active; 'I' for Inactive)
REMARK    1  A    between atoms: C_1  and  O_2
REMARK    2  A    between atoms: O_2  and  C_3
REMARK    3  A    between atoms: C_6  and  C_7
REMARK    4  A    between atoms: C_8  and  C_9
REMARK    5  A    between atoms: C_9  and  C_11
REMARK    6  A    between atoms: C_11  and  C_12
REMARK    7  A    between atoms: C_11  and  C_13
REMARK    8  A    between atoms: C_11  and  C_14
REMARK    9  A    between atoms: C_14  and  N_15
REMARK                            x       y       z     vdW  Elec       q    Type
REMARK                         _______ _______ _______ _____ _____    ______ ____
ROOT
ATOM      1  C   UNL     1       7.122   6.954  17.381  0.00  0.00    +0.000 C 
ATOM      2  O   UNL     1       6.479   7.253  16.374  0.00  0.00    +0.000 OA
ENDROOT
BRANCH   1   3
ATOM      3  C   UNL     1       6.930   5.602  18.121  0.00  0.00    +0.000 C 
ATOM      4  C   UNL     1       7.797   4.571  17.362  0.00  0.00    +0.000 C 
ATOM      5  C   UNL     1       7.442   5.694  19.568  0.00  0.00    +0.000 C 
BRANCH   3   6
ATOM      6  C   UNL     1       5.399   5.283  18.066  0.00  0.00    +0.000 C 
BRANCH   6   7
ATOM      7  N   UNL     1       4.698   4.669  19.228  0.00  0.00    +0.000 NA
ATOM      8  C   UNL     1       3.486   5.467  19.525  0.00  0.00    +0.000 C 
ATOM      9  C   UNL     1       2.623   4.885  20.648  0.00  0.00    +0.000 C 
ATOM     10  C   UNL     1       2.247   3.441  20.357  0.00  0.00    +0.000 C 
ATOM     11  C   UNL     1       3.512   2.639  20.117  0.00  0.00    +0.000 C 
ATOM     12  C   UNL     1       4.361   3.258  19.008  0.00  0.00    +0.000 C 
ENDBRANCH   6   7
ENDBRANCH   3   6
ENDBRANCH   1   3
BRANCH   1  14
ATOM     13  C   UNL     1       7.872   9.266  17.805  0.00  0.00    +0.000 C 
ATOM     14  C   UNL     1       8.067   7.949  17.956  0.00  0.00    +0.000 C 
BRANCH  13  18
ATOM     15  C   UNL     1      10.506  12.169  19.529  0.00  0.00    +0.000 A 
ATOM     16  C   UNL     1      10.195  10.989  20.206  0.00  0.00    +0.000 A 
ATOM     17  C   UNL     1       9.346  10.041  19.632  0.00  0.00    +0.000 A 
ATOM     18  C   UNL     1       8.780  10.270  18.373  0.00  0.00    +0.000 A 
ATOM     19  C   UNL     1       9.110  11.450  17.692  0.00  0.00    +0.000 A 
ATOM     20  C   UNL     1       9.956  12.402  18.270  0.00  0.00    +0.000 A 
BRANCH  15  22
ATOM     21  C   UNL     1      11.706  14.202  19.481  0.00  0.00    +0.000 C 
ATOM     22  O   UNL     1      11.334  13.029  20.195  0.00  0.00    +0.000 OA
ENDBRANCH  15  22
ENDBRANCH  13  18
ENDBRANCH   1  14
TORSDOF 6
ENDMDL
MODEL 3
REMARK VINA RESULT:      -7.1      1.139      1.207
REMARK  Name = 
REMARK  9 active torsions:
REMARK  status: ('A' for Active; 'I' for Inactive)
REMARK    1  A    between atoms: C_1  and  O_2
REMARK    2  A    between atoms: O_2  and  C_3
REMARK    3  A    between atoms: C_6  and  C_7
REMARK    4  A    between atoms: C_8  and  C_9
REMARK    5  A    between atoms: C_9  and  C_11
REMARK    6  A    between atoms: C_11  and  C_12
REMARK    7  A    between atoms: C_11  and  C_13
REMARK    8  A    between atoms: C_11  and  C_14
REMARK    9  A    between atoms: C_14  and  N_15
REMARK                            x       y       z     vdW  Elec       q    Type
REMARK                         _______ _______ _______ _____ _____    ______ ____
ROOT
ATOM      1  C   UNL     1       4.642   6.133  17.019  0.00  0.00    +0.000 C 
ATOM      2  O   UNL     1       4.906   6.644  15.930  0.00  0.00    +0.000 OA
ENDROOT
BRANCH   1   3
ATOM      3  C   UNL     1       5.094   4.696  17.396  0.00  0.00    +0.000 C 
ATOM      4  C   UNL     1       5.828   4.138  16.155  0.00  0.00    +0.000 C 
ATOM      5  C   UNL     1       6.085   4.727  18.572  0.00  0.00    +0.000 C 
BRANCH   3   6
ATOM      6  C   UNL     1       3.793   3.904  17.755  0.00  0.00    +0.000 C 
BRANCH   6   7
ATOM      7  N   UNL     1       3.224   3.940  19.130  0.00  0.00    +0.000 NA
ATOM      8  C   UNL     1       1.776   4.235  19.035  0.00  0.00    +0.000 C 
ATOM      9  C   UNL     1       1.051   4.209  20.384  0.00  0.00    +0.000 C 
ATOM     10  C   UNL     1       1.275   2.888  21.101  0.00  0.00    +0.000 C 
ATOM     11  C   UNL     1       2.766   2.644  21.235  0.00  0.00    +0.000 C 
ATOM     12  C   UNL     1       3.463   2.699  19.877  0.00  0.00    +0.000 C 
ENDBRANCH   6   7
ENDBRANCH   3   6
ENDBRANCH   1   3
BRANCH   1  14
ATOM     13  C   UNL     1       2.800   7.679  17.570  0.00  0.00    +0.000 C 
ATOM     14  C   UNL     1       3.798   6.888  17.985  0.00  0.00    +0.000 C 
BRANCH  13  18
ATOM     15  C   UNL     1       0.303   9.913  20.237  0.00  0.00    +0.000 A 
ATOM     16  C   UNL     1       0.398  10.253  18.888  0.00  0.00    +0.000 A 
ATOM     17  C   UNL     1       1.204   9.512  18.021  0.00  0.00    +0.000 A 
ATOM     18  C   UNL     1       1.943   8.425  18.500  0.00  0.00    +0.000 A 
ATOM     19  C   UNL     1       1.830   8.079  19.853  0.00  0.00    +0.000 A 
ATOM     20  C   UNL     1       1.026   8.825  20.722  0.00  0.00    +0.000 A 
BRANCH  15  22
ATOM     21  C   UNL     1       0.057  11.970  21.369  0.00  0.00    +0.000 C 
ATOM     22  O   UNL     1      -0.503  10.719  20.992  0.00  0.00    +0.000 OA
ENDBRANCH  15  22
ENDBRANCH  13  18
ENDBRANCH   1  14
TORSDOF 6
ENDMDL
MODEL 4
REMARK VINA RESULT:      -7.1      0.856      1.336
REMARK  Name = 
REMARK  9 active torsions:
REMARK  status: ('A' for Active; 'I' for Inactive)
REMARK    1  A    between atoms: C_1  and  O_2
REMARK    2  A    between atoms: O_2  and  C_3
REMARK    3  A    between atoms: C_6  and  C_7
REMARK    4  A    between atoms: C_8  and  C_9
REMARK    5  A    between atoms: C_9  and  C_11
REMARK    6  A    between atoms: C_11  and  C_12
REMARK    7  A    between atoms: C_11  and  C_13
REMARK    8  A    between atoms: C_11  and  C_14
REMARK    9  A    between atoms: C_14  and  N_15
REMARK                            x       y       z     vdW  Elec       q    Type
REMARK                         _______ _______ _______ _____ _____    ______ ____
ROOT
ATOM      1  C   UNL     1       5.174   6.083  16.590  0.00  0.00    +0.000 C 
ATOM      2  O   UNL     1       5.136   6.292  15.377  0.00  0.00    +0.000 OA
ENDROOT
BRANCH   1   3
ATOM      3  C   UNL     1       5.898   4.853  17.201  0.00  0.00    +0.000 C 
ATOM      4  C   UNL     1       7.090   4.548  16.265  0.00  0.00    +0.000 C 
ATOM      5  C   UNL     1       6.452   5.184  18.598  0.00  0.00    +0.000 C 
BRANCH   3   6
ATOM      6  C   UNL     1       4.841   3.701  17.254  0.00  0.00    +0.000 C 
BRANCH   6   7
ATOM      7  N   UNL     1       3.686   3.758  18.192  0.00  0.00    +0.000 NA
ATOM      8  C   UNL     1       2.453   3.416  17.445  0.00  0.00    +0.000 C 
ATOM      9  C   UNL     1       1.199   3.350  18.321  0.00  0.00    +0.000 C 
ATOM     10  C   UNL     1       1.393   2.392  19.485  0.00  0.00    +0.000 C 
ATOM     11  C   UNL     1       2.628   2.803  20.263  0.00  0.00    +0.000 C 
ATOM     12  C   UNL     1       3.856   2.883  19.358  0.00  0.00    +0.000 C 
ENDBRANCH   6   7
ENDBRANCH   3   6
ENDBRANCH   1   3
BRANCH   1  14
ATOM     13  C   UNL     1       3.111   6.933  17.642  0.00  0.00    +0.000 C 
ATOM     14  C   UNL     1       4.442   7.001  17.504  0.00  0.00    +0.000 C 
BRANCH  13  18
ATOM     15  C   UNL     1       0.913   9.451  20.320  0.00  0.00    +0.000 A 
ATOM     16  C   UNL     1       1.429   8.226  20.746  0.00  0.00    +0.000 A 
ATOM     17  C   UNL     1       2.156   7.416  19.870  0.00  0.00    +0.000 A 
ATOM     18  C   UNL     1       2.363   7.817  18.545  0.00  0.00    +0.000 A 
ATOM     19  C   UNL     1       1.857   9.055  18.130  0.00  0.00    +0.000 A 
ATOM     20  C   UNL     1       1.124   9.864  19.006  0.00  0.00    +0.000 A 
BRANCH  15  22
ATOM     21  C   UNL     1       0.029   9.496  22.508  0.00  0.00    +0.000 C 
ATOM     22  O   UNL     1       0.206  10.150  21.258  0.00  0.00    +0.000 OA
ENDBRANCH  15  22
ENDBRANCH  13  18
ENDBRANCH   1  14
TORSDOF 6
ENDMDL
MODEL 5
REMARK VINA RESULT:      -7.1      1.016      1.444
REMARK  Name = 
REMARK  9 active torsions:
REMARK  status: ('A' for Active; 'I' for Inactive)
REMARK    1  A    between atoms: C_1  and  O_2
REMARK    2  A    between atoms: O_2  and  C_3
REMARK    3  A    between atoms: C_6  and  C_7
REMARK    4  A    between atoms: C_8  and  C_9
REMARK    5  A    between atoms: C_9  and  C_11
REMARK    6  A    between atoms: C_11  and  C_12
REMARK    7  A    between atoms: C_11  and  C_13
REMARK    8  A    between atoms: C_11  and  C_14
REMARK    9  A    between atoms: C_14  and  N_15
REMARK                            x       y       z     vdW  Elec       q    Type
REMARK                         _______ _______ _______ _____ _____    ______ ____
ROOT
ATOM      1  C   UNL     1       5.105   6.210  16.839  0.00  0.00    +0.000 C 
ATOM      2  O   UNL     1       5.216   6.369  15.622  0.00  0.00    +0.000 OA
ENDROOT
BRANCH   1   3
ATOM      3  C   UNL     1       5.676   4.966  17.571  0.00  0.00    +0.000 C 
ATOM      4  C   UNL     1       6.813   4.424  16.674  0.00  0.00    +0.000 C 
ATOM      5  C   UNL     1       6.278   5.362  18.931  0.00  0.00    +0.000 C 
BRANCH   3   6
ATOM      6  C   UNL     1       4.485   3.965  17.734  0.00  0.00    +0.000 C 
BRANCH   6   7
ATOM      7  N   UNL     1       3.633   3.973  18.956  0.00  0.00    +0.000 NA
ATOM      8  C   UNL     1       2.215   4.088  18.543  0.00  0.00    +0.000 C 
ATOM      9  C   UNL     1       1.225   4.016  19.709  0.00  0.00    +0.000 C 
ATOM     10  C   UNL     1       1.435   2.754  20.529  0.00  0.00    +0.000 C 
ATOM     11  C   UNL     1       2.880   2.696  20.986  0.00  0.00    +0.000 C 
ATOM     12  C   UNL     1       3.842   2.794  19.803  0.00  0.00    +0.000 C 
ENDBRANCH   6   7
ENDBRANCH   3   6
ENDBRANCH   1   3
BRANCH   1  14
ATOM     13  C   UNL     1       2.996   7.214  17.633  0.00  0.00    +0.000 C 
ATOM     14  C   UNL     1       4.336   7.208  17.629  0.00  0.00    +0.000 C 
BRANCH  13  18
ATOM     15  C   UNL     1       0.686   9.970  19.958  0.00  0.00    +0.000 A 
ATOM     16  C   UNL     1       1.140   8.772  20.508  0.00  0.00    +0.000 A 
ATOM     17  C   UNL     1       1.905   7.884  19.747  0.00  0.00    +0.000 A 
ATOM     18  C   UNL     1       2.211   8.178  18.414  0.00  0.00    +0.000 A 
ATOM     19  C   UNL     1       1.765   9.391  17.874  0.00  0.00    +0.000 A 
ATOM     20  C   UNL     1       0.995  10.278  18.634  0.00  0.00    +0.000 A 
BRANCH  15  22
ATOM     21  C   UNL     1      -0.751  11.832  20.167  0.00  0.00    +0.000 C 
ATOM     22  O   UNL     1      -0.066  10.753  20.790  0.00  0.00    +0.000 OA
ENDBRANCH  15  22
ENDBRANCH  13  18
ENDBRANCH   1  14
TORSDOF 6
ENDMDL
MODEL 6
REMARK VINA RESULT:      -6.9      4.436      5.467
REMARK  Name = 
REMARK  9 active torsions:
REMARK  status: ('A' for Active; 'I' for Inactive)
REMARK    1  A    between atoms: C_1  and  O_2
REMARK    2  A    between atoms: O_2  and  C_3
REMARK    3  A    between atoms: C_6  and  C_7
REMARK    4  A    between atoms: C_8  and  C_9
REMARK    5  A    between atoms: C_9  and  C_11
REMARK    6  A    between atoms: C_11  and  C_12
REMARK    7  A    between atoms: C_11  and  C_13
REMARK    8  A    between atoms: C_11  and  C_14
REMARK    9  A    between atoms: C_14  and  N_15
REMARK                            x       y       z     vdW  Elec       q    Type
REMARK                         _______ _______ _______ _____ _____    ______ ____
ROOT
ATOM      1  C   UNL     1       6.971   6.193  17.334  0.00  0.00    +0.000 C 
ATOM      2  O   UNL     1       7.846   5.355  17.558  0.00  0.00    +0.000 OA
ENDROOT
BRANCH   1   3
ATOM      3  C   UNL     1       5.545   5.800  16.862  0.00  0.00    +0.000 C 
ATOM      4  C   UNL     1       4.596   6.888  17.416  0.00  0.00    +0.000 C 
ATOM      5  C   UNL     1       5.455   5.816  15.326  0.00  0.00    +0.000 C 
BRANCH   3   6
ATOM      6  C   UNL     1       5.263   4.376  17.445  0.00  0.00    +0.000 C 
BRANCH   6   7
ATOM      7  N   UNL     1       4.044   4.104  18.257  0.00  0.00    +0.000 NA
ATOM      8  C   UNL     1       2.976   3.612  17.355  0.00  0.00    +0.000 C 
ATOM      9  C   UNL     1       1.692   3.207  18.083  0.00  0.00    +0.000 C 
ATOM     10  C   UNL     1       1.978   2.183  19.170  0.00  0.00    +0.000 C 
ATOM     11  C   UNL     1       3.030   2.740  20.109  0.00  0.00    +0.000 C 
ATOM     12  C   UNL     1       4.289   3.156  19.351  0.00  0.00    +0.000 C 
ENDBRANCH   6   7
ENDBRANCH   3   6
ENDBRANCH   1   3
BRANCH   1  14
ATOM     13  C   UNL     1       8.234   8.072  18.315  0.00  0.00    +0.000 C 
ATOM     14  C   UNL     1       7.308   7.637  17.449  0.00  0.00    +0.000 C 
BRANCH  13  18
ATOM     15  C   UNL     1       9.305  12.194  18.754  0.00  0.00    +0.000 A 
ATOM     16  C   UNL     1       9.749  11.236  19.665  0.00  0.00    +0.000 A 
ATOM     17  C   UNL     1       9.407   9.891  19.508  0.00  0.00    +0.000 A 
ATOM     18  C   UNL     1       8.596   9.489  18.440  0.00  0.00    +0.000 A 
ATOM     19  C   UNL     1       8.168  10.455  17.520  0.00  0.00    +0.000 A 
ATOM     20  C   UNL     1       8.507  11.802  17.681  0.00  0.00    +0.000 A 
BRANCH  15  22
ATOM     21  C   UNL     1       8.648  14.448  19.006  0.00  0.00    +0.000 C 
ATOM     22  O   UNL     1       9.689  13.480  19.017  0.00  0.00    +0.000 OA
ENDBRANCH  15  22
ENDBRANCH  13  18
ENDBRANCH   1  14
TORSDOF 6
ENDMDL
MODEL 7
REMARK VINA RESULT:      -6.9      1.141      1.218
REMARK  Name = 
REMARK  9 active torsions:
REMARK  status: ('A' for Active; 'I' for Inactive)
REMARK    1  A    between atoms: C_1  and  O_2
REMARK    2  A    between atoms: O_2  and  C_3
REMARK    3  A    between atoms: C_6  and  C_7
REMARK    4  A    between atoms: C_8  and  C_9
REMARK    5  A    between atoms: C_9  and  C_11
REMARK    6  A    between atoms: C_11  and  C_12
REMARK    7  A    between atoms: C_11  and  C_13
REMARK    8  A    between atoms: C_11  and  C_14
REMARK    9  A    between atoms: C_14  and  N_15
REMARK                            x       y       z     vdW  Elec       q    Type
REMARK                         _______ _______ _______ _____ _____    ______ ____
ROOT
ATOM      1  C   UNL     1       5.120   5.859  16.996  0.00  0.00    +0.000 C 
ATOM      2  O   UNL     1       5.040   5.735  15.773  0.00  0.00    +0.000 OA
ENDROOT
BRANCH   1   3
ATOM      3  C   UNL     1       5.927   4.870  17.881  0.00  0.00    +0.000 C 
ATOM      4  C   UNL     1       7.172   4.473  17.055  0.00  0.00    +0.000 C 
ATOM      5  C   UNL     1       6.402   5.558  19.173  0.00  0.00    +0.000 C 
BRANCH   3   6
ATOM      6  C   UNL     1       4.973   3.667  18.182  0.00  0.00    +0.000 C 
BRANCH   6   7
ATOM      7  N   UNL     1       3.584   3.890  18.672  0.00  0.00    +0.000 NA
ATOM      8  C   UNL     1       2.652   3.116  17.819  0.00  0.00    +0.000 C 
ATOM      9  C   UNL     1       1.193   3.187  18.277  0.00  0.00    +0.000 C 
ATOM     10  C   UNL     1       1.054   2.764  19.731  0.00  0.00    +0.000 C 
ATOM     11  C   UNL     1       1.975   3.614  20.584  0.00  0.00    +0.000 C 
ATOM     12  C   UNL     1       3.418   3.540  20.088  0.00  0.00    +0.000 C 
ENDBRANCH   6   7
ENDBRANCH   3   6
ENDBRANCH   1   3
BRANCH   1  14
ATOM     13  C   UNL     1       3.043   6.848  17.887  0.00  0.00    +0.000 C 
ATOM     14  C   UNL     1       4.360   6.950  17.662  0.00  0.00    +0.000 C 
BRANCH  13  18
ATOM     15  C   UNL     1       0.812   9.974  19.781  0.00  0.00    +0.000 A 
ATOM     16  C   UNL     1       1.169  10.060  18.435  0.00  0.00    +0.000 A 
ATOM     17  C   UNL     1       1.885   9.030  17.820  0.00  0.00    +0.000 A 
ATOM     18  C   UNL     1       2.270   7.903  18.554  0.00  0.00    +0.000 A 
ATOM     19  C   UNL     1       1.894   7.816  19.901  0.00  0.00    +0.000 A 
ATOM     20  C   UNL     1       1.181   8.849  20.517  0.00  0.00    +0.000 A 
BRANCH  15  22
ATOM     21  C   UNL     1      -0.779  11.671  19.376  0.00  0.00    +0.000 C 
ATOM     22  O   UNL     1       0.126  11.047  20.278  0.00  0.00    +0.000 OA
ENDBRANCH  15  22
ENDBRANCH  13  18
ENDBRANCH   1  14
TORSDOF 6
ENDMDL
MODEL 8
REMARK VINA RESULT:      -6.9      4.520      5.602
REMARK  Name = 
REMARK  9 active torsions:
REMARK  status: ('A' for Active; 'I' for Inactive)
REMARK    1  A    between atoms: C_1  and  O_2
REMARK    2  A    between atoms: O_2  and  C_3
REMARK    3  A    between atoms: C_6  and  C_7
REMARK    4  A    between atoms: C_8  and  C_9
REMARK    5  A    between atoms: C_9  and  C_11
REMARK    6  A    between atoms: C_11  and  C_12
REMARK    7  A    between atoms: C_11  and  C_13
REMARK    8  A    between atoms: C_11  and  C_14
REMARK    9  A    between atoms: C_14  and  N_15
REMARK                            x       y       z     vdW  Elec       q    Type
REMARK                         _______ _______ _______ _____ _____    ______ ____
ROOT
ATOM      1  C   UNL     1       7.007   6.451  17.222  0.00  0.00    +0.000 C 
ATOM      2  O   UNL     1       7.859   5.570  17.344  0.00  0.00    +0.000 OA
ENDROOT
BRANCH   1   3
ATOM      3  C   UNL     1       5.538   6.138  16.828  0.00  0.00    +0.000 C 
ATOM      4  C   UNL     1       4.753   7.457  17.017  0.00  0.00    +0.000 C 
ATOM      5  C   UNL     1       5.445   5.728  15.348  0.00  0.00    +0.000 C 
BRANCH   3   6
ATOM      6  C   UNL     1       5.060   4.991  17.779  0.00  0.00    +0.000 C 
BRANCH   6   7
ATOM      7  N   UNL     1       3.808   4.234  17.503  0.00  0.00    +0.000 NA
ATOM      8  C   UNL     1       3.951   2.867  18.055  0.00  0.00    +0.000 C 
ATOM      9  C   UNL     1       2.690   2.010  17.916  0.00  0.00    +0.000 C 
ATOM     10  C   UNL     1       1.486   2.704  18.532  0.00  0.00    +0.000 C 
ATOM     11  C   UNL     1       1.331   4.076  17.905  0.00  0.00    +0.000 C 
ATOM     12  C   UNL     1       2.613   4.897  18.038  0.00  0.00    +0.000 C 
ENDBRANCH   6   7
ENDBRANCH   3   6
ENDBRANCH   1   3
BRANCH   1  14
ATOM     13  C   UNL     1       8.253   8.253  18.356  0.00  0.00    +0.000 C 
ATOM     14  C   UNL     1       7.410   7.873  17.386  0.00  0.00    +0.000 C 
BRANCH  13  18
ATOM     15  C   UNL     1       9.481  12.331  18.801  0.00  0.00    +0.000 A 
ATOM     16  C   UNL     1       8.618  11.949  17.774  0.00  0.00    +0.000 A 
ATOM     17  C   UNL     1       8.211  10.618  17.643  0.00  0.00    +0.000 A 
ATOM     18  C   UNL     1       8.679   9.646  18.533  0.00  0.00    +0.000 A 
ATOM     19  C   UNL     1       9.532  10.041  19.573  0.00  0.00    +0.000 A 
ATOM     20  C   UNL     1       9.943  11.372  19.700  0.00  0.00    +0.000 A 
BRANCH  15  22
ATOM     21  C   UNL     1       8.962  14.523  18.094  0.00  0.00    +0.000 C 
ATOM     22  O   UNL     1       9.822  13.655  18.822  0.00  0.00    +0.000 OA
ENDBRANCH  15  22
ENDBRANCH  13  18
ENDBRANCH   1  14
TORSDOF 6
ENDMDL
MODEL 9
REMARK VINA RESULT:      -6.9      2.626      6.874
REMARK  Name = 
REMARK  9 active torsions:
REMARK  status: ('A' for Active; 'I' for Inactive)
REMARK    1  A    between atoms: C_1  and  O_2
REMARK    2  A    between atoms: O_2  and  C_3
REMARK    3  A    between atoms: C_6  and  C_7
REMARK    4  A    between atoms: C_8  and  C_9
REMARK    5  A    between atoms: C_9  and  C_11
REMARK    6  A    between atoms: C_11  and  C_12
REMARK    7  A    between atoms: C_11  and  C_13
REMARK    8  A    between atoms: C_11  and  C_14
REMARK    9  A    between atoms: C_14  and  N_15
REMARK                            x       y       z     vdW  Elec       q    Type
REMARK                         _______ _______ _______ _____ _____    ______ ____
ROOT
ATOM      1  C   UNL     1       2.971   2.714  19.276  0.00  0.00    +0.000 C 
ATOM      2  O   UNL     1       2.644   1.549  19.047  0.00  0.00    +0.000 OA
ENDROOT
BRANCH   1   3
ATOM      3  C   UNL     1       2.210   3.607  20.292  0.00  0.00    +0.000 C 
ATOM      4  C   UNL     1       0.721   3.557  19.877  0.00  0.00    +0.000 C 
ATOM      5  C   UNL     1       2.334   3.041  21.717  0.00  0.00    +0.000 C 
BRANCH   3   6
ATOM      6  C   UNL     1       2.836   5.037  20.179  0.00  0.00    +0.000 C 
BRANCH   6   7
ATOM      7  N   UNL     1       2.073   6.167  19.580  0.00  0.00    +0.000 NA
ATOM      8  C   UNL     1       1.892   7.215  20.612  0.00  0.00    +0.000 C 
ATOM      9  C   UNL     1       1.198   8.477  20.094  0.00  0.00    +0.000 C 
ATOM     10  C   UNL     1       1.924   9.045  18.886  0.00  0.00    +0.000 C 
ATOM     11  C   UNL     1       2.041   7.967  17.826  0.00  0.00    +0.000 C 
ATOM     12  C   UNL     1       2.716   6.713  18.379  0.00  0.00    +0.000 C 
ENDBRANCH   6   7
ENDBRANCH   3   6
ENDBRANCH   1   3
BRANCH   1  14
ATOM     13  C   UNL     1       4.027   3.446  17.170  0.00  0.00    +0.000 C 
ATOM     14  C   UNL     1       4.090   3.315  18.502  0.00  0.00    +0.000 C 
BRANCH  13  18
ATOM     15  C   UNL     1       7.178   5.145  14.820  0.00  0.00    +0.000 A 
ATOM     16  C   UNL     1       6.218   4.315  14.241  0.00  0.00    +0.000 A 
ATOM     17  C   UNL     1       5.185   3.775  15.012  0.00  0.00    +0.000 A 
ATOM     18  C   UNL     1       5.110   4.047  16.382  0.00  0.00    +0.000 A 
ATOM     19  C   UNL     1       6.068   4.895  16.952  0.00  0.00    +0.000 A 
ATOM     20  C   UNL     1       7.105   5.432  16.182  0.00  0.00    +0.000 A 
BRANCH  15  22
ATOM     21  C   UNL     1       7.959   5.297  12.597  0.00  0.00    +0.000 C 
ATOM     22  O   UNL     1       8.149   5.603  13.973  0.00  0.00    +0.000 OA
ENDBRANCH  15  22
ENDBRANCH  13  18
ENDBRANCH   1  14
TORSDOF 6
ENDMDL
