MODEL 1
REMARK VINA RESULT:      -7.1      0.000      0.000
REMARK  Name = 
REMARK  9 active torsions:
REMARK  status: ('A' for Active; 'I' for Inactive)
REMARK    1  A    between atoms: C_1  and  C_2
REMARK    2  A    between atoms: C_2  and  O_3
REMARK    3  A    between atoms: O_3  and  C_4
REMARK    4  A    between atoms: C_7  and  C_8
REMARK    5  A    between atoms: C_8  and  S_9
REMARK    6  A    between atoms: N_10  and  C_11
REMARK    7  A    between atoms: C_18  and  O_19
REMARK    8  A    between atoms: O_19  and  C_20
REMARK    9  A    between atoms: C_20  and  C_21
REMARK                            x       y       z     vdW  Elec       q    Type
REMARK                         _______ _______ _______ _____ _____    ______ ____
ROOT
ATOM      1  C   UNL     1       6.656   5.185  15.617  0.00  0.00    +0.000 A 
ATOM      2  C   UNL     1       5.646   4.211  15.609  0.00  0.00    +0.000 A 
ATOM      3  C   UNL     1       4.470   4.378  16.340  0.00  0.00    +0.000 A 
ATOM      4  C   UNL     1       4.287   5.511  17.143  0.00  0.00    +0.000 A 
ATOM      5  C   UNL     1       5.322   6.465  17.191  0.00  0.00    +0.000 A 
ATOM      6  C   UNL     1       6.511   6.308  16.459  0.00  0.00    +0.000 A 
ENDROOT
BRANCH   4   7
ATOM      7  C   UNL     1       3.121   5.646  18.073  0.00  0.00    +0.000 C 
ATOM      8  N   UNL     1       2.589   4.583  18.565  0.00  0.00    +0.000 NA
BRANCH   8   9
ATOM      9  C   UNL     1       1.329   4.535  19.321  0.00  0.00    +0.000 C 
ATOM     10  C   UNL     1       0.844   3.076  19.259  0.00  0.00    +0.000 C 
ATOM     11  C   UNL     1       1.775   2.114  20.004  0.00  0.00    +0.000 C 
ATOM     12  C   UNL     1       2.021   2.549  21.445  0.00  0.00    +0.000 C 
ATOM     13  C   UNL     1       2.467   4.006  21.538  0.00  0.00    +0.000 C 
ATOM     14  C   UNL     1       1.512   4.936  20.796  0.00  0.00    +0.000 C 
ENDBRANCH   8   9
BRANCH   7  15
ATOM     15  S   UNL     1       2.538   7.272  18.404  0.00  0.00    +0.000 S 
ATOM     16  H   UNL     1       3.565   7.632  19.186  0.00  0.00    +0.000 HD
ENDBRANCH   7  15
ENDBRANCH   4   7
BRANCH   1  17
ATOM     17  O   UNL     1       7.771   5.070  14.828  0.00  0.00    +0.000 OA
BRANCH  17  19
ATOM     18  C   UNL     1       8.349   5.833  12.628  0.00  0.00    +0.000 C 
ATOM     19  C   UNL     1       7.537   4.839  13.435  0.00  0.00    +0.000 C 
ENDBRANCH  17  19
ENDBRANCH   1  17
BRANCH   6  20
ATOM     20  O   UNL     1       7.416   7.325  16.660  0.00  0.00    +0.000 OA
BRANCH  20  21
ATOM     21  C   UNL     1       7.801   7.580  18.010  0.00  0.00    +0.000 C 
ATOM     22  C   UNL     1       8.332   8.999  18.157  0.00  0.00    +0.000 C 
ENDBRANCH  20  21
ENDBRANCH   6  20
TORSDOF 7
ENDMDL
MODEL 2
REMARK VINA RESULT:      -6.9      0.627      1.029
REMARK  Name = 
REMARK  9 active torsions:
REMARK  status: ('A' for Active; 'I' for Inactive)
REMARK    1  A    between atoms: C_1  and  C_2
REMARK    2  A    between atoms: C_2  and  O_3
REMARK    3  A    between atoms: O_3  and  C_4
REMARK    4  A    between atoms: C_7  and  C_8
REMARK    5  A    between atoms: C_8  and  S_9
REMARK    6  A    between atoms: N_10  and  C_11
REMARK    7  A    between atoms: C_18  and  O_19
REMARK    8  A    between atoms: O_19  and  C_20
REMARK    9  A    between atoms: C_20  and  C_21
REMARK                            x       y       z     vdW  Elec       q    Type
REMARK                         _______ _______ _______ _____ _____    ______ ____
ROOT
ATOM      1  C   UNL     1       6.565   4.948  15.779  0.00  0.00    +0.000 A 
ATOM      2  C   UNL     1       5.438   4.120  15.900  0.00  0.00    +0.000 A 
ATOM      3  C   UNL     1       4.389   4.444  16.760  0.00  0.00    +0.000 A 
ATOM      4  C   UNL     1       4.455   5.588  17.565  0.00  0.00    +0.000 A 
ATOM      5  C   UNL     1       5.608   6.393  17.481  0.00  0.00    +0.000 A 
ATOM      6  C   UNL     1       6.671   6.078  16.618  0.00  0.00    +0.000 A 
ENDROOT
BRANCH   4   7
ATOM      7  C   UNL     1       3.434   5.878  18.622  0.00  0.00    +0.000 C 
ATOM      8  N   UNL     1       3.237   5.012  19.552  0.00  0.00    +0.000 NA
BRANCH   8   9
ATOM      9  C   UNL     1       2.144   5.053  20.534  0.00  0.00    +0.000 C 
ATOM     10  C   UNL     1       0.898   4.507  19.815  0.00  0.00    +0.000 C 
ATOM     11  C   UNL     1       1.030   3.025  19.451  0.00  0.00    +0.000 C 
ATOM     12  C   UNL     1       1.387   2.164  20.659  0.00  0.00    +0.000 C 
ATOM     13  C   UNL     1       2.599   2.706  21.413  0.00  0.00    +0.000 C 
ATOM     14  C   UNL     1       2.428   4.179  21.769  0.00  0.00    +0.000 C 
ENDBRANCH   8   9
BRANCH   7  15
ATOM     15  S   UNL     1       2.544   7.389  18.491  0.00  0.00    +0.000 S 
ATOM     16  H   UNL     1       3.397   7.980  17.641  0.00  0.00    +0.000 HD
ENDBRANCH   7  15
ENDBRANCH   4   7
BRANCH   1  17
ATOM     17  O   UNL     1       7.554   4.686  14.868  0.00  0.00    +0.000 OA
BRANCH  17  19
ATOM     18  C   UNL     1       6.673   3.830  12.808  0.00  0.00    +0.000 C 
ATOM     19  C   UNL     1       7.270   5.034  13.509  0.00  0.00    +0.000 C 
ENDBRANCH  17  19
ENDBRANCH   1  17
BRANCH   6  20
ATOM     20  O   UNL     1       7.723   6.962  16.700  0.00  0.00    +0.000 OA
BRANCH  20  21
ATOM     21  C   UNL     1       7.966   7.550  17.977  0.00  0.00    +0.000 C 
ATOM     22  C   UNL     1       8.102   9.060  17.854  0.00  0.00    +0.000 C 
ENDBRANCH  20  21
ENDBRANCH   6  20
TORSDOF 7
ENDMDL
MODEL 3
REMARK VINA RESULT:      -6.6      4.550      6.844
REMARK  Name = 
REMARK  9 active torsions:
REMARK  status: ('A' for Active; 'I' for Inactive)
REMARK    1  A    between atoms: C_1  and  C_2
REMARK    2  A    between atoms: C_2  and  O_3
REMARK    3  A    between atoms: O_3  and  C_4
REMARK    4  A    between atoms: C_7  and  C_8
REMARK    5  A    between atoms: C_8  and  S_9
REMARK    6  A    between atoms: N_10  and  C_11
REMARK    7  A    between atoms: C_18  and  O_19
REMARK    8  A    between atoms: O_19  and  C_20
REMARK    9  A    between atoms: C_20  and  C_21
REMARK                            x       y       z     vdW  Elec       q    Type
REMARK                         _______ _______ _______ _____ _____    ______ ____
ROOT
ATOM      1  C   UNL     1       1.104  10.121  19.495  0.00  0.00    +0.000 A 
ATOM      2  C   UNL     1       1.513   9.946  18.164  0.00  0.00    +0.000 A 
ATOM      3  C   UNL     1       2.024   8.728  17.715  0.00  0.00    +0.000 A 
ATOM      4  C   UNL     1       2.185   7.655  18.601  0.00  0.00    +0.000 A 
ATOM      5  C   UNL     1       1.821   7.845  19.949  0.00  0.00    +0.000 A 
ATOM      6  C   UNL     1       1.305   9.068  20.412  0.00  0.00    +0.000 A 
ENDROOT
BRANCH   4   7
ATOM      7  C   UNL     1       2.886   6.393  18.203  0.00  0.00    +0.000 C 
ATOM      8  N   UNL     1       2.340   5.262  18.480  0.00  0.00    +0.000 NA
BRANCH   8   9
ATOM      9  C   UNL     1       2.986   3.949  18.340  0.00  0.00    +0.000 C 
ATOM     10  C   UNL     1       3.600   3.623  19.712  0.00  0.00    +0.000 C 
ATOM     11  C   UNL     1       2.539   3.413  20.798  0.00  0.00    +0.000 C 
ATOM     12  C   UNL     1       1.503   2.367  20.397  0.00  0.00    +0.000 C 
ATOM     13  C   UNL     1       0.905   2.648  19.021  0.00  0.00    +0.000 C 
ATOM     14  C   UNL     1       1.988   2.839  17.964  0.00  0.00    +0.000 C 
ENDBRANCH   8   9
BRANCH   7  15
ATOM     15  S   UNL     1       4.444   6.554  17.402  0.00  0.00    +0.000 S 
ATOM     16  H   UNL     1       5.183   6.471  18.518  0.00  0.00    +0.000 HD
ENDBRANCH   7  15
ENDBRANCH   4   7
BRANCH   1  17
ATOM     17  O   UNL     1       0.514  11.284  19.918  0.00  0.00    +0.000 OA
BRANCH  17  19
ATOM     18  C   UNL     1      -1.772  11.507  19.228  0.00  0.00    +0.000 C 
ATOM     19  C   UNL     1      -0.341  11.937  18.976  0.00  0.00    +0.000 C 
ENDBRANCH  17  19
ENDBRANCH   1  17
BRANCH   6  20
ATOM     20  O   UNL     1       1.041   9.073  21.763  0.00  0.00    +0.000 OA
BRANCH  20  21
ATOM     21  C   UNL     1      -0.328   8.953  22.146  0.00  0.00    +0.000 C 
ATOM     22  C   UNL     1      -0.728  10.095  23.069  0.00  0.00    +0.000 C 
ENDBRANCH  20  21
ENDBRANCH   6  20
TORSDOF 7
ENDMDL
MODEL 4
REMARK VINA RESULT:      -6.5      4.590      6.704
REMARK  Name = 
REMARK  9 active torsions:
REMARK  status: ('A' for Active; 'I' for Inactive)
REMARK    1  A    between atoms: C_1  and  C_2
REMARK    2  A    between atoms: C_2  and  O_3
REMARK    3  A    between atoms: O_3  and  C_4
REMARK    4  A    between atoms: C_7  and  C_8
REMARK    5  A    between atoms: C_8  and  S_9
REMARK    6  A    between atoms: N_10  and  C_11
REMARK    7  A    between atoms: C_18  and  O_19
REMARK    8  A    between atoms: O_19  and  C_20
REMARK    9  A    between atoms: C_20  and  C_21
REMARK                            x       y       z     vdW  Elec       q    Type
REMARK                         _______ _______ _______ _____ _____    ______ ____
ROOT
ATOM      1  C   UNL     1       1.180  10.215  19.342  0.00  0.00    +0.000 A 
ATOM      2  C   UNL     1       1.599   9.957  18.027  0.00  0.00    +0.000 A 
ATOM      3  C   UNL     1       2.069   8.700  17.648  0.00  0.00    +0.000 A 
ATOM      4  C   UNL     1       2.179   7.668  18.588  0.00  0.00    +0.000 A 
ATOM      5  C   UNL     1       1.806   7.940  19.919  0.00  0.00    +0.000 A 
ATOM      6  C   UNL     1       1.331   9.202  20.313  0.00  0.00    +0.000 A 
ENDROOT
BRANCH   4   7
ATOM      7  C   UNL     1       2.837   6.363  18.263  0.00  0.00    +0.000 C 
ATOM      8  N   UNL     1       2.237   5.268  18.574  0.00  0.00    +0.000 NA
BRANCH   8   9
ATOM      9  C   UNL     1       2.831   3.925  18.509  0.00  0.00    +0.000 C 
ATOM     10  C   UNL     1       3.486   3.676  19.878  0.00  0.00    +0.000 C 
ATOM     11  C   UNL     1       2.461   3.586  21.014  0.00  0.00    +0.000 C 
ATOM     12  C   UNL     1       1.374   2.553  20.729  0.00  0.00    +0.000 C 
ATOM     13  C   UNL     1       0.734   2.755  19.358  0.00  0.00    +0.000 C 
ATOM     14  C   UNL     1       1.782   2.828  18.252  0.00  0.00    +0.000 C 
ENDBRANCH   8   9
BRANCH   7  15
ATOM     15  S   UNL     1       4.419   6.425  17.499  0.00  0.00    +0.000 S 
ATOM     16  H   UNL     1       4.885   7.450  18.227  0.00  0.00    +0.000 HD
ENDBRANCH   7  15
ENDBRANCH   4   7
BRANCH   1  17
ATOM     17  O   UNL     1       0.630  11.418  19.698  0.00  0.00    +0.000 OA
BRANCH  17  19
ATOM     18  C   UNL     1       1.983  13.155  20.649  0.00  0.00    +0.000 C 
ATOM     19  C   UNL     1       1.396  12.583  19.375  0.00  0.00    +0.000 C 
ENDBRANCH  17  19
ENDBRANCH   1  17
BRANCH   6  20
ATOM     20  O   UNL     1       1.050   9.286  21.659  0.00  0.00    +0.000 OA
BRANCH  20  21
ATOM     21  C   UNL     1      -0.305   9.061  22.044  0.00  0.00    +0.000 C 
ATOM     22  C   UNL     1      -0.729  10.055  23.116  0.00  0.00    +0.000 C 
ENDBRANCH  20  21
ENDBRANCH   6  20
TORSDOF 7
ENDMDL
MODEL 5
REMARK VINA RESULT:      -6.5      4.458      7.341
REMARK  Name = 
REMARK  9 active torsions:
REMARK  status: ('A' for Active; 'I' for Inactive)
REMARK    1  A    between atoms: C_1  and  C_2
REMARK    2  A    between atoms: C_2  and  O_3
REMARK    3  A    between atoms: O_3  and  C_4
REMARK    4  A    between atoms: C_7  and  C_8
REMARK    5  A    between atoms: C_8  and  S_9
REMARK    6  A    between atoms: N_10  and  C_11
REMARK    7  A    between atoms: C_18  and  O_19
REMARK    8  A    between atoms: O_19  and  C_20
REMARK    9  A    between atoms: C_20  and  C_21
REMARK                            x       y       z     vdW  Elec       q    Type
REMARK                         _______ _______ _______ _____ _____    ______ ____
ROOT
ATOM      1  C   UNL     1       1.077   9.979  18.953  0.00  0.00    +0.000 A 
ATOM      2  C   UNL     1       1.606   9.339  17.822  0.00  0.00    +0.000 A 
ATOM      3  C   UNL     1       2.182   8.072  17.907  0.00  0.00    +0.000 A 
ATOM      4  C   UNL     1       2.291   7.422  19.142  0.00  0.00    +0.000 A 
ATOM      5  C   UNL     1       1.806   8.085  20.287  0.00  0.00    +0.000 A 
ATOM      6  C   UNL     1       1.223   9.361  20.213  0.00  0.00    +0.000 A 
ENDROOT
BRANCH   4   7
ATOM      7  C   UNL     1       3.055   6.144  19.304  0.00  0.00    +0.000 C 
ATOM      8  N   UNL     1       4.172   6.002  18.682  0.00  0.00    +0.000 NA
BRANCH   8   9
ATOM      9  C   UNL     1       4.932   4.748  18.575  0.00  0.00    +0.000 C 
ATOM     10  C   UNL     1       4.613   4.167  17.187  0.00  0.00    +0.000 C 
ATOM     11  C   UNL     1       5.149   5.038  16.046  0.00  0.00    +0.000 C 
ATOM     12  C   UNL     1       6.641   5.324  16.191  0.00  0.00    +0.000 C 
ATOM     13  C   UNL     1       6.990   5.866  17.575  0.00  0.00    +0.000 C 
ATOM     14  C   UNL     1       6.451   4.969  18.685  0.00  0.00    +0.000 C 
ENDBRANCH   8   9
BRANCH   7  15
ATOM     15  S   UNL     1       2.340   4.901  20.322  0.00  0.00    +0.000 S 
ATOM     16  H   UNL     1       3.242   3.950  20.035  0.00  0.00    +0.000 HD
ENDBRANCH   7  15
ENDBRANCH   4   7
BRANCH   1  17
ATOM     17  O   UNL     1       0.425  11.181  18.860  0.00  0.00    +0.000 OA
BRANCH  17  19
ATOM     18  C   UNL     1      -1.732  11.779  19.720  0.00  0.00    +0.000 C 
ATOM     19  C   UNL     1      -0.977  11.118  18.584  0.00  0.00    +0.000 C 
ENDBRANCH  17  19
ENDBRANCH   1  17
BRANCH   6  20
ATOM     20  O   UNL     1       0.841   9.859  21.438  0.00  0.00    +0.000 OA
BRANCH  20  21
ATOM     21  C   UNL     1      -0.251   9.205  22.082  0.00  0.00    +0.000 C 
ATOM     22  C   UNL     1      -0.848  10.095  23.162  0.00  0.00    +0.000 C 
ENDBRANCH  20  21
ENDBRANCH   6  20
TORSDOF 7
ENDMDL
MODEL 6
REMARK VINA RESULT:      -6.5      4.242      7.173
REMARK  Name = 
REMARK  9 active torsions:
REMARK  status: ('A' for Active; 'I' for Inactive)
REMARK    1  A    between atoms: C_1  and  C_2
REMARK    2  A    between atoms: C_2  and  O_3
REMARK    3  A    between atoms: O_3  and  C_4
REMARK    4  A    between atoms: C_7  and  C_8
REMARK    5  A    between atoms: C_8  and  S_9
REMARK    6  A    between atoms: N_10  and  C_11
REMARK    7  A    between atoms: C_18  and  O_19
REMARK    8  A    between atoms: O_19  and  C_20
REMARK    9  A    between atoms: C_20  and  C_21
REMARK                            x       y       z     vdW  Elec       q    Type
REMARK                         _______ _______ _______ _____ _____    ______ ____
ROOT
ATOM      1  C   UNL     1       1.189   9.379  19.261  0.00  0.00    +0.000 A 
ATOM      2  C   UNL     1       1.715   8.899  18.051  0.00  0.00    +0.000 A 
ATOM      3  C   UNL     1       2.362   7.666  17.979  0.00  0.00    +0.000 A 
ATOM      4  C   UNL     1       2.547   6.891  19.131  0.00  0.00    +0.000 A 
ATOM      5  C   UNL     1       2.064   7.395  20.355  0.00  0.00    +0.000 A 
ATOM      6  C   UNL     1       1.410   8.636  20.440  0.00  0.00    +0.000 A 
ENDROOT
BRANCH   4   7
ATOM      7  C   UNL     1       3.384   5.650  19.128  0.00  0.00    +0.000 C 
ATOM      8  N   UNL     1       4.486   5.642  18.465  0.00  0.00    +0.000 NA
BRANCH   8   9
ATOM      9  C   UNL     1       5.309   4.454  18.199  0.00  0.00    +0.000 C 
ATOM     10  C   UNL     1       4.901   3.949  16.804  0.00  0.00    +0.000 C 
ATOM     11  C   UNL     1       5.274   4.932  15.689  0.00  0.00    +0.000 C 
ATOM     12  C   UNL     1       6.752   5.309  15.725  0.00  0.00    +0.000 C 
ATOM     13  C   UNL     1       7.193   5.777  17.109  0.00  0.00    +0.000 C 
ATOM     14  C   UNL     1       6.816   4.771  18.191  0.00  0.00    +0.000 C 
ENDBRANCH   8   9
BRANCH   7  15
ATOM     15  S   UNL     1       2.771   4.262  20.019  0.00  0.00    +0.000 S 
ATOM     16  H   UNL     1       2.233   4.968  21.024  0.00  0.00    +0.000 HD
ENDBRANCH   7  15
ENDBRANCH   4   7
BRANCH   1  17
ATOM     17  O   UNL     1       0.470  10.544  19.320  0.00  0.00    +0.000 OA
BRANCH  17  19
ATOM     18  C   UNL     1       1.276  12.412  20.591  0.00  0.00    +0.000 C 
ATOM     19  C   UNL     1       1.224  11.757  19.225  0.00  0.00    +0.000 C 
ENDBRANCH  17  19
ENDBRANCH   1  17
BRANCH   6  20
ATOM     20  O   UNL     1       1.042   8.973  21.723  0.00  0.00    +0.000 OA
BRANCH  20  21
ATOM     21  C   UNL     1      -0.354   8.943  22.016  0.00  0.00    +0.000 C 
ATOM     22  C   UNL     1      -0.715  10.032  23.016  0.00  0.00    +0.000 C 
ENDBRANCH  20  21
ENDBRANCH   6  20
TORSDOF 7
ENDMDL
MODEL 7
REMARK VINA RESULT:      -6.4      4.474      7.409
REMARK  Name = 
REMARK  9 active torsions:
REMARK  status: ('A' for Active; 'I' for Inactive)
REMARK    1  A    between atoms: C_1  and  C_2
REMARK    2  A    between atoms: C_2  and  O_3
REMARK    3  A    between atoms: O_3  and  C_4
REMARK    4  A    between atoms: C_7  and  C_8
REMARK    5  A    between atoms: C_8  and  S_9
REMARK    6  A    between atoms: N_10  and  C_11
REMARK    7  A    between atoms: C_18  and  O_19
REMARK    8  A    between atoms: O_19  and  C_20
REMARK    9  A    between atoms: C_20  and  C_21
REMARK                            x       y       z     vdW  Elec       q    Type
REMARK                         _______ _______ _______ _____ _____    ______ ____
ROOT
ATOM      1  C   UNL     1       1.125  10.149  19.298  0.00  0.00    +0.000 A 
ATOM      2  C   UNL     1       1.524   9.900  17.976  0.00  0.00    +0.000 A 
ATOM      3  C   UNL     1       2.084   8.679  17.604  0.00  0.00    +0.000 A 
ATOM      4  C   UNL     1       2.307   7.678  18.558  0.00  0.00    +0.000 A 
ATOM      5  C   UNL     1       1.953   7.945  19.895  0.00  0.00    +0.000 A 
ATOM      6  C   UNL     1       1.387   9.172  20.282  0.00  0.00    +0.000 A 
ENDROOT
BRANCH   4   7
ATOM      7  C   UNL     1       3.061   6.425  18.236  0.00  0.00    +0.000 C 
ATOM      8  N   UNL     1       4.307   6.508  17.928  0.00  0.00    +0.000 NA
BRANCH   8   9
ATOM      9  C   UNL     1       5.126   5.410  17.395  0.00  0.00    +0.000 C 
ATOM     10  C   UNL     1       6.239   6.068  16.561  0.00  0.00    +0.000 C 
ATOM     11  C   UNL     1       7.210   6.889  17.416  0.00  0.00    +0.000 C 
ATOM     12  C   UNL     1       7.795   6.076  18.567  0.00  0.00    +0.000 C 
ATOM     13  C   UNL     1       6.712   5.381  19.389  0.00  0.00    +0.000 C 
ATOM     14  C   UNL     1       5.772   4.564  18.508  0.00  0.00    +0.000 C 
ENDBRANCH   8   9
BRANCH   7  15
ATOM     15  S   UNL     1       2.164   4.913  18.272  0.00  0.00    +0.000 S 
ATOM     16  H   UNL     1       3.038   4.250  19.042  0.00  0.00    +0.000 HD
ENDBRANCH   7  15
ENDBRANCH   4   7
BRANCH   1  17
ATOM     17  O   UNL     1       0.488  11.310  19.650  0.00  0.00    +0.000 OA
BRANCH  17  19
ATOM     18  C   UNL     1      -1.813  11.090  19.009  0.00  0.00    +0.000 C 
ATOM     19  C   UNL     1      -0.499  11.792  18.732  0.00  0.00    +0.000 C 
ENDBRANCH  17  19
ENDBRANCH   1  17
BRANCH   6  20
ATOM     20  O   UNL     1       1.141   9.259  21.634  0.00  0.00    +0.000 OA
BRANCH  20  21
ATOM     21  C   UNL     1      -0.174   8.916  22.067  0.00  0.00    +0.000 C 
ATOM     22  C   UNL     1      -0.663   9.895  23.123  0.00  0.00    +0.000 C 
ENDBRANCH  20  21
ENDBRANCH   6  20
TORSDOF 7
ENDMDL
MODEL 8
REMARK VINA RESULT:      -6.4      5.001      7.417
REMARK  Name = 
REMARK  9 active torsions:
REMARK  status: ('A' for Active; 'I' for Inactive)
REMARK    1  A    between atoms: C_1  and  C_2
REMARK    2  A    between atoms: C_2  and  O_3
REMARK    3  A    between atoms: O_3  and  C_4
REMARK    4  A    between atoms: C_7  and  C_8
REMARK    5  A    between atoms: C_8  and  S_9
REMARK    6  A    between atoms: N_10  and  C_11
REMARK    7  A    between atoms: C_18  and  O_19
REMARK    8  A    between atoms: O_19  and  C_20
REMARK    9  A    between atoms: C_20  and  C_21
REMARK                            x       y       z     vdW  Elec       q    Type
REMARK                         _______ _______ _______ _____ _____    ______ ____
ROOT
ATOM      1  C   UNL     1       0.668  10.718  19.786  0.00  0.00    +0.000 A 
ATOM      2  C   UNL     1       0.964  10.366  18.460  0.00  0.00    +0.000 A 
ATOM      3  C   UNL     1       1.521   9.127  18.144  0.00  0.00    +0.000 A 
ATOM      4  C   UNL     1       1.844   8.214  19.156  0.00  0.00    +0.000 A 
ATOM      5  C   UNL     1       1.593   8.586  20.491  0.00  0.00    +0.000 A 
ATOM      6  C   UNL     1       1.032   9.831  20.821  0.00  0.00    +0.000 A 
ENDROOT
BRANCH   4   7
ATOM      7  C   UNL     1       2.597   6.951  18.877  0.00  0.00    +0.000 C 
ATOM      8  N   UNL     1       2.298   5.887  19.536  0.00  0.00    +0.000 NA
BRANCH   8   9
ATOM      9  C   UNL     1       3.069   4.635  19.525  0.00  0.00    +0.000 C 
ATOM     10  C   UNL     1       2.625   3.844  20.767  0.00  0.00    +0.000 C 
ATOM     11  C   UNL     1       1.162   3.394  20.688  0.00  0.00    +0.000 C 
ATOM     12  C   UNL     1       0.868   2.617  19.408  0.00  0.00    +0.000 C 
ATOM     13  C   UNL     1       1.334   3.364  18.161  0.00  0.00    +0.000 C 
ATOM     14  C   UNL     1       2.795   3.786  18.270  0.00  0.00    +0.000 C 
ENDBRANCH   8   9
BRANCH   7  15
ATOM     15  S   UNL     1       3.877   7.024  17.673  0.00  0.00    +0.000 S 
ATOM     16  H   UNL     1       3.459   5.969  16.959  0.00  0.00    +0.000 HD
ENDBRANCH   7  15
ENDBRANCH   4   7
BRANCH   1  17
ATOM     17  O   UNL     1       0.035  11.894  20.092  0.00  0.00    +0.000 OA
BRANCH  17  19
ATOM     18  C   UNL     1      -2.002  13.134  20.351  0.00  0.00    +0.000 C 
ATOM     19  C   UNL     1      -1.283  12.059  19.561  0.00  0.00    +0.000 C 
ENDBRANCH  17  19
ENDBRANCH   1  17
BRANCH   6  20
ATOM     20  O   UNL     1       0.894  10.027  22.177  0.00  0.00    +0.000 OA
BRANCH  20  21
ATOM     21  C   UNL     1      -0.326   9.580  22.766  0.00  0.00    +0.000 C 
ATOM     22  C   UNL     1      -1.206  10.764  23.141  0.00  0.00    +0.000 C 
ENDBRANCH  20  21
ENDBRANCH   6  20
TORSDOF 7
ENDMDL
MODEL 9
REMARK VINA RESULT:      -6.2      4.923      7.626
REMARK  Name = 
REMARK  9 active torsions:
REMARK  status: ('A' for Active; 'I' for Inactive)
REMARK    1  A    between atoms: C_1  and  C_2
REMARK    2  A    between atoms: C_2  and  O_3
REMARK    3  A    between atoms: O_3  and  C_4
REMARK    4  A    between atoms: C_7  and  C_8
REMARK    5  A    between atoms: C_8  and  S_9
REMARK    6  A    between atoms: N_10  and  C_11
REMARK    7  A    between atoms: C_18  and  O_19
REMARK    8  A    between atoms: O_19  and  C_20
REMARK    9  A    between atoms: C_20  and  C_21
REMARK                            x       y       z     vdW  Elec       q    Type
REMARK                         _______ _______ _______ _____ _____    ______ ____
ROOT
ATOM      1  C   UNL     1       0.644  10.036  21.251  0.00  0.00    +0.000 A 
ATOM      2  C   UNL     1       1.033   8.834  21.863  0.00  0.00    +0.000 A 
ATOM      3  C   UNL     1       1.679   7.829  21.144  0.00  0.00    +0.000 A 
ATOM      4  C   UNL     1       1.916   7.977  19.771  0.00  0.00    +0.000 A 
ATOM      5  C   UNL     1       1.482   9.161  19.145  0.00  0.00    +0.000 A 
ATOM      6  C   UNL     1       0.830  10.181  19.860  0.00  0.00    +0.000 A 
ENDROOT
BRANCH   4   7
ATOM      7  C   UNL     1       2.448   6.857  18.932  0.00  0.00    +0.000 C 
ATOM      8  N   UNL     1       2.079   5.652  19.192  0.00  0.00    +0.000 NA
BRANCH   8   9
ATOM      9  C   UNL     1       2.660   4.439  18.600  0.00  0.00    +0.000 C 
ATOM     10  C   UNL     1       3.529   3.797  19.696  0.00  0.00    +0.000 C 
ATOM     11  C   UNL     1       2.702   3.287  20.880  0.00  0.00    +0.000 C 
ATOM     12  C   UNL     1       1.587   2.342  20.440  0.00  0.00    +0.000 C 
ATOM     13  C   UNL     1       0.733   2.940  19.326  0.00  0.00    +0.000 C 
ATOM     14  C   UNL     1       1.587   3.426  18.159  0.00  0.00    +0.000 C 
ENDBRANCH   8   9
BRANCH   7  15
ATOM     15  S   UNL     1       3.581   7.275  17.653  0.00  0.00    +0.000 S 
ATOM     16  H   UNL     1       3.239   8.570  17.581  0.00  0.00    +0.000 HD
ENDBRANCH   7  15
ENDBRANCH   4   7
BRANCH   1  17
ATOM     17  O   UNL     1       0.095  11.064  21.971  0.00  0.00    +0.000 OA
BRANCH  17  19
ATOM     18  C   UNL     1      -1.904  11.811  23.067  0.00  0.00    +0.000 C 
ATOM     19  C   UNL     1      -0.882  10.698  22.950  0.00  0.00    +0.000 C 
ENDBRANCH  17  19
ENDBRANCH   1  17
BRANCH   6  20
ATOM     20  O   UNL     1       0.450  11.245  19.072  0.00  0.00    +0.000 OA
BRANCH  20  21
ATOM     21  C   UNL     1      -0.866  11.197  18.525  0.00  0.00    +0.000 C 
ATOM     22  C   UNL     1      -1.767  12.217  19.208  0.00  0.00    +0.000 C 
ENDBRANCH  20  21
ENDBRANCH   6  20
TORSDOF 7
ENDMDL
