MODEL 1
REMARK VINA RESULT:      -8.5      0.000      0.000
REMARK  Name = 
REMARK  7 active torsions:
REMARK  status: ('A' for Active; 'I' for Inactive)
REMARK    1  A    between atoms: C_1  and  O_2
REMARK    2  A    between atoms: O_2  and  C_3
REMARK    3  A    between atoms: C_5  and  N_6
REMARK    4  A    between atoms: C_10  and  C_11
REMARK    5  A    between atoms: C_17  and  N_18
REMARK    6  A    between atoms: C_21  and  C_22
REMARK    7  A    between atoms: N_24  and  C_25
REMARK                            x       y       z     vdW  Elec       q    Type
REMARK                         _______ _______ _______ _____ _____    ______ ____
ROOT
ATOM      1  N   UNL     1       0.600  12.202  19.885  0.00  0.00    +0.000 N 
ATOM      2  C   UNL     1      -0.547  12.897  20.254  0.00  0.00    +0.000 A 
ATOM      3  C   UNL     1      -1.782  12.296  20.250  0.00  0.00    +0.000 A 
ATOM      4  C   UNL     1      -2.870  13.111  20.461  0.00  0.00    +0.000 A 
ATOM      5  N   UNL     1      -2.759  14.426  20.743  0.00  0.00    +0.000 NA
ATOM      6  C   UNL     1      -1.513  14.910  20.760  0.00  0.00    +0.000 A 
ATOM      7  N   UNL     1      -0.398  14.219  20.479  0.00  0.00    +0.000 NA
ATOM      8  H   UNL     1       1.193  12.818  19.346  0.00  0.00    +0.000 HD
ENDROOT
BRANCH   4   9
ATOM      9  C   UNL     1      -4.222  12.602  20.292  0.00  0.00    +0.000 A 
ATOM     10  C   UNL     1      -4.705  12.094  19.100  0.00  0.00    +0.000 A 
ATOM     11  N   UNL     1      -6.015  11.745  19.284  0.00  0.00    +0.000 N 
ATOM     12  C   UNL     1      -6.855  11.163  18.262  0.00  0.00    +0.000 C 
ATOM     13  C   UNL     1      -6.410  12.030  20.572  0.00  0.00    +0.000 A 
ATOM     14  C   UNL     1      -7.632  11.867  21.215  0.00  0.00    +0.000 A 
ATOM     15  N   UNL     1      -7.760  12.239  22.508  0.00  0.00    +0.000 NA
ATOM     16  C   UNL     1      -6.693  12.763  23.147  0.00  0.00    +0.000 A 
ATOM     17  C   UNL     1      -5.449  12.958  22.572  0.00  0.00    +0.000 A 
ATOM     18  C   UNL     1      -5.300  12.566  21.231  0.00  0.00    +0.000 A 
ENDBRANCH   4   9
BRANCH   1  24
ATOM     19  C   UNL     1       0.979   9.996  21.015  0.00  0.00    +0.000 A 
ATOM     20  C   UNL     1       1.324   8.641  20.876  0.00  0.00    +0.000 A 
ATOM     21  C   UNL     1       1.722   8.115  19.651  0.00  0.00    +0.000 A 
ATOM     22  C   UNL     1       1.684   8.961  18.538  0.00  0.00    +0.000 A 
ATOM     23  C   UNL     1       1.300  10.294  18.650  0.00  0.00    +0.000 A 
ATOM     24  C   UNL     1       0.952  10.844  19.889  0.00  0.00    +0.000 A 
BRANCH  21  25
ATOM     25  N   UNL     1       2.129   6.805  19.476  0.00  0.00    +0.000 N 
ATOM     26  C   UNL     1       2.367   6.224  18.151  0.00  0.00    +0.000 C 
ATOM     27  C   UNL     1       3.425   5.106  18.295  0.00  0.00    +0.000 C 
ATOM     28  N   UNL     1       3.065   4.129  19.342  0.00  0.00    +0.000 N 
ATOM     29  C   UNL     1       3.202   2.758  19.283  0.00  0.00    +0.000 C 
ATOM     30  C   UNL     1       3.664   2.101  18.010  0.00  0.00    +0.000 C 
ATOM     31  O   UNL     1       2.924   2.035  20.248  0.00  0.00    +0.000 OA
ATOM     32  C   UNL     1       2.694   4.733  20.634  0.00  0.00    +0.000 C 
ATOM     33  C   UNL     1       1.628   5.821  20.458  0.00  0.00    +0.000 C 
ENDBRANCH  21  25
BRANCH  19  35
ATOM     34  C   UNL     1      -0.429   9.894  22.912  0.00  0.00    +0.000 C 
ATOM     35  O   UNL     1       0.668  10.526  22.252  0.00  0.00    +0.000 OA
ENDBRANCH  19  35
ENDBRANCH   1  24
TORSDOF 4
ENDMDL
MODEL 2
REMARK VINA RESULT:      -8.4      0.962      2.142
REMARK  Name = 
REMARK  7 active torsions:
REMARK  status: ('A' for Active; 'I' for Inactive)
REMARK    1  A    between atoms: C_1  and  O_2
REMARK    2  A    between atoms: O_2  and  C_3
REMARK    3  A    between atoms: C_5  and  N_6
REMARK    4  A    between atoms: C_10  and  C_11
REMARK    5  A    between atoms: C_17  and  N_18
REMARK    6  A    between atoms: C_21  and  C_22
REMARK    7  A    between atoms: N_24  and  C_25
REMARK                            x       y       z     vdW  Elec       q    Type
REMARK                         _______ _______ _______ _____ _____    ______ ____
ROOT
ATOM      1  N   UNL     1       0.429  12.479  20.170  0.00  0.00    +0.000 N 
ATOM      2  C   UNL     1      -0.685  13.166  20.644  0.00  0.00    +0.000 A 
ATOM      3  C   UNL     1      -1.917  12.567  20.719  0.00  0.00    +0.000 A 
ATOM      4  C   UNL     1      -2.984  13.378  21.033  0.00  0.00    +0.000 A 
ATOM      5  N   UNL     1      -2.847  14.685  21.339  0.00  0.00    +0.000 NA
ATOM      6  C   UNL     1      -1.602  15.166  21.273  0.00  0.00    +0.000 A 
ATOM      7  N   UNL     1      -0.513  14.481  20.891  0.00  0.00    +0.000 NA
ATOM      8  H   UNL     1       0.982  13.107  19.604  0.00  0.00    +0.000 HD
ENDROOT
BRANCH   4   9
ATOM      9  C   UNL     1      -4.346  12.875  20.955  0.00  0.00    +0.000 A 
ATOM     10  C   UNL     1      -5.237  12.911  22.011  0.00  0.00    +0.000 A 
ATOM     11  N   UNL     1      -6.405  12.323  21.606  0.00  0.00    +0.000 N 
ATOM     12  C   UNL     1      -7.580  12.186  22.435  0.00  0.00    +0.000 C 
ATOM     13  C   UNL     1      -6.293  11.886  20.305  0.00  0.00    +0.000 A 
ATOM     14  C   UNL     1      -7.196  11.228  19.476  0.00  0.00    +0.000 A 
ATOM     15  N   UNL     1      -6.830  10.899  18.217  0.00  0.00    +0.000 NA
ATOM     16  C   UNL     1      -5.589  11.218  17.794  0.00  0.00    +0.000 A 
ATOM     17  C   UNL     1      -4.637  11.868  18.561  0.00  0.00    +0.000 A 
ATOM     18  C   UNL     1      -5.009  12.223  19.868  0.00  0.00    +0.000 A 
ENDBRANCH   4   9
BRANCH   1  24
ATOM     19  C   UNL     1       0.804  10.223  21.200  0.00  0.00    +0.000 A 
ATOM     20  C   UNL     1       1.143   8.874  20.999  0.00  0.00    +0.000 A 
ATOM     21  C   UNL     1       1.534   8.402  19.750  0.00  0.00    +0.000 A 
ATOM     22  C   UNL     1       1.495   9.297  18.677  0.00  0.00    +0.000 A 
ATOM     23  C   UNL     1       1.117  10.625  18.849  0.00  0.00    +0.000 A 
ATOM     24  C   UNL     1       0.776  11.121  20.112  0.00  0.00    +0.000 A 
BRANCH  21  25
ATOM     25  N   UNL     1       1.935   7.100  19.516  0.00  0.00    +0.000 N 
ATOM     26  C   UNL     1       1.922   6.070  20.561  0.00  0.00    +0.000 C 
ATOM     27  C   UNL     1       1.723   4.695  19.883  0.00  0.00    +0.000 C 
ATOM     28  N   UNL     1       2.697   4.461  18.798  0.00  0.00    +0.000 N 
ATOM     29  C   UNL     1       3.365   3.288  18.519  0.00  0.00    +0.000 C 
ATOM     30  C   UNL     1       3.220   2.102  19.435  0.00  0.00    +0.000 C 
ATOM     31  O   UNL     1       4.117   3.185  17.542  0.00  0.00    +0.000 OA
ATOM     32  C   UNL     1       2.800   5.566  17.827  0.00  0.00    +0.000 C 
ATOM     33  C   UNL     1       3.020   6.911  18.530  0.00  0.00    +0.000 C 
ENDBRANCH  21  25
BRANCH  19  35
ATOM     34  C   UNL     1      -0.591  10.035  23.100  0.00  0.00    +0.000 C 
ATOM     35  O   UNL     1       0.499  10.699  22.460  0.00  0.00    +0.000 OA
ENDBRANCH  19  35
ENDBRANCH   1  24
TORSDOF 4
ENDMDL
MODEL 3
REMARK VINA RESULT:      -8.4      0.662      1.840
REMARK  Name = 
REMARK  7 active torsions:
REMARK  status: ('A' for Active; 'I' for Inactive)
REMARK    1  A    between atoms: C_1  and  O_2
REMARK    2  A    between atoms: O_2  and  C_3
REMARK    3  A    between atoms: C_5  and  N_6
REMARK    4  A    between atoms: C_10  and  C_11
REMARK    5  A    between atoms: C_17  and  N_18
REMARK    6  A    between atoms: C_21  and  C_22
REMARK    7  A    between atoms: N_24  and  C_25
REMARK                            x       y       z     vdW  Elec       q    Type
REMARK                         _______ _______ _______ _____ _____    ______ ____
ROOT
ATOM      1  N   UNL     1       0.643  12.310  19.694  0.00  0.00    +0.000 N 
ATOM      2  C   UNL     1      -0.429  13.071  20.150  0.00  0.00    +0.000 A 
ATOM      3  C   UNL     1      -1.665  12.513  20.360  0.00  0.00    +0.000 A 
ATOM      4  C   UNL     1      -2.697  13.378  20.642  0.00  0.00    +0.000 A 
ATOM      5  N   UNL     1      -2.520  14.708  20.793  0.00  0.00    +0.000 NA
ATOM      6  C   UNL     1      -1.273  15.149  20.604  0.00  0.00    +0.000 A 
ATOM      7  N   UNL     1      -0.221  14.400  20.239  0.00  0.00    +0.000 NA
ATOM      8  H   UNL     1       1.173  12.859  19.031  0.00  0.00    +0.000 HD
ENDROOT
BRANCH   4   9
ATOM      9  C   UNL     1      -4.070  12.902  20.696  0.00  0.00    +0.000 A 
ATOM     10  C   UNL     1      -4.862  12.976  21.827  0.00  0.00    +0.000 A 
ATOM     11  N   UNL     1      -6.072  12.405  21.540  0.00  0.00    +0.000 N 
ATOM     12  C   UNL     1      -7.171  12.308  22.473  0.00  0.00    +0.000 C 
ATOM     13  C   UNL     1      -6.086  11.941  20.243  0.00  0.00    +0.000 A 
ATOM     14  C   UNL     1      -7.072  11.286  19.513  0.00  0.00    +0.000 A 
ATOM     15  N   UNL     1      -6.826  10.925  18.234  0.00  0.00    +0.000 NA
ATOM     16  C   UNL     1      -5.622  11.211  17.694  0.00  0.00    +0.000 A 
ATOM     17  C   UNL     1      -4.594  11.855  18.359  0.00  0.00    +0.000 A 
ATOM     18  C   UNL     1      -4.840  12.243  19.687  0.00  0.00    +0.000 A 
ENDBRANCH   4   9
BRANCH   1  24
ATOM     19  C   UNL     1       0.929  10.146  20.928  0.00  0.00    +0.000 A 
ATOM     20  C   UNL     1       1.247   8.779  20.859  0.00  0.00    +0.000 A 
ATOM     21  C   UNL     1       1.675   8.192  19.672  0.00  0.00    +0.000 A 
ATOM     22  C   UNL     1       1.697   8.991  18.525  0.00  0.00    +0.000 A 
ATOM     23  C   UNL     1       1.342  10.335  18.566  0.00  0.00    +0.000 A 
ATOM     24  C   UNL     1       0.963  10.946  19.767  0.00  0.00    +0.000 A 
BRANCH  21  25
ATOM     25  N   UNL     1       2.057   6.867  19.568  0.00  0.00    +0.000 N 
ATOM     26  C   UNL     1       2.383   6.240  18.283  0.00  0.00    +0.000 C 
ATOM     27  C   UNL     1       3.393   5.099  18.543  0.00  0.00    +0.000 C 
ATOM     28  N   UNL     1       2.923   4.164  19.584  0.00  0.00    +0.000 N 
ATOM     29  C   UNL     1       3.024   2.789  19.575  0.00  0.00    +0.000 C 
ATOM     30  C   UNL     1       3.567   2.083  18.362  0.00  0.00    +0.000 C 
ATOM     31  O   UNL     1       2.650   2.103  20.535  0.00  0.00    +0.000 OA
ATOM     32  C   UNL     1       2.468   4.817  20.825  0.00  0.00    +0.000 C 
ATOM     33  C   UNL     1       1.451   5.927  20.533  0.00  0.00    +0.000 C 
ENDBRANCH  21  25
BRANCH  19  35
ATOM     34  C   UNL     1      -0.388  10.019  22.889  0.00  0.00    +0.000 C 
ATOM     35  O   UNL     1       0.587  10.735  22.130  0.00  0.00    +0.000 OA
ENDBRANCH  19  35
ENDBRANCH   1  24
TORSDOF 4
ENDMDL
MODEL 4
REMARK VINA RESULT:      -8.4      0.777      1.139
REMARK  Name = 
REMARK  7 active torsions:
REMARK  status: ('A' for Active; 'I' for Inactive)
REMARK    1  A    between atoms: C_1  and  O_2
REMARK    2  A    between atoms: O_2  and  C_3
REMARK    3  A    between atoms: C_5  and  N_6
REMARK    4  A    between atoms: C_10  and  C_11
REMARK    5  A    between atoms: C_17  and  N_18
REMARK    6  A    between atoms: C_21  and  C_22
REMARK    7  A    between atoms: N_24  and  C_25
REMARK                            x       y       z     vdW  Elec       q    Type
REMARK                         _______ _______ _______ _____ _____    ______ ____
ROOT
ATOM      1  N   UNL     1       0.511  12.387  19.872  0.00  0.00    +0.000 N 
ATOM      2  C   UNL     1      -0.646  13.045  20.276  0.00  0.00    +0.000 A 
ATOM      3  C   UNL     1      -1.869  12.421  20.256  0.00  0.00    +0.000 A 
ATOM      4  C   UNL     1      -2.971  13.206  20.507  0.00  0.00    +0.000 A 
ATOM      5  N   UNL     1      -2.882  14.511  20.839  0.00  0.00    +0.000 NA
ATOM      6  C   UNL     1      -1.646  15.017  20.867  0.00  0.00    +0.000 A 
ATOM      7  N   UNL     1      -0.519  14.359  20.552  0.00  0.00    +0.000 NA
ATOM      8  H   UNL     1       1.089  13.034  19.354  0.00  0.00    +0.000 HD
ENDROOT
BRANCH   4   9
ATOM      9  C   UNL     1      -4.314  12.678  20.326  0.00  0.00    +0.000 A 
ATOM     10  C   UNL     1      -4.794  12.203  19.120  0.00  0.00    +0.000 A 
ATOM     11  N   UNL     1      -6.097  11.824  19.298  0.00  0.00    +0.000 N 
ATOM     12  C   UNL     1      -6.932  11.262  18.261  0.00  0.00    +0.000 C 
ATOM     13  C   UNL     1      -6.490  12.057  20.597  0.00  0.00    +0.000 A 
ATOM     14  C   UNL     1      -7.705  11.850  21.240  0.00  0.00    +0.000 A 
ATOM     15  N   UNL     1      -7.833  12.174  22.546  0.00  0.00    +0.000 NA
ATOM     16  C   UNL     1      -6.772  12.695  23.197  0.00  0.00    +0.000 A 
ATOM     17  C   UNL     1      -5.534  12.932  22.623  0.00  0.00    +0.000 A 
ATOM     18  C   UNL     1      -5.386  12.591  21.268  0.00  0.00    +0.000 A 
ENDBRANCH   4   9
BRANCH   1  24
ATOM     19  C   UNL     1       0.881  10.129  20.899  0.00  0.00    +0.000 A 
ATOM     20  C   UNL     1       1.258   8.790  20.704  0.00  0.00    +0.000 A 
ATOM     21  C   UNL     1       1.721   8.337  19.473  0.00  0.00    +0.000 A 
ATOM     22  C   UNL     1       1.717   9.242  18.406  0.00  0.00    +0.000 A 
ATOM     23  C   UNL     1       1.303  10.560  18.570  0.00  0.00    +0.000 A 
ATOM     24  C   UNL     1       0.889  11.037  19.819  0.00  0.00    +0.000 A 
BRANCH  21  25
ATOM     25  N   UNL     1       2.161   7.046  19.247  0.00  0.00    +0.000 N 
ATOM     26  C   UNL     1       2.046   5.987  20.255  0.00  0.00    +0.000 C 
ATOM     27  C   UNL     1       1.937   4.630  19.522  0.00  0.00    +0.000 C 
ATOM     28  N   UNL     1       3.027   4.436  18.544  0.00  0.00    +0.000 N 
ATOM     29  C   UNL     1       3.735   3.277  18.307  0.00  0.00    +0.000 C 
ATOM     30  C   UNL     1       3.505   2.064  19.168  0.00  0.00    +0.000 C 
ATOM     31  O   UNL     1       4.591   3.209  17.415  0.00  0.00    +0.000 OA
ATOM     32  C   UNL     1       3.223   5.569  17.621  0.00  0.00    +0.000 C 
ATOM     33  C   UNL     1       3.348   6.895  18.381  0.00  0.00    +0.000 C 
ENDBRANCH  21  25
BRANCH  19  35
ATOM     34  C   UNL     1       0.084   9.566  23.053  0.00  0.00    +0.000 C 
ATOM     35  O   UNL     1       0.504  10.586  22.147  0.00  0.00    +0.000 OA
ENDBRANCH  19  35
ENDBRANCH   1  24
TORSDOF 4
ENDMDL
MODEL 5
REMARK VINA RESULT:      -8.0      1.736      2.983
REMARK  Name = 
REMARK  7 active torsions:
REMARK  status: ('A' for Active; 'I' for Inactive)
REMARK    1  A    between atoms: C_1  and  O_2
REMARK    2  A    between atoms: O_2  and  C_3
REMARK    3  A    between atoms: C_5  and  N_6
REMARK    4  A    between atoms: C_10  and  C_11
REMARK    5  A    between atoms: C_17  and  N_18
REMARK    6  A    between atoms: C_21  and  C_22
REMARK    7  A    between atoms: N_24  and  C_25
REMARK                            x       y       z     vdW  Elec       q    Type
REMARK                         _______ _______ _______ _____ _____    ______ ____
ROOT
ATOM      1  N   UNL     1       0.359  11.564  21.969  0.00  0.00    +0.000 N 
ATOM      2  C   UNL     1      -0.884  12.156  22.172  0.00  0.00    +0.000 A 
ATOM      3  C   UNL     1      -1.929  11.940  21.308  0.00  0.00    +0.000 A 
ATOM      4  C   UNL     1      -3.058  12.704  21.497  0.00  0.00    +0.000 A 
ATOM      5  N   UNL     1      -3.195  13.573  22.520  0.00  0.00    +0.000 NA
ATOM      6  C   UNL     1      -2.136  13.685  23.327  0.00  0.00    +0.000 A 
ATOM      7  N   UNL     1      -0.961  13.053  23.176  0.00  0.00    +0.000 NA
ATOM      8  H   UNL     1       1.079  12.233  22.205  0.00  0.00    +0.000 HD
ENDROOT
BRANCH   4   9
ATOM      9  C   UNL     1      -4.141  12.679  20.526  0.00  0.00    +0.000 A 
ATOM     10  C   UNL     1      -5.425  13.112  20.799  0.00  0.00    +0.000 A 
ATOM     11  N   UNL     1      -6.191  12.912  19.683  0.00  0.00    +0.000 N 
ATOM     12  C   UNL     1      -7.590  13.256  19.582  0.00  0.00    +0.000 C 
ATOM     13  C   UNL     1      -5.438  12.338  18.683  0.00  0.00    +0.000 A 
ATOM     14  C   UNL     1      -5.773  11.942  17.393  0.00  0.00    +0.000 A 
ATOM     15  N   UNL     1      -4.830  11.389  16.598  0.00  0.00    +0.000 NA
ATOM     16  C   UNL     1      -3.579  11.233  17.080  0.00  0.00    +0.000 A 
ATOM     17  C   UNL     1      -3.173  11.599  18.351  0.00  0.00    +0.000 A 
ATOM     18  C   UNL     1      -4.142  12.184  19.184  0.00  0.00    +0.000 A 
ENDBRANCH   4   9
BRANCH   1  24
ATOM     19  C   UNL     1       0.967  10.260  19.916  0.00  0.00    +0.000 A 
ATOM     20  C   UNL     1       1.425   9.043  19.381  0.00  0.00    +0.000 A 
ATOM     21  C   UNL     1       1.633   7.928  20.187  0.00  0.00    +0.000 A 
ATOM     22  C   UNL     1       1.454   8.082  21.566  0.00  0.00    +0.000 A 
ATOM     23  C   UNL     1       1.046   9.292  22.117  0.00  0.00    +0.000 A 
ATOM     24  C   UNL     1       0.782  10.402  21.307  0.00  0.00    +0.000 A 
BRANCH  21  25
ATOM     25  N   UNL     1       2.023   6.694  19.701  0.00  0.00    +0.000 N 
ATOM     26  C   UNL     1       1.860   5.456  20.470  0.00  0.00    +0.000 C 
ATOM     27  C   UNL     1       1.704   4.284  19.473  0.00  0.00    +0.000 C 
ATOM     28  N   UNL     1       2.792   4.252  18.476  0.00  0.00    +0.000 N 
ATOM     29  C   UNL     1       3.456   3.139  18.005  0.00  0.00    +0.000 C 
ATOM     30  C   UNL     1       3.172   1.786  18.599  0.00  0.00    +0.000 C 
ATOM     31  O   UNL     1       4.315   3.221  17.118  0.00  0.00    +0.000 OA
ATOM     32  C   UNL     1       3.039   5.541  17.805  0.00  0.00    +0.000 C 
ATOM     33  C   UNL     1       3.211   6.677  18.821  0.00  0.00    +0.000 C 
ENDBRANCH  21  25
BRANCH  19  35
ATOM     34  C   UNL     1       1.828  12.062  18.649  0.00  0.00    +0.000 C 
ATOM     35  O   UNL     1       0.683  11.334  19.095  0.00  0.00    +0.000 OA
ENDBRANCH  19  35
ENDBRANCH   1  24
TORSDOF 4
ENDMDL
MODEL 6
REMARK VINA RESULT:      -7.8      3.902      7.034
REMARK  Name = 
REMARK  7 active torsions:
REMARK  status: ('A' for Active; 'I' for Inactive)
REMARK    1  A    between atoms: C_1  and  O_2
REMARK    2  A    between atoms: O_2  and  C_3
REMARK    3  A    between atoms: C_5  and  N_6
REMARK    4  A    between atoms: C_10  and  C_11
REMARK    5  A    between atoms: C_17  and  N_18
REMARK    6  A    between atoms: C_21  and  C_22
REMARK    7  A    between atoms: N_24  and  C_25
REMARK                            x       y       z     vdW  Elec       q    Type
REMARK                         _______ _______ _______ _____ _____    ______ ____
ROOT
ATOM      1  N   UNL     1       0.061  12.261  19.950  0.00  0.00    +0.000 N 
ATOM      2  C   UNL     1       0.517  13.476  19.448  0.00  0.00    +0.000 A 
ATOM      3  C   UNL     1       1.851  13.698  19.211  0.00  0.00    +0.000 A 
ATOM      4  C   UNL     1       2.217  14.983  18.882  0.00  0.00    +0.000 A 
ATOM      5  N   UNL     1       1.325  15.980  18.711  0.00  0.00    +0.000 NA
ATOM      6  C   UNL     1       0.047  15.655  18.929  0.00  0.00    +0.000 A 
ATOM      7  N   UNL     1      -0.401  14.458  19.340  0.00  0.00    +0.000 NA
ATOM      8  H   UNL     1      -0.675  12.441  20.618  0.00  0.00    +0.000 HD
ENDROOT
BRANCH   4   9
ATOM      9  C   UNL     1       3.621  15.354  18.795  0.00  0.00    +0.000 A 
ATOM     10  C   UNL     1       4.562  14.632  18.084  0.00  0.00    +0.000 A 
ATOM     11  N   UNL     1       5.778  15.236  18.249  0.00  0.00    +0.000 N 
ATOM     12  C   UNL     1       7.007  14.775  17.643  0.00  0.00    +0.000 C 
ATOM     13  C   UNL     1       5.659  16.335  19.069  0.00  0.00    +0.000 A 
ATOM     14  C   UNL     1       6.606  17.244  19.530  0.00  0.00    +0.000 A 
ATOM     15  N   UNL     1       6.223  18.251  20.346  0.00  0.00    +0.000 NA
ATOM     16  C   UNL     1       4.923  18.349  20.697  0.00  0.00    +0.000 A 
ATOM     17  C   UNL     1       3.927  17.482  20.281  0.00  0.00    +0.000 A 
ATOM     18  C   UNL     1       4.312  16.436  19.425  0.00  0.00    +0.000 A 
ENDBRANCH   4   9
BRANCH   1  24
ATOM     19  C   UNL     1       0.773  10.109  21.024  0.00  0.00    +0.000 A 
ATOM     20  C   UNL     1       1.250   8.800  20.844  0.00  0.00    +0.000 A 
ATOM     21  C   UNL     1       1.598   8.321  19.585  0.00  0.00    +0.000 A 
ATOM     22  C   UNL     1       1.374   9.158  18.487  0.00  0.00    +0.000 A 
ATOM     23  C   UNL     1       0.859  10.441  18.643  0.00  0.00    +0.000 A 
ATOM     24  C   UNL     1       0.559  10.950  19.912  0.00  0.00    +0.000 A 
BRANCH  21  25
ATOM     25  N   UNL     1       2.129   7.063  19.364  0.00  0.00    +0.000 N 
ATOM     26  C   UNL     1       2.176   6.033  20.407  0.00  0.00    +0.000 C 
ATOM     27  C   UNL     1       2.132   4.648  19.721  0.00  0.00    +0.000 C 
ATOM     28  N   UNL     1       3.162   4.511  18.672  0.00  0.00    +0.000 N 
ATOM     29  C   UNL     1       3.948   3.408  18.417  0.00  0.00    +0.000 C 
ATOM     30  C   UNL     1       3.883   2.210  19.326  0.00  0.00    +0.000 C 
ATOM     31  O   UNL     1       4.742   3.381  17.467  0.00  0.00    +0.000 OA
ATOM     32  C   UNL     1       3.196   5.625  17.707  0.00  0.00    +0.000 C 
ATOM     33  C   UNL     1       3.261   6.982  18.418  0.00  0.00    +0.000 C 
ENDBRANCH  21  25
BRANCH  19  35
ATOM     34  C   UNL     1      -0.325   9.769  23.091  0.00  0.00    +0.000 C 
ATOM     35  O   UNL     1       0.511  10.602  22.288  0.00  0.00    +0.000 OA
ENDBRANCH  19  35
ENDBRANCH   1  24
TORSDOF 4
ENDMDL
MODEL 7
REMARK VINA RESULT:      -7.7      4.335     10.753
REMARK  Name = 
REMARK  7 active torsions:
REMARK  status: ('A' for Active; 'I' for Inactive)
REMARK    1  A    between atoms: C_1  and  O_2
REMARK    2  A    between atoms: O_2  and  C_3
REMARK    3  A    between atoms: C_5  and  N_6
REMARK    4  A    between atoms: C_10  and  C_11
REMARK    5  A    between atoms: C_17  and  N_18
REMARK    6  A    between atoms: C_21  and  C_22
REMARK    7  A    between atoms: N_24  and  C_25
REMARK                            x       y       z     vdW  Elec       q    Type
REMARK                         _______ _______ _______ _____ _____    ______ ____
ROOT
ATOM      1  N   UNL     1       1.002   7.581  20.610  0.00  0.00    +0.000 N 
ATOM      2  C   UNL     1       1.834   6.494  20.359  0.00  0.00    +0.000 A 
ATOM      3  C   UNL     1       2.759   6.519  19.345  0.00  0.00    +0.000 A 
ATOM      4  C   UNL     1       3.408   5.337  19.068  0.00  0.00    +0.000 A 
ATOM      5  N   UNL     1       3.227   4.213  19.792  0.00  0.00    +0.000 NA
ATOM      6  C   UNL     1       2.333   4.301  20.781  0.00  0.00    +0.000 A 
ATOM      7  N   UNL     1       1.586   5.376  21.072  0.00  0.00    +0.000 NA
ATOM      8  H   UNL     1       0.082   7.238  20.847  0.00  0.00    +0.000 HD
ENDROOT
BRANCH   4   9
ATOM      9  C   UNL     1       4.264   5.218  17.898  0.00  0.00    +0.000 A 
ATOM     10  C   UNL     1       4.020   4.342  16.857  0.00  0.00    +0.000 A 
ATOM     11  N   UNL     1       5.037   4.463  15.950  0.00  0.00    +0.000 N 
ATOM     12  C   UNL     1       5.123   3.714  14.716  0.00  0.00    +0.000 C 
ATOM     13  C   UNL     1       5.957   5.391  16.383  0.00  0.00    +0.000 A 
ATOM     14  C   UNL     1       7.146   5.839  15.817  0.00  0.00    +0.000 A 
ATOM     15  N   UNL     1       7.882   6.772  16.461  0.00  0.00    +0.000 NA
ATOM     16  C   UNL     1       7.441   7.249  17.644  0.00  0.00    +0.000 A 
ATOM     17  C   UNL     1       6.272   6.850  18.269  0.00  0.00    +0.000 A 
ATOM     18  C   UNL     1       5.494   5.886  17.605  0.00  0.00    +0.000 A 
ENDBRANCH   4   9
BRANCH   1  24
ATOM     19  C   UNL     1       1.071   9.981  21.335  0.00  0.00    +0.000 A 
ATOM     20  C   UNL     1       1.219  11.326  20.957  0.00  0.00    +0.000 A 
ATOM     21  C   UNL     1       1.329  11.696  19.620  0.00  0.00    +0.000 A 
ATOM     22  C   UNL     1       1.374  10.675  18.666  0.00  0.00    +0.000 A 
ATOM     23  C   UNL     1       1.275   9.335  19.027  0.00  0.00    +0.000 A 
ATOM     24  C   UNL     1       1.109   8.958  20.364  0.00  0.00    +0.000 A 
BRANCH  21  25
ATOM     25  N   UNL     1       1.415  13.009  19.194  0.00  0.00    +0.000 N 
ATOM     26  C   UNL     1       0.254  13.754  18.696  0.00  0.00    +0.000 C 
ATOM     27  C   UNL     1       0.484  15.256  18.981  0.00  0.00    +0.000 C 
ATOM     28  N   UNL     1       1.786  15.728  18.469  0.00  0.00    +0.000 N 
ATOM     29  C   UNL     1       2.045  16.921  17.829  0.00  0.00    +0.000 C 
ATOM     30  C   UNL     1       0.913  17.852  17.484  0.00  0.00    +0.000 C 
ATOM     31  O   UNL     1       3.192  17.244  17.494  0.00  0.00    +0.000 OA
ATOM     32  C   UNL     1       2.933  14.890  18.864  0.00  0.00    +0.000 C 
ATOM     33  C   UNL     1       2.681  13.411  18.547  0.00  0.00    +0.000 C 
ENDBRANCH  21  25
BRANCH  19  35
ATOM     34  C   UNL     1      -0.443   9.863  23.148  0.00  0.00    +0.000 C 
ATOM     35  O   UNL     1       0.878   9.633  22.658  0.00  0.00    +0.000 OA
ENDBRANCH  19  35
ENDBRANCH   1  24
TORSDOF 4
ENDMDL
MODEL 8
REMARK VINA RESULT:      -7.7      1.702      2.853
REMARK  Name = 
REMARK  7 active torsions:
REMARK  status: ('A' for Active; 'I' for Inactive)
REMARK    1  A    between atoms: C_1  and  O_2
REMARK    2  A    between atoms: O_2  and  C_3
REMARK    3  A    between atoms: C_5  and  N_6
REMARK    4  A    between atoms: C_10  and  C_11
REMARK    5  A    between atoms: C_17  and  N_18
REMARK    6  A    between atoms: C_21  and  C_22
REMARK    7  A    between atoms: N_24  and  C_25
REMARK                            x       y       z     vdW  Elec       q    Type
REMARK                         _______ _______ _______ _____ _____    ______ ____
ROOT
ATOM      1  N   UNL     1      -0.080  11.811  22.245  0.00  0.00    +0.000 N 
ATOM      2  C   UNL     1      -1.369  12.323  22.360  0.00  0.00    +0.000 A 
ATOM      3  C   UNL     1      -2.315  12.106  21.389  0.00  0.00    +0.000 A 
ATOM      4  C   UNL     1      -3.499  12.796  21.511  0.00  0.00    +0.000 A 
ATOM      5  N   UNL     1      -3.780  13.593  22.564  0.00  0.00    +0.000 NA
ATOM      6  C   UNL     1      -2.809  13.710  23.474  0.00  0.00    +0.000 A 
ATOM      7  N   UNL     1      -1.591  13.152  23.401  0.00  0.00    +0.000 NA
ATOM      8  H   UNL     1       0.575  12.500  22.586  0.00  0.00    +0.000 HD
ENDROOT
BRANCH   4   9
ATOM      9  C   UNL     1      -4.483  12.775  20.441  0.00  0.00    +0.000 A 
ATOM     10  C   UNL     1      -5.773  13.256  20.576  0.00  0.00    +0.000 A 
ATOM     11  N   UNL     1      -6.434  13.044  19.398  0.00  0.00    +0.000 N 
ATOM     12  C   UNL     1      -7.805  13.428  19.151  0.00  0.00    +0.000 C 
ATOM     13  C   UNL     1      -5.609  12.416  18.492  0.00  0.00    +0.000 A 
ATOM     14  C   UNL     1      -5.832  11.991  17.187  0.00  0.00    +0.000 A 
ATOM     15  N   UNL     1      -4.836  11.384  16.503  0.00  0.00    +0.000 NA
ATOM     16  C   UNL     1      -3.643  11.205  17.108  0.00  0.00    +0.000 A 
ATOM     17  C   UNL     1      -3.348  11.598  18.402  0.00  0.00    +0.000 A 
ATOM     18  C   UNL     1      -4.373  12.238  19.120  0.00  0.00    +0.000 A 
ENDBRANCH   4   9
BRANCH   1  24
ATOM     19  C   UNL     1       0.771  10.661  20.186  0.00  0.00    +0.000 A 
ATOM     20  C   UNL     1       1.348   9.506  19.630  0.00  0.00    +0.000 A 
ATOM     21  C   UNL     1       1.566   8.364  20.394  0.00  0.00    +0.000 A 
ATOM     22  C   UNL     1       1.271   8.430  21.759  0.00  0.00    +0.000 A 
ATOM     23  C   UNL     1       0.742   9.581  22.335  0.00  0.00    +0.000 A 
ATOM     24  C   UNL     1       0.468  10.715  21.562  0.00  0.00    +0.000 A 
BRANCH  21  25
ATOM     25  N   UNL     1       2.074   7.185  19.880  0.00  0.00    +0.000 N 
ATOM     26  C   UNL     1       2.432   7.031  18.467  0.00  0.00    +0.000 C 
ATOM     27  C   UNL     1       3.555   5.973  18.364  0.00  0.00    +0.000 C 
ATOM     28  N   UNL     1       3.201   4.715  19.052  0.00  0.00    +0.000 N 
ATOM     29  C   UNL     1       3.437   3.430  18.610  0.00  0.00    +0.000 C 
ATOM     30  C   UNL     1       4.021   3.200  17.242  0.00  0.00    +0.000 C 
ATOM     31  O   UNL     1       3.152   2.443  19.300  0.00  0.00    +0.000 OA
ATOM     32  C   UNL     1       2.710   4.894  20.430  0.00  0.00    +0.000 C 
ATOM     33  C   UNL     1       1.583   5.933  20.493  0.00  0.00    +0.000 C 
ENDBRANCH  21  25
BRANCH  19  35
ATOM     34  C   UNL     1       1.610  12.571  19.072  0.00  0.00    +0.000 C 
ATOM     35  O   UNL     1       0.482  11.759  19.399  0.00  0.00    +0.000 OA
ENDBRANCH  19  35
ENDBRANCH   1  24
TORSDOF 4
ENDMDL
MODEL 9
REMARK VINA RESULT:      -7.7      4.099      7.546
REMARK  Name = 
REMARK  7 active torsions:
REMARK  status: ('A' for Active; 'I' for Inactive)
REMARK    1  A    between atoms: C_1  and  O_2
REMARK    2  A    between atoms: O_2  and  C_3
REMARK    3  A    between atoms: C_5  and  N_6
REMARK    4  A    between atoms: C_10  and  C_11
REMARK    5  A    between atoms: C_17  and  N_18
REMARK    6  A    between atoms: C_21  and  C_22
REMARK    7  A    between atoms: N_24  and  C_25
REMARK                            x       y       z     vdW  Elec       q    Type
REMARK                         _______ _______ _______ _____ _____    ______ ____
ROOT
ATOM      1  N   UNL     1       0.491  12.282  19.778  0.00  0.00    +0.000 N 
ATOM      2  C   UNL     1       1.183  13.468  19.551  0.00  0.00    +0.000 A 
ATOM      3  C   UNL     1       2.531  13.567  19.794  0.00  0.00    +0.000 A 
ATOM      4  C   UNL     1       3.086  14.823  19.705  0.00  0.00    +0.000 A 
ATOM      5  N   UNL     1       2.386  15.911  19.322  0.00  0.00    +0.000 NA
ATOM      6  C   UNL     1       1.089  15.704  19.073  0.00  0.00    +0.000 A 
ATOM      7  N   UNL     1       0.437  14.540  19.217  0.00  0.00    +0.000 NA
ATOM      8  H   UNL     1      -0.413  12.504  20.172  0.00  0.00    +0.000 HD
ENDROOT
BRANCH   4   9
ATOM      9  C   UNL     1       4.460  15.057  20.122  0.00  0.00    +0.000 A 
ATOM     10  C   UNL     1       4.818  15.420  21.408  0.00  0.00    +0.000 A 
ATOM     11  N   UNL     1       6.175  15.596  21.440  0.00  0.00    +0.000 N 
ATOM     12  C   UNL     1       6.922  15.966  22.620  0.00  0.00    +0.000 C 
ATOM     13  C   UNL     1       6.716  15.372  20.193  0.00  0.00    +0.000 A 
ATOM     14  C   UNL     1       8.027  15.441  19.735  0.00  0.00    +0.000 A 
ATOM     15  N   UNL     1       8.296  15.175  18.438  0.00  0.00    +0.000 NA
ATOM     16  C   UNL     1       7.278  14.846  17.614  0.00  0.00    +0.000 A 
ATOM     17  C   UNL     1       5.951  14.761  17.996  0.00  0.00    +0.000 A 
ATOM     18  C   UNL     1       5.660  15.028  19.345  0.00  0.00    +0.000 A 
ENDBRANCH   4   9
BRANCH   1  24
ATOM     19  C   UNL     1       0.862  10.093  20.943  0.00  0.00    +0.000 A 
ATOM     20  C   UNL     1       1.238   8.743  20.831  0.00  0.00    +0.000 A 
ATOM     21  C   UNL     1       1.697   8.215  19.628  0.00  0.00    +0.000 A 
ATOM     22  C   UNL     1       1.692   9.052  18.508  0.00  0.00    +0.000 A 
ATOM     23  C   UNL     1       1.279  10.378  18.591  0.00  0.00    +0.000 A 
ATOM     24  C   UNL     1       0.868  10.931  19.809  0.00  0.00    +0.000 A 
BRANCH  21  25
ATOM     25  N   UNL     1       2.136   6.912  19.483  0.00  0.00    +0.000 N 
ATOM     26  C   UNL     1       2.420   6.318  18.172  0.00  0.00    +0.000 C 
ATOM     27  C   UNL     1       3.497   5.224  18.360  0.00  0.00    +0.000 C 
ATOM     28  N   UNL     1       3.130   4.254  19.411  0.00  0.00    +0.000 N 
ATOM     29  C   UNL     1       3.297   2.886  19.375  0.00  0.00    +0.000 C 
ATOM     30  C   UNL     1       3.805   2.222  18.123  0.00  0.00    +0.000 C 
ATOM     31  O   UNL     1       3.008   2.170  20.342  0.00  0.00    +0.000 OA
ATOM     32  C   UNL     1       2.713   4.868  20.684  0.00  0.00    +0.000 C 
ATOM     33  C   UNL     1       1.629   5.931  20.465  0.00  0.00    +0.000 C 
ENDBRANCH  21  25
BRANCH  19  35
ATOM     34  C   UNL     1      -0.126   9.698  23.055  0.00  0.00    +0.000 C 
ATOM     35  O   UNL     1       0.488  10.626  22.161  0.00  0.00    +0.000 OA
ENDBRANCH  19  35
ENDBRANCH   1  24
TORSDOF 4
ENDMDL
