MODEL 1
REMARK VINA RESULT:      -7.2      0.000      0.000
REMARK  Name = 
REMARK  7 active torsions:
REMARK  status: ('A' for Active; 'I' for Inactive)
REMARK    1  A    between atoms: C_1  and  C_2
REMARK    2  A    between atoms: C_2  and  C_3
REMARK    3  A    between atoms: C_2  and  C_4
REMARK    4  A    between atoms: C_2  and  N_5
REMARK    5  A    between atoms: C_6  and  C_8
REMARK    6  A    between atoms: C_8  and  N_9
REMARK    7  A    between atoms: C_12  and  C_13
REMARK                            x       y       z     vdW  Elec       q    Type
REMARK                         _______ _______ _______ _____ _____    ______ ____
ROOT
ATOM      1  N   UNL     1       2.651   7.445  18.272  0.00  0.00    +0.000 N 
ATOM      2  N   UNL     1       2.414   8.478  17.453  0.00  0.00    +0.000 NA
ATOM      3  N   UNL     1       1.734   9.341  18.191  0.00  0.00    +0.000 NA
ATOM      4  C   UNL     1       1.582   8.774  19.436  0.00  0.00    +0.000 A 
ATOM      5  N   UNL     1       2.168   7.565  19.525  0.00  0.00    +0.000 NA
ENDROOT
BRANCH   4   6
ATOM      6  C   UNL     1       0.886   9.439  20.527  0.00  0.00    +0.000 A 
ATOM      7  C   UNL     1       0.358   8.674  21.592  0.00  0.00    +0.000 A 
ATOM      8  C   UNL     1      -0.362   9.280  22.627  0.00  0.00    +0.000 A 
ATOM      9  C   UNL     1      -0.544  10.643  22.567  0.00  0.00    +0.000 A 
ATOM     10  C   UNL     1      -0.019  11.399  21.544  0.00  0.00    +0.000 A 
ATOM     11  C   UNL     1       0.708  10.833  20.518  0.00  0.00    +0.000 A 
ATOM     12  O   UNL     1      -0.323  12.719  21.670  0.00  0.00    +0.000 OA
ATOM     13  C   UNL     1      -1.164  12.691  22.843  0.00  0.00    +0.000 C 
ATOM     14  O   UNL     1      -1.244  11.390  23.459  0.00  0.00    +0.000 OA
ENDBRANCH   4   6
BRANCH   1  15
ATOM     15  C   UNL     1       3.307   6.245  17.832  0.00  0.00    +0.000 C 
BRANCH  15  17
ATOM     16  N   UNL     1       2.890   4.409  19.406  0.00  0.00    +0.000 N 
ATOM     17  C   UNL     1       2.513   5.029  18.226  0.00  0.00    +0.000 C 
ATOM     18  O   UNL     1       1.556   4.671  17.549  0.00  0.00    +0.000 OA
ATOM     19  H   UNL     1       3.697   4.769  19.908  0.00  0.00    +0.000 HD
BRANCH  16  21
ATOM     20  C   UNL     1       2.340   2.038  18.908  0.00  0.00    +0.000 C 
ATOM     21  C   UNL     1       2.242   3.188  19.926  0.00  0.00    +0.000 C 
ATOM     22  C   UNL     1       0.767   3.462  20.256  0.00  0.00    +0.000 C 
ATOM     23  C   UNL     1       2.965   2.738  21.210  0.00  0.00    +0.000 C 
ENDBRANCH  16  21
ENDBRANCH  15  17
ENDBRANCH   1  15
TORSDOF 4
ENDMDL
MODEL 2
REMARK VINA RESULT:      -7.2      0.515      1.022
REMARK  Name = 
REMARK  7 active torsions:
REMARK  status: ('A' for Active; 'I' for Inactive)
REMARK    1  A    between atoms: C_1  and  C_2
REMARK    2  A    between atoms: C_2  and  C_3
REMARK    3  A    between atoms: C_2  and  C_4
REMARK    4  A    between atoms: C_2  and  N_5
REMARK    5  A    between atoms: C_6  and  C_8
REMARK    6  A    between atoms: C_8  and  N_9
REMARK    7  A    between atoms: C_12  and  C_13
REMARK                            x       y       z     vdW  Elec       q    Type
REMARK                         _______ _______ _______ _____ _____    ______ ____
ROOT
ATOM      1  N   UNL     1       2.690   7.374  18.321  0.00  0.00    +0.000 N 
ATOM      2  N   UNL     1       2.461   8.405  17.497  0.00  0.00    +0.000 NA
ATOM      3  N   UNL     1       1.764   9.265  18.224  0.00  0.00    +0.000 NA
ATOM      4  C   UNL     1       1.596   8.699  19.466  0.00  0.00    +0.000 A 
ATOM      5  N   UNL     1       2.186   7.493  19.566  0.00  0.00    +0.000 NA
ENDROOT
BRANCH   4   6
ATOM      6  C   UNL     1       0.878   9.361  20.545  0.00  0.00    +0.000 A 
ATOM      7  C   UNL     1       0.995   8.875  21.867  0.00  0.00    +0.000 A 
ATOM      8  C   UNL     1       0.276   9.459  22.916  0.00  0.00    +0.000 A 
ATOM      9  C   UNL     1      -0.552  10.516  22.613  0.00  0.00    +0.000 A 
ATOM     10  C   UNL     1      -0.658  11.008  21.333  0.00  0.00    +0.000 A 
ATOM     11  C   UNL     1       0.049  10.464  20.281  0.00  0.00    +0.000 A 
ATOM     12  O   UNL     1      -1.535  12.045  21.250  0.00  0.00    +0.000 OA
ATOM     13  C   UNL     1      -2.025  12.092  22.607  0.00  0.00    +0.000 C 
ATOM     14  O   UNL     1      -1.348  11.177  23.491  0.00  0.00    +0.000 OA
ENDBRANCH   4   6
BRANCH   1  15
ATOM     15  C   UNL     1       3.359   6.178  17.893  0.00  0.00    +0.000 C 
BRANCH  15  17
ATOM     16  N   UNL     1       2.882   4.358  19.470  0.00  0.00    +0.000 N 
ATOM     17  C   UNL     1       2.559   4.958  18.264  0.00  0.00    +0.000 C 
ATOM     18  O   UNL     1       1.641   4.580  17.544  0.00  0.00    +0.000 OA
ATOM     19  H   UNL     1       3.658   4.734  20.007  0.00  0.00    +0.000 HD
BRANCH  16  21
ATOM     20  C   UNL     1       0.699   3.340  20.076  0.00  0.00    +0.000 C 
ATOM     21  C   UNL     1       2.220   3.138  19.973  0.00  0.00    +0.000 C 
ATOM     22  C   UNL     1       2.785   2.750  21.348  0.00  0.00    +0.000 C 
ATOM     23  C   UNL     1       2.472   1.981  18.987  0.00  0.00    +0.000 C 
ENDBRANCH  16  21
ENDBRANCH  15  17
ENDBRANCH   1  15
TORSDOF 4
ENDMDL
MODEL 3
REMARK VINA RESULT:      -7.2      6.383      7.626
REMARK  Name = 
REMARK  7 active torsions:
REMARK  status: ('A' for Active; 'I' for Inactive)
REMARK    1  A    between atoms: C_1  and  C_2
REMARK    2  A    between atoms: C_2  and  C_3
REMARK    3  A    between atoms: C_2  and  C_4
REMARK    4  A    between atoms: C_2  and  N_5
REMARK    5  A    between atoms: C_6  and  C_8
REMARK    6  A    between atoms: C_8  and  N_9
REMARK    7  A    between atoms: C_12  and  C_13
REMARK                            x       y       z     vdW  Elec       q    Type
REMARK                         _______ _______ _______ _____ _____    ______ ____
ROOT
ATOM      1  N   UNL     1       7.749   6.385  18.097  0.00  0.00    +0.000 N 
ATOM      2  N   UNL     1       7.461   6.757  16.842  0.00  0.00    +0.000 NA
ATOM      3  N   UNL     1       7.752   8.048  16.802  0.00  0.00    +0.000 NA
ATOM      4  C   UNL     1       8.198   8.400  18.055  0.00  0.00    +0.000 A 
ATOM      5  N   UNL     1       8.220   7.356  18.904  0.00  0.00    +0.000 NA
ENDROOT
BRANCH   4   6
ATOM      6  C   UNL     1       8.620   9.751  18.392  0.00  0.00    +0.000 A 
ATOM      7  C   UNL     1       8.275  10.826  17.542  0.00  0.00    +0.000 A 
ATOM      8  C   UNL     1       8.710  12.128  17.812  0.00  0.00    +0.000 A 
ATOM      9  C   UNL     1       9.492  12.322  18.928  0.00  0.00    +0.000 A 
ATOM     10  C   UNL     1       9.818  11.285  19.772  0.00  0.00    +0.000 A 
ATOM     11  C   UNL     1       9.391   9.994  19.541  0.00  0.00    +0.000 A 
ATOM     12  O   UNL     1      10.603  11.690  20.807  0.00  0.00    +0.000 OA
ATOM     13  C   UNL     1      10.798  13.080  20.469  0.00  0.00    +0.000 C 
ATOM     14  O   UNL     1      10.032  13.503  19.323  0.00  0.00    +0.000 OA
ENDBRANCH   4   6
BRANCH   1  15
ATOM     15  C   UNL     1       7.500   5.057  18.584  0.00  0.00    +0.000 C 
BRANCH  15  17
ATOM     16  N   UNL     1       5.190   5.852  18.354  0.00  0.00    +0.000 N 
ATOM     17  C   UNL     1       6.023   4.816  18.741  0.00  0.00    +0.000 C 
ATOM     18  O   UNL     1       5.614   3.730  19.137  0.00  0.00    +0.000 OA
ATOM     19  H   UNL     1       5.610   6.721  18.038  0.00  0.00    +0.000 HD
BRANCH  16  21
ATOM     20  C   UNL     1       3.082   7.118  18.001  0.00  0.00    +0.000 C 
ATOM     21  C   UNL     1       3.718   5.798  18.469  0.00  0.00    +0.000 C 
ATOM     22  C   UNL     1       3.303   5.508  19.919  0.00  0.00    +0.000 C 
ATOM     23  C   UNL     1       3.180   4.673  17.563  0.00  0.00    +0.000 C 
ENDBRANCH  16  21
ENDBRANCH  15  17
ENDBRANCH   1  15
TORSDOF 4
ENDMDL
MODEL 4
REMARK VINA RESULT:      -7.1      2.399      3.257
REMARK  Name = 
REMARK  7 active torsions:
REMARK  status: ('A' for Active; 'I' for Inactive)
REMARK    1  A    between atoms: C_1  and  C_2
REMARK    2  A    between atoms: C_2  and  C_3
REMARK    3  A    between atoms: C_2  and  C_4
REMARK    4  A    between atoms: C_2  and  N_5
REMARK    5  A    between atoms: C_6  and  C_8
REMARK    6  A    between atoms: C_8  and  N_9
REMARK    7  A    between atoms: C_12  and  C_13
REMARK                            x       y       z     vdW  Elec       q    Type
REMARK                         _______ _______ _______ _____ _____    ______ ____
ROOT
ATOM      1  N   UNL     1       2.892   6.088  18.886  0.00  0.00    +0.000 N 
ATOM      2  N   UNL     1       3.010   7.002  17.914  0.00  0.00    +0.000 NA
ATOM      3  N   UNL     1       2.413   8.081  18.396  0.00  0.00    +0.000 NA
ATOM      4  C   UNL     1       1.949   7.758  19.650  0.00  0.00    +0.000 A 
ATOM      5  N   UNL     1       2.249   6.493  19.999  0.00  0.00    +0.000 NA
ENDROOT
BRANCH   4   6
ATOM      6  C   UNL     1       1.238   8.704  20.496  0.00  0.00    +0.000 A 
ATOM      7  C   UNL     1       1.221   8.517  21.897  0.00  0.00    +0.000 A 
ATOM      8  C   UNL     1       0.504   9.380  22.732  0.00  0.00    +0.000 A 
ATOM      9  C   UNL     1      -0.190  10.411  22.140  0.00  0.00    +0.000 A 
ATOM     10  C   UNL     1      -0.164  10.614  20.779  0.00  0.00    +0.000 A 
ATOM     11  C   UNL     1       0.547   9.789  19.932  0.00  0.00    +0.000 A 
ATOM     12  O   UNL     1      -0.922  11.679  20.402  0.00  0.00    +0.000 OA
ATOM     13  C   UNL     1      -1.488  12.070  21.671  0.00  0.00    +0.000 C 
ATOM     14  O   UNL     1      -0.966  11.319  22.785  0.00  0.00    +0.000 OA
ENDBRANCH   4   6
BRANCH   1  15
ATOM     15  C   UNL     1       3.347   4.734  18.732  0.00  0.00    +0.000 C 
BRANCH  15  17
ATOM     16  N   UNL     1       5.541   5.688  18.187  0.00  0.00    +0.000 N 
ATOM     17  C   UNL     1       4.848   4.665  18.812  0.00  0.00    +0.000 C 
ATOM     18  O   UNL     1       5.392   3.772  19.452  0.00  0.00    +0.000 OA
ATOM     19  H   UNL     1       5.015   6.390  17.675  0.00  0.00    +0.000 HD
BRANCH  16  21
ATOM     20  C   UNL     1       7.597   4.595  17.320  0.00  0.00    +0.000 C 
ATOM     21  C   UNL     1       7.016   5.761  18.140  0.00  0.00    +0.000 C 
ATOM     22  C   UNL     1       7.600   5.738  19.559  0.00  0.00    +0.000 C 
ATOM     23  C   UNL     1       7.437   7.072  17.448  0.00  0.00    +0.000 C 
ENDBRANCH  16  21
ENDBRANCH  15  17
ENDBRANCH   1  15
TORSDOF 4
ENDMDL
MODEL 5
REMARK VINA RESULT:      -7.1      4.492      5.977
REMARK  Name = 
REMARK  7 active torsions:
REMARK  status: ('A' for Active; 'I' for Inactive)
REMARK    1  A    between atoms: C_1  and  C_2
REMARK    2  A    between atoms: C_2  and  C_3
REMARK    3  A    between atoms: C_2  and  C_4
REMARK    4  A    between atoms: C_2  and  N_5
REMARK    5  A    between atoms: C_6  and  C_8
REMARK    6  A    between atoms: C_8  and  N_9
REMARK    7  A    between atoms: C_12  and  C_13
REMARK                            x       y       z     vdW  Elec       q    Type
REMARK                         _______ _______ _______ _____ _____    ______ ____
ROOT
ATOM      1  N   UNL     1       5.487   4.564  16.562  0.00  0.00    +0.000 N 
ATOM      2  N   UNL     1       4.499   3.669  16.689  0.00  0.00    +0.000 NA
ATOM      3  N   UNL     1       3.541   4.318  17.333  0.00  0.00    +0.000 NA
ATOM      4  C   UNL     1       4.009   5.589  17.576  0.00  0.00    +0.000 A 
ATOM      5  N   UNL     1       5.248   5.783  17.085  0.00  0.00    +0.000 NA
ENDROOT
BRANCH   4   6
ATOM      6  C   UNL     1       3.223   6.601  18.265  0.00  0.00    +0.000 A 
ATOM      7  C   UNL     1       2.741   6.347  19.570  0.00  0.00    +0.000 A 
ATOM      8  C   UNL     1       1.939   7.279  20.237  0.00  0.00    +0.000 A 
ATOM      9  C   UNL     1       1.630   8.446  19.575  0.00  0.00    +0.000 A 
ATOM     10  C   UNL     1       2.110   8.711  18.313  0.00  0.00    +0.000 A 
ATOM     11  C   UNL     1       2.915   7.819  17.636  0.00  0.00    +0.000 A 
ATOM     12  O   UNL     1       1.679   9.912  17.839  0.00  0.00    +0.000 OA
ATOM     13  C   UNL     1       0.812  10.330  18.914  0.00  0.00    +0.000 C 
ATOM     14  O   UNL     1       0.839   9.442  20.050  0.00  0.00    +0.000 OA
ENDBRANCH   4   6
BRANCH   1  15
ATOM     15  C   UNL     1       6.758   4.234  15.980  0.00  0.00    +0.000 C 
BRANCH  15  17
ATOM     16  N   UNL     1       6.208   3.324  13.768  0.00  0.00    +0.000 N 
ATOM     17  C   UNL     1       6.715   4.395  14.484  0.00  0.00    +0.000 C 
ATOM     18  O   UNL     1       7.063   5.451  13.966  0.00  0.00    +0.000 OA
ATOM     19  H   UNL     1       5.942   2.483  14.274  0.00  0.00    +0.000 HD
BRANCH  16  21
ATOM     20  C   UNL     1       4.724   3.732  11.818  0.00  0.00    +0.000 C 
ATOM     21  C   UNL     1       6.122   3.298  12.294  0.00  0.00    +0.000 C 
ATOM     22  C   UNL     1       6.437   1.893  11.762  0.00  0.00    +0.000 C 
ATOM     23  C   UNL     1       7.143   4.293  11.710  0.00  0.00    +0.000 C 
ENDBRANCH  16  21
ENDBRANCH  15  17
ENDBRANCH   1  15
TORSDOF 4
ENDMDL
MODEL 6
REMARK VINA RESULT:      -7.1      0.946      1.701
REMARK  Name = 
REMARK  7 active torsions:
REMARK  status: ('A' for Active; 'I' for Inactive)
REMARK    1  A    between atoms: C_1  and  C_2
REMARK    2  A    between atoms: C_2  and  C_3
REMARK    3  A    between atoms: C_2  and  C_4
REMARK    4  A    between atoms: C_2  and  N_5
REMARK    5  A    between atoms: C_6  and  C_8
REMARK    6  A    between atoms: C_8  and  N_9
REMARK    7  A    between atoms: C_12  and  C_13
REMARK                            x       y       z     vdW  Elec       q    Type
REMARK                         _______ _______ _______ _____ _____    ______ ____
ROOT
ATOM      1  N   UNL     1       2.900   7.490  18.239  0.00  0.00    +0.000 N 
ATOM      2  N   UNL     1       2.861   8.343  17.207  0.00  0.00    +0.000 NA
ATOM      3  N   UNL     1       2.011   9.286  17.585  0.00  0.00    +0.000 NA
ATOM      4  C   UNL     1       1.565   8.946  18.841  0.00  0.00    +0.000 A 
ATOM      5  N   UNL     1       2.124   7.808  19.294  0.00  0.00    +0.000 NA
ENDROOT
BRANCH   4   6
ATOM      6  C   UNL     1       0.616   9.757  19.588  0.00  0.00    +0.000 A 
ATOM      7  C   UNL     1      -0.364  10.505  18.896  0.00  0.00    +0.000 A 
ATOM      8  C   UNL     1      -1.256  11.334  19.582  0.00  0.00    +0.000 A 
ATOM      9  C   UNL     1      -1.141  11.402  20.952  0.00  0.00    +0.000 A 
ATOM     10  C   UNL     1      -0.204  10.663  21.637  0.00  0.00    +0.000 A 
ATOM     11  C   UNL     1       0.680   9.825  20.989  0.00  0.00    +0.000 A 
ATOM     12  O   UNL     1      -0.253  10.883  22.979  0.00  0.00    +0.000 OA
ATOM     13  C   UNL     1      -1.273  11.903  23.047  0.00  0.00    +0.000 C 
ATOM     14  O   UNL     1      -1.893  12.178  21.775  0.00  0.00    +0.000 OA
ENDBRANCH   4   6
BRANCH   1  15
ATOM     15  C   UNL     1       3.657   6.270  18.204  0.00  0.00    +0.000 C 
BRANCH  15  17
ATOM     16  N   UNL     1       2.940   4.448  19.684  0.00  0.00    +0.000 N 
ATOM     17  C   UNL     1       2.768   5.085  18.466  0.00  0.00    +0.000 C 
ATOM     18  O   UNL     1       1.909   4.764  17.651  0.00  0.00    +0.000 OA
ATOM     19  H   UNL     1       3.676   4.776  20.303  0.00  0.00    +0.000 HD
BRANCH  16  21
ATOM     20  C   UNL     1       2.600   2.783  21.495  0.00  0.00    +0.000 C 
ATOM     21  C   UNL     1       2.175   3.253  20.092  0.00  0.00    +0.000 C 
ATOM     22  C   UNL     1       2.378   2.115  19.081  0.00  0.00    +0.000 C 
ATOM     23  C   UNL     1       0.676   3.605  20.152  0.00  0.00    +0.000 C 
ENDBRANCH  16  21
ENDBRANCH  15  17
ENDBRANCH   1  15
TORSDOF 4
ENDMDL
MODEL 7
REMARK VINA RESULT:      -7.0      2.519      4.185
REMARK  Name = 
REMARK  7 active torsions:
REMARK  status: ('A' for Active; 'I' for Inactive)
REMARK    1  A    between atoms: C_1  and  C_2
REMARK    2  A    between atoms: C_2  and  C_3
REMARK    3  A    between atoms: C_2  and  C_4
REMARK    4  A    between atoms: C_2  and  N_5
REMARK    5  A    between atoms: C_6  and  C_8
REMARK    6  A    between atoms: C_8  and  N_9
REMARK    7  A    between atoms: C_12  and  C_13
REMARK                            x       y       z     vdW  Elec       q    Type
REMARK                         _______ _______ _______ _____ _____    ______ ____
ROOT
ATOM      1  N   UNL     1       3.346   4.534  19.840  0.00  0.00    +0.000 N 
ATOM      2  N   UNL     1       2.316   4.233  20.643  0.00  0.00    +0.000 NA
ATOM      3  N   UNL     1       1.633   5.362  20.748  0.00  0.00    +0.000 NA
ATOM      4  C   UNL     1       2.298   6.307  20.001  0.00  0.00    +0.000 A 
ATOM      5  N   UNL     1       3.393   5.806  19.397  0.00  0.00    +0.000 NA
ENDROOT
BRANCH   4   6
ATOM      6  C   UNL     1       1.836   7.680  19.872  0.00  0.00    +0.000 A 
ATOM      7  C   UNL     1       1.902   8.327  18.617  0.00  0.00    +0.000 A 
ATOM      8  C   UNL     1       1.513   9.663  18.473  0.00  0.00    +0.000 A 
ATOM      9  C   UNL     1       1.073  10.325  19.596  0.00  0.00    +0.000 A 
ATOM     10  C   UNL     1       0.987   9.699  20.818  0.00  0.00    +0.000 A 
ATOM     11  C   UNL     1       1.348   8.378  20.988  0.00  0.00    +0.000 A 
ATOM     12  O   UNL     1       0.538  10.533  21.795  0.00  0.00    +0.000 OA
ATOM     13  C   UNL     1       0.430  11.772  21.063  0.00  0.00    +0.000 C 
ATOM     14  O   UNL     1       0.693  11.627  19.653  0.00  0.00    +0.000 OA
ENDBRANCH   4   6
BRANCH   1  15
ATOM     15  C   UNL     1       4.384   3.592  19.529  0.00  0.00    +0.000 C 
BRANCH  15  17
ATOM     16  N   UNL     1       4.990   4.397  17.291  0.00  0.00    +0.000 N 
ATOM     17  C   UNL     1       5.398   4.203  18.601  0.00  0.00    +0.000 C 
ATOM     18  O   UNL     1       6.493   4.553  19.027  0.00  0.00    +0.000 OA
ATOM     19  H   UNL     1       4.065   4.077  17.018  0.00  0.00    +0.000 HD
BRANCH  16  21
ATOM     20  C   UNL     1       7.334   4.569  16.488  0.00  0.00    +0.000 C 
ATOM     21  C   UNL     1       5.865   4.955  16.241  0.00  0.00    +0.000 C 
ATOM     22  C   UNL     1       5.734   6.484  16.190  0.00  0.00    +0.000 C 
ATOM     23  C   UNL     1       5.453   4.374  14.875  0.00  0.00    +0.000 C 
ENDBRANCH  16  21
ENDBRANCH  15  17
ENDBRANCH   1  15
TORSDOF 4
ENDMDL
MODEL 8
REMARK VINA RESULT:      -7.0      2.630      8.105
REMARK  Name = 
REMARK  7 active torsions:
REMARK  status: ('A' for Active; 'I' for Inactive)
REMARK    1  A    between atoms: C_1  and  C_2
REMARK    2  A    between atoms: C_2  and  C_3
REMARK    3  A    between atoms: C_2  and  C_4
REMARK    4  A    between atoms: C_2  and  N_5
REMARK    5  A    between atoms: C_6  and  C_8
REMARK    6  A    between atoms: C_8  and  N_9
REMARK    7  A    between atoms: C_12  and  C_13
REMARK                            x       y       z     vdW  Elec       q    Type
REMARK                         _______ _______ _______ _____ _____    ______ ____
ROOT
ATOM      1  N   UNL     1       1.831   7.649  19.987  0.00  0.00    +0.000 N 
ATOM      2  N   UNL     1       1.960   8.661  19.119  0.00  0.00    +0.000 NA
ATOM      3  N   UNL     1       2.681   8.162  18.128  0.00  0.00    +0.000 NA
ATOM      4  C   UNL     1       2.966   6.855  18.455  0.00  0.00    +0.000 A 
ATOM      5  N   UNL     1       2.426   6.492  19.634  0.00  0.00    +0.000 NA
ENDROOT
BRANCH   4   6
ATOM      6  C   UNL     1       3.742   5.977  17.594  0.00  0.00    +0.000 A 
ATOM      7  C   UNL     1       3.584   4.576  17.695  0.00  0.00    +0.000 A 
ATOM      8  C   UNL     1       4.354   3.705  16.917  0.00  0.00    +0.000 A 
ATOM      9  C   UNL     1       5.275   4.260  16.058  0.00  0.00    +0.000 A 
ATOM     10  C   UNL     1       5.424   5.623  15.939  0.00  0.00    +0.000 A 
ATOM     11  C   UNL     1       4.669   6.507  16.680  0.00  0.00    +0.000 A 
ATOM     12  O   UNL     1       6.392   5.960  15.044  0.00  0.00    +0.000 OA
ATOM     13  C   UNL     1       6.887   4.654  14.678  0.00  0.00    +0.000 C 
ATOM     14  O   UNL     1       6.130   3.573  15.259  0.00  0.00    +0.000 OA
ENDBRANCH   4   6
BRANCH   1  15
ATOM     15  C   UNL     1       1.171   7.798  21.254  0.00  0.00    +0.000 C 
BRANCH  15  17
ATOM     16  N   UNL     1      -0.036   9.900  20.871  0.00  0.00    +0.000 N 
ATOM     17  C   UNL     1       0.963   9.252  21.578  0.00  0.00    +0.000 C 
ATOM     18  O   UNL     1       1.619   9.786  22.466  0.00  0.00    +0.000 OA
ATOM     19  H   UNL     1      -0.533   9.385  20.150  0.00  0.00    +0.000 HD
BRANCH  16  21
ATOM     20  C   UNL     1      -0.780  11.633  22.488  0.00  0.00    +0.000 C 
ATOM     21  C   UNL     1      -0.354  11.332  21.040  0.00  0.00    +0.000 C 
ATOM     22  C   UNL     1      -1.471  11.751  20.074  0.00  0.00    +0.000 C 
ATOM     23  C   UNL     1       0.904  12.169  20.740  0.00  0.00    +0.000 C 
ENDBRANCH  16  21
ENDBRANCH  15  17
ENDBRANCH   1  15
TORSDOF 4
ENDMDL
MODEL 9
REMARK VINA RESULT:      -7.0      2.870      7.165
REMARK  Name = 
REMARK  7 active torsions:
REMARK  status: ('A' for Active; 'I' for Inactive)
REMARK    1  A    between atoms: C_1  and  C_2
REMARK    2  A    between atoms: C_2  and  C_3
REMARK    3  A    between atoms: C_2  and  C_4
REMARK    4  A    between atoms: C_2  and  N_5
REMARK    5  A    between atoms: C_6  and  C_8
REMARK    6  A    between atoms: C_8  and  N_9
REMARK    7  A    between atoms: C_12  and  C_13
REMARK                            x       y       z     vdW  Elec       q    Type
REMARK                         _______ _______ _______ _____ _____    ______ ____
ROOT
ATOM      1  N   UNL     1       1.356   9.863  18.638  0.00  0.00    +0.000 N 
ATOM      2  N   UNL     1       1.965   9.741  17.451  0.00  0.00    +0.000 NA
ATOM      3  N   UNL     1       2.490   8.525  17.469  0.00  0.00    +0.000 NA
ATOM      4  C   UNL     1       2.175   7.968  18.687  0.00  0.00    +0.000 A 
ATOM      5  N   UNL     1       1.439   8.794  19.455  0.00  0.00    +0.000 NA
ENDROOT
BRANCH   4   6
ATOM      6  C   UNL     1       2.580   6.624  19.068  0.00  0.00    +0.000 A 
ATOM      7  C   UNL     1       3.459   5.894  18.236  0.00  0.00    +0.000 A 
ATOM      8  C   UNL     1       3.825   4.581  18.549  0.00  0.00    +0.000 A 
ATOM      9  C   UNL     1       3.294   4.024  19.690  0.00  0.00    +0.000 A 
ATOM     10  C   UNL     1       2.453   4.733  20.517  0.00  0.00    +0.000 A 
ATOM     11  C   UNL     1       2.086   6.034  20.243  0.00  0.00    +0.000 A 
ATOM     12  O   UNL     1       2.035   3.996  21.582  0.00  0.00    +0.000 OA
ATOM     13  C   UNL     1       2.645   2.722  21.284  0.00  0.00    +0.000 C 
ATOM     14  O   UNL     1       3.507   2.757  20.129  0.00  0.00    +0.000 OA
ENDBRANCH   4   6
BRANCH   1  15
ATOM     15  C   UNL     1       0.719  11.080  19.057  0.00  0.00    +0.000 C 
BRANCH  15  17
ATOM     16  N   UNL     1      -1.105  10.373  17.575  0.00  0.00    +0.000 N 
ATOM     17  C   UNL     1      -0.749  11.054  18.727  0.00  0.00    +0.000 C 
ATOM     18  O   UNL     1      -1.563  11.565  19.489  0.00  0.00    +0.000 OA
ATOM     19  H   UNL     1      -0.369   9.977  16.997  0.00  0.00    +0.000 HD
BRANCH  16  21
ATOM     20  C   UNL     1      -3.166  11.657  17.053  0.00  0.00    +0.000 C 
ATOM     21  C   UNL     1      -2.495  10.273  17.086  0.00  0.00    +0.000 C 
ATOM     22  C   UNL     1      -3.310   9.322  17.974  0.00  0.00    +0.000 C 
ATOM     23  C   UNL     1      -2.487   9.725  15.645  0.00  0.00    +0.000 C 
ENDBRANCH  16  21
ENDBRANCH  15  17
ENDBRANCH   1  15
TORSDOF 4
ENDMDL
