MODEL 1
REMARK VINA RESULT:      -7.3      0.000      0.000
REMARK  Name = 
REMARK  8 active torsions:
REMARK  status: ('A' for Active; 'I' for Inactive)
REMARK    1  A    between atoms: C_1  and  C_2
REMARK    2  A    between atoms: C_3  and  C_4
REMARK    3  A    between atoms: C_4  and  O_6
REMARK    4  A    between atoms: N_13  and  C_14
REMARK    5  A    between atoms: C_20  and  O_21
REMARK    6  A    between atoms: O_21  and  C_22
REMARK    7  A    between atoms: C_22  and  C_23
REMARK    8  A    between atoms: C_22  and  C_24
REMARK                            x       y       z     vdW  Elec       q    Type
REMARK                         _______ _______ _______ _____ _____    ______ ____
ROOT
ATOM      1  C   UNL     1       0.225   9.443  17.487  0.00  0.00    +0.000 C 
ATOM      2  C   UNL     1      -0.082  10.057  18.817  0.00  0.00    +0.000 A 
ATOM      3  C   UNL     1      -0.990  11.100  19.032  0.00  0.00    +0.000 A 
ATOM      4  S   UNL     1      -1.114  11.489  20.695  0.00  0.00    +0.000 S 
ATOM      5  C   UNL     1       0.016  10.313  21.141  0.00  0.00    +0.000 A 
ATOM      6  N   UNL     1       0.295  10.162  22.443  0.00  0.00    +0.000 NA
ATOM      7  C   UNL     1       1.195   9.214  22.662  0.00  0.00    +0.000 A 
ATOM      8  N   UNL     1       1.792   8.458  21.739  0.00  0.00    +0.000 NA
ATOM      9  C   UNL     1       1.479   8.599  20.420  0.00  0.00    +0.000 A 
ATOM     10  N   UNL     1       2.108   7.709  19.529  0.00  0.00    +0.000 N 
ATOM     11  C   UNL     1       0.538   9.605  20.071  0.00  0.00    +0.000 A 
ATOM     12  H   UNL     1       2.019   7.901  18.538  0.00  0.00    +0.000 HD
ENDROOT
BRANCH  10  13
ATOM     13  C   UNL     1       2.357   6.338  19.800  0.00  0.00    +0.000 A 
ATOM     14  C   UNL     1       1.413   5.614  20.568  0.00  0.00    +0.000 A 
ATOM     15  C   UNL     1       1.557   4.255  20.831  0.00  0.00    +0.000 A 
ATOM     16  C   UNL     1       2.651   3.588  20.316  0.00  0.00    +0.000 A 
ATOM     17  F   UNL     1       2.787   2.275  20.540  0.00  0.00    +0.000 F 
ATOM     18  C   UNL     1       3.605   4.264  19.567  0.00  0.00    +0.000 A 
ATOM     19  C   UNL     1       3.488   5.643  19.326  0.00  0.00    +0.000 A 
BRANCH  19  20
ATOM     20  O   UNL     1       4.524   6.128  18.572  0.00  0.00    +0.000 OA
BRANCH  20  21
ATOM     21  C   UNL     1       5.378   5.209  17.881  0.00  0.00    +0.000 C 
ATOM     22  C   UNL     1       5.168   5.387  16.378  0.00  0.00    +0.000 C 
BRANCH  21  23
ATOM     23  C   UNL     1       6.812   5.575  18.254  0.00  0.00    +0.000 C 
ATOM     24  F   UNL     1       7.619   4.498  18.023  0.00  0.00    +0.000 F 
ENDBRANCH  21  23
ENDBRANCH  20  21
ENDBRANCH  19  20
ENDBRANCH  10  13
BRANCH   3  25
ATOM     25  C   UNL     1      -1.805  11.839  18.064  0.00  0.00    +0.000 C 
ATOM     26  O   UNL     1      -2.969  11.602  17.783  0.00  0.00    +0.000 OA
BRANCH  25  27
ATOM     27  O   UNL     1      -1.135  12.854  17.459  0.00  0.00    +0.000 OA
ATOM     28  H   UNL     1      -0.958  12.668  16.518  0.00  0.00    +0.000 HD
ENDBRANCH  25  27
ENDBRANCH   3  25
TORSDOF 6
ENDMDL
MODEL 2
REMARK VINA RESULT:      -7.2      4.728      6.949
REMARK  Name = 
REMARK  8 active torsions:
REMARK  status: ('A' for Active; 'I' for Inactive)
REMARK    1  A    between atoms: C_1  and  C_2
REMARK    2  A    between atoms: C_3  and  C_4
REMARK    3  A    between atoms: C_4  and  O_6
REMARK    4  A    between atoms: N_13  and  C_14
REMARK    5  A    between atoms: C_20  and  O_21
REMARK    6  A    between atoms: O_21  and  C_22
REMARK    7  A    between atoms: C_22  and  C_23
REMARK    8  A    between atoms: C_22  and  C_24
REMARK                            x       y       z     vdW  Elec       q    Type
REMARK                         _______ _______ _______ _____ _____    ______ ____
ROOT
ATOM      1  C   UNL     1       3.413   2.069  18.833  0.00  0.00    +0.000 C 
ATOM      2  C   UNL     1       2.988   3.407  19.353  0.00  0.00    +0.000 A 
ATOM      3  C   UNL     1       2.418   3.638  20.610  0.00  0.00    +0.000 A 
ATOM      4  S   UNL     1       2.123   5.305  20.867  0.00  0.00    +0.000 S 
ATOM      5  C   UNL     1       2.725   5.733  19.346  0.00  0.00    +0.000 A 
ATOM      6  N   UNL     1       2.753   7.031  19.016  0.00  0.00    +0.000 NA
ATOM      7  C   UNL     1       3.243   7.235  17.801  0.00  0.00    +0.000 A 
ATOM      8  N   UNL     1       3.678   6.301  16.954  0.00  0.00    +0.000 NA
ATOM      9  C   UNL     1       3.673   4.985  17.311  0.00  0.00    +0.000 A 
ATOM     10  N   UNL     1       4.217   4.083  16.379  0.00  0.00    +0.000 N 
ATOM     11  C   UNL     1       3.147   4.652  18.588  0.00  0.00    +0.000 A 
ATOM     12  H   UNL     1       4.076   3.094  16.550  0.00  0.00    +0.000 HD
ENDROOT
BRANCH  10  13
ATOM     13  C   UNL     1       5.362   4.340  15.580  0.00  0.00    +0.000 A 
ATOM     14  C   UNL     1       5.229   4.315  14.171  0.00  0.00    +0.000 A 
ATOM     15  C   UNL     1       6.289   4.609  13.319  0.00  0.00    +0.000 A 
ATOM     16  C   UNL     1       7.510   4.950  13.867  0.00  0.00    +0.000 A 
ATOM     17  F   UNL     1       8.531   5.261  13.060  0.00  0.00    +0.000 F 
ATOM     18  C   UNL     1       7.685   4.977  15.244  0.00  0.00    +0.000 A 
ATOM     19  C   UNL     1       6.631   4.646  16.112  0.00  0.00    +0.000 A 
BRANCH  19  20
ATOM     20  O   UNL     1       6.998   4.728  17.430  0.00  0.00    +0.000 OA
BRANCH  20  21
ATOM     21  C   UNL     1       7.683   5.898  17.895  0.00  0.00    +0.000 C 
ATOM     22  C   UNL     1       6.919   7.130  17.412  0.00  0.00    +0.000 C 
BRANCH  21  23
ATOM     23  C   UNL     1       7.669   5.840  19.420  0.00  0.00    +0.000 C 
ATOM     24  F   UNL     1       6.459   5.363  19.835  0.00  0.00    +0.000 F 
ENDBRANCH  21  23
ENDBRANCH  20  21
ENDBRANCH  19  20
ENDBRANCH  10  13
BRANCH   3  25
ATOM     25  C   UNL     1       2.079   2.682  21.668  0.00  0.00    +0.000 C 
ATOM     26  O   UNL     1       2.878   2.031  22.323  0.00  0.00    +0.000 OA
BRANCH  25  27
ATOM     27  O   UNL     1       0.743   2.558  21.875  0.00  0.00    +0.000 OA
ATOM     28  H   UNL     1       0.419   1.665  21.650  0.00  0.00    +0.000 HD
ENDBRANCH  25  27
ENDBRANCH   3  25
TORSDOF 6
ENDMDL
MODEL 3
REMARK VINA RESULT:      -7.1      2.644      4.410
REMARK  Name = 
REMARK  8 active torsions:
REMARK  status: ('A' for Active; 'I' for Inactive)
REMARK    1  A    between atoms: C_1  and  C_2
REMARK    2  A    between atoms: C_3  and  C_4
REMARK    3  A    between atoms: C_4  and  O_6
REMARK    4  A    between atoms: N_13  and  C_14
REMARK    5  A    between atoms: C_20  and  O_21
REMARK    6  A    between atoms: O_21  and  C_22
REMARK    7  A    between atoms: C_22  and  C_23
REMARK    8  A    between atoms: C_22  and  C_24
REMARK                            x       y       z     vdW  Elec       q    Type
REMARK                         _______ _______ _______ _____ _____    ______ ____
ROOT
ATOM      1  C   UNL     1       0.268   7.710  21.441  0.00  0.00    +0.000 C 
ATOM      2  C   UNL     1       0.452   9.131  21.007  0.00  0.00    +0.000 A 
ATOM      3  C   UNL     1       0.079  10.254  21.751  0.00  0.00    +0.000 A 
ATOM      4  S   UNL     1       0.507  11.706  20.950  0.00  0.00    +0.000 S 
ATOM      5  C   UNL     1       1.170  10.883  19.631  0.00  0.00    +0.000 A 
ATOM      6  N   UNL     1       1.716  11.603  18.641  0.00  0.00    +0.000 NA
ATOM      7  C   UNL     1       2.196  10.842  17.667  0.00  0.00    +0.000 A 
ATOM      8  N   UNL     1       2.174   9.510  17.615  0.00  0.00    +0.000 NA
ATOM      9  C   UNL     1       1.643   8.786  18.641  0.00  0.00    +0.000 A 
ATOM     10  N   UNL     1       1.729   7.386  18.528  0.00  0.00    +0.000 N 
ATOM     11  C   UNL     1       1.079   9.503  19.730  0.00  0.00    +0.000 A 
ATOM     12  H   UNL     1       1.199   6.831  19.191  0.00  0.00    +0.000 HD
ENDROOT
BRANCH  10  13
ATOM     13  C   UNL     1       2.845   6.686  17.998  0.00  0.00    +0.000 A 
ATOM     14  C   UNL     1       4.000   7.421  17.638  0.00  0.00    +0.000 A 
ATOM     15  C   UNL     1       5.153   6.804  17.163  0.00  0.00    +0.000 A 
ATOM     16  C   UNL     1       5.176   5.427  17.051  0.00  0.00    +0.000 A 
ATOM     17  F   UNL     1       6.289   4.820  16.621  0.00  0.00    +0.000 F 
ATOM     18  C   UNL     1       4.061   4.671  17.385  0.00  0.00    +0.000 A 
ATOM     19  C   UNL     1       2.879   5.287  17.830  0.00  0.00    +0.000 A 
BRANCH  19  20
ATOM     20  O   UNL     1       1.892   4.377  18.107  0.00  0.00    +0.000 OA
BRANCH  20  21
ATOM     21  C   UNL     1       1.993   3.571  19.287  0.00  0.00    +0.000 C 
ATOM     22  C   UNL     1       1.059   4.149  20.350  0.00  0.00    +0.000 C 
BRANCH  21  23
ATOM     23  C   UNL     1       1.539   2.166  18.902  0.00  0.00    +0.000 C 
ATOM     24  F   UNL     1       0.199   2.189  18.642  0.00  0.00    +0.000 F 
ENDBRANCH  21  23
ENDBRANCH  20  21
ENDBRANCH  19  20
ENDBRANCH  10  13
BRANCH   3  25
ATOM     25  C   UNL     1      -0.579  10.329  23.058  0.00  0.00    +0.000 C 
ATOM     26  O   UNL     1      -1.635  10.893  23.294  0.00  0.00    +0.000 OA
BRANCH  25  27
ATOM     27  O   UNL     1       0.111   9.699  24.045  0.00  0.00    +0.000 OA
ATOM     28  H   UNL     1      -0.024   8.733  24.028  0.00  0.00    +0.000 HD
ENDBRANCH  25  27
ENDBRANCH   3  25
TORSDOF 6
ENDMDL
MODEL 4
REMARK VINA RESULT:      -7.0      1.759      1.936
REMARK  Name = 
REMARK  8 active torsions:
REMARK  status: ('A' for Active; 'I' for Inactive)
REMARK    1  A    between atoms: C_1  and  C_2
REMARK    2  A    between atoms: C_3  and  C_4
REMARK    3  A    between atoms: C_4  and  O_6
REMARK    4  A    between atoms: N_13  and  C_14
REMARK    5  A    between atoms: C_20  and  O_21
REMARK    6  A    between atoms: O_21  and  C_22
REMARK    7  A    between atoms: C_22  and  C_23
REMARK    8  A    between atoms: C_22  and  C_24
REMARK                            x       y       z     vdW  Elec       q    Type
REMARK                         _______ _______ _______ _____ _____    ______ ____
ROOT
ATOM      1  C   UNL     1       2.119  10.531  17.616  0.00  0.00    +0.000 C 
ATOM      2  C   UNL     1       1.188  10.537  18.788  0.00  0.00    +0.000 A 
ATOM      3  C   UNL     1       0.295  11.567  19.101  0.00  0.00    +0.000 A 
ATOM      4  S   UNL     1      -0.645  11.184  20.480  0.00  0.00    +0.000 S 
ATOM      5  C   UNL     1       0.108   9.684  20.681  0.00  0.00    +0.000 A 
ATOM      6  N   UNL     1      -0.302   8.896  21.685  0.00  0.00    +0.000 NA
ATOM      7  C   UNL     1       0.367   7.753  21.737  0.00  0.00    +0.000 A 
ATOM      8  N   UNL     1       1.345   7.367  20.917  0.00  0.00    +0.000 NA
ATOM      9  C   UNL     1       1.735   8.163  19.881  0.00  0.00    +0.000 A 
ATOM     10  N   UNL     1       2.725   7.639  19.029  0.00  0.00    +0.000 N 
ATOM     11  C   UNL     1       1.096   9.424  19.745  0.00  0.00    +0.000 A 
ATOM     12  H   UNL     1       3.144   8.272  18.358  0.00  0.00    +0.000 HD
ENDROOT
BRANCH  10  13
ATOM     13  C   UNL     1       2.804   6.281  18.623  0.00  0.00    +0.000 A 
ATOM     14  C   UNL     1       1.635   5.647  18.137  0.00  0.00    +0.000 A 
ATOM     15  C   UNL     1       1.641   4.337  17.668  0.00  0.00    +0.000 A 
ATOM     16  C   UNL     1       2.831   3.635  17.666  0.00  0.00    +0.000 A 
ATOM     17  F   UNL     1       2.856   2.382  17.194  0.00  0.00    +0.000 F 
ATOM     18  C   UNL     1       3.997   4.217  18.144  0.00  0.00    +0.000 A 
ATOM     19  C   UNL     1       3.994   5.526  18.653  0.00  0.00    +0.000 A 
BRANCH  19  20
ATOM     20  O   UNL     1       5.235   5.922  19.076  0.00  0.00    +0.000 OA
BRANCH  20  21
ATOM     21  C   UNL     1       6.366   5.719  18.220  0.00  0.00    +0.000 C 
ATOM     22  C   UNL     1       6.430   6.873  17.221  0.00  0.00    +0.000 C 
BRANCH  21  23
ATOM     23  C   UNL     1       7.603   5.732  19.113  0.00  0.00    +0.000 C 
ATOM     24  F   UNL     1       8.266   6.913  18.935  0.00  0.00    +0.000 F 
ENDBRANCH  21  23
ENDBRANCH  20  21
ENDBRANCH  19  20
ENDBRANCH  10  13
BRANCH   3  25
ATOM     25  C   UNL     1       0.075  12.846  18.421  0.00  0.00    +0.000 C 
ATOM     26  O   UNL     1       0.728  13.865  18.589  0.00  0.00    +0.000 OA
BRANCH  25  27
ATOM     27  O   UNL     1      -0.968  12.823  17.552  0.00  0.00    +0.000 OA
ATOM     28  H   UNL     1      -0.720  13.165  16.672  0.00  0.00    +0.000 HD
ENDBRANCH  25  27
ENDBRANCH   3  25
TORSDOF 6
ENDMDL
MODEL 5
REMARK VINA RESULT:      -6.9      1.116      1.130
REMARK  Name = 
REMARK  8 active torsions:
REMARK  status: ('A' for Active; 'I' for Inactive)
REMARK    1  A    between atoms: C_1  and  C_2
REMARK    2  A    between atoms: C_3  and  C_4
REMARK    3  A    between atoms: C_4  and  O_6
REMARK    4  A    between atoms: N_13  and  C_14
REMARK    5  A    between atoms: C_20  and  O_21
REMARK    6  A    between atoms: O_21  and  C_22
REMARK    7  A    between atoms: C_22  and  C_23
REMARK    8  A    between atoms: C_22  and  C_24
REMARK                            x       y       z     vdW  Elec       q    Type
REMARK                         _______ _______ _______ _____ _____    ______ ____
ROOT
ATOM      1  C   UNL     1       0.269   9.463  17.399  0.00  0.00    +0.000 C 
ATOM      2  C   UNL     1       0.008  10.069  18.743  0.00  0.00    +0.000 A 
ATOM      3  C   UNL     1      -0.836  11.158  18.984  0.00  0.00    +0.000 A 
ATOM      4  S   UNL     1      -0.924  11.522  20.656  0.00  0.00    +0.000 S 
ATOM      5  C   UNL     1       0.138  10.274  21.071  0.00  0.00    +0.000 A 
ATOM      6  N   UNL     1       0.417  10.082  22.367  0.00  0.00    +0.000 NA
ATOM      7  C   UNL     1       1.262   9.079  22.560  0.00  0.00    +0.000 A 
ATOM      8  N   UNL     1       1.807   8.308  21.619  0.00  0.00    +0.000 NA
ATOM      9  C   UNL     1       1.493   8.492  20.305  0.00  0.00    +0.000 A 
ATOM     10  N   UNL     1       2.062   7.584  19.393  0.00  0.00    +0.000 N 
ATOM     11  C   UNL     1       0.610   9.557  19.983  0.00  0.00    +0.000 A 
ATOM     12  H   UNL     1       1.978   7.799  18.406  0.00  0.00    +0.000 HD
ENDROOT
BRANCH  10  13
ATOM     13  C   UNL     1       2.233   6.196  19.636  0.00  0.00    +0.000 A 
ATOM     14  C   UNL     1       1.758   5.655  20.855  0.00  0.00    +0.000 A 
ATOM     15  C   UNL     1       1.838   4.297  21.146  0.00  0.00    +0.000 A 
ATOM     16  C   UNL     1       2.389   3.445  20.208  0.00  0.00    +0.000 A 
ATOM     17  F   UNL     1       2.448   2.133  20.464  0.00  0.00    +0.000 F 
ATOM     18  C   UNL     1       2.875   3.937  19.004  0.00  0.00    +0.000 A 
ATOM     19  C   UNL     1       2.832   5.311  18.717  0.00  0.00    +0.000 A 
BRANCH  19  20
ATOM     20  O   UNL     1       3.360   5.601  17.485  0.00  0.00    +0.000 OA
BRANCH  20  21
ATOM     21  C   UNL     1       4.766   5.434  17.268  0.00  0.00    +0.000 C 
ATOM     22  C   UNL     1       4.966   4.379  16.180  0.00  0.00    +0.000 C 
BRANCH  21  23
ATOM     23  C   UNL     1       5.301   6.782  16.793  0.00  0.00    +0.000 C 
ATOM     24  F   UNL     1       4.963   6.956  15.482  0.00  0.00    +0.000 F 
ENDBRANCH  21  23
ENDBRANCH  20  21
ENDBRANCH  19  20
ENDBRANCH  10  13
BRANCH   3  25
ATOM     25  C   UNL     1      -1.613  11.961  18.037  0.00  0.00    +0.000 C 
ATOM     26  O   UNL     1      -2.749  11.720  17.662  0.00  0.00    +0.000 OA
BRANCH  25  27
ATOM     27  O   UNL     1      -0.941  13.047  17.573  0.00  0.00    +0.000 OA
ATOM     28  H   UNL     1      -1.409  13.478  16.833  0.00  0.00    +0.000 HD
ENDBRANCH  25  27
ENDBRANCH   3  25
TORSDOF 6
ENDMDL
MODEL 6
REMARK VINA RESULT:      -6.8      4.046      7.803
REMARK  Name = 
REMARK  8 active torsions:
REMARK  status: ('A' for Active; 'I' for Inactive)
REMARK    1  A    between atoms: C_1  and  C_2
REMARK    2  A    between atoms: C_3  and  C_4
REMARK    3  A    between atoms: C_4  and  O_6
REMARK    4  A    between atoms: N_13  and  C_14
REMARK    5  A    between atoms: C_20  and  O_21
REMARK    6  A    between atoms: O_21  and  C_22
REMARK    7  A    between atoms: C_22  and  C_23
REMARK    8  A    between atoms: C_22  and  C_24
REMARK                            x       y       z     vdW  Elec       q    Type
REMARK                         _______ _______ _______ _____ _____    ______ ____
ROOT
ATOM      1  C   UNL     1       5.424   7.458  17.174  0.00  0.00    +0.000 C 
ATOM      2  C   UNL     1       4.966   6.034  17.138  0.00  0.00    +0.000 A 
ATOM      3  C   UNL     1       5.748   4.948  16.731  0.00  0.00    +0.000 A 
ATOM      4  S   UNL     1       4.895   3.471  16.886  0.00  0.00    +0.000 S 
ATOM      5  C   UNL     1       3.506   4.235  17.472  0.00  0.00    +0.000 A 
ATOM      6  N   UNL     1       2.454   3.475  17.805  0.00  0.00    +0.000 NA
ATOM      7  C   UNL     1       1.430   4.192  18.247  0.00  0.00    +0.000 A 
ATOM      8  N   UNL     1       1.386   5.518  18.373  0.00  0.00    +0.000 NA
ATOM      9  C   UNL     1       2.472   6.281  18.060  0.00  0.00    +0.000 A 
ATOM     10  N   UNL     1       2.353   7.663  18.294  0.00  0.00    +0.000 N 
ATOM     11  C   UNL     1       3.620   5.614  17.555  0.00  0.00    +0.000 A 
ATOM     12  H   UNL     1       3.079   8.264  17.918  0.00  0.00    +0.000 HD
ENDROOT
BRANCH  10  13
ATOM     13  C   UNL     1       1.691   8.240  19.409  0.00  0.00    +0.000 A 
ATOM     14  C   UNL     1       2.011   7.771  20.706  0.00  0.00    +0.000 A 
ATOM     15  C   UNL     1       1.447   8.320  21.854  0.00  0.00    +0.000 A 
ATOM     16  C   UNL     1       0.555   9.367  21.724  0.00  0.00    +0.000 A 
ATOM     17  F   UNL     1       0.025   9.922  22.821  0.00  0.00    +0.000 F 
ATOM     18  C   UNL     1       0.207   9.849  20.469  0.00  0.00    +0.000 A 
ATOM     19  C   UNL     1       0.743   9.277  19.303  0.00  0.00    +0.000 A 
BRANCH  19  20
ATOM     20  O   UNL     1       0.280   9.886  18.166  0.00  0.00    +0.000 OA
BRANCH  20  21
ATOM     21  C   UNL     1      -1.047  10.427  18.151  0.00  0.00    +0.000 C 
ATOM     22  C   UNL     1      -0.953  11.935  17.921  0.00  0.00    +0.000 C 
BRANCH  21  23
ATOM     23  C   UNL     1      -1.778   9.767  16.986  0.00  0.00    +0.000 C 
ATOM     24  F   UNL     1      -3.039   9.429  17.388  0.00  0.00    +0.000 F 
ENDBRANCH  21  23
ENDBRANCH  20  21
ENDBRANCH  19  20
ENDBRANCH  10  13
BRANCH   3  25
ATOM     25  C   UNL     1       7.126   4.927  16.235  0.00  0.00    +0.000 C 
ATOM     26  O   UNL     1       7.537   5.511  15.245  0.00  0.00    +0.000 OA
BRANCH  25  27
ATOM     27  O   UNL     1       7.959   4.162  16.988  0.00  0.00    +0.000 OA
ATOM     28  H   UNL     1       7.556   3.912  17.841  0.00  0.00    +0.000 HD
ENDBRANCH  25  27
ENDBRANCH   3  25
TORSDOF 6
ENDMDL
MODEL 7
REMARK VINA RESULT:      -6.8      2.457      4.208
REMARK  Name = 
REMARK  8 active torsions:
REMARK  status: ('A' for Active; 'I' for Inactive)
REMARK    1  A    between atoms: C_1  and  C_2
REMARK    2  A    between atoms: C_3  and  C_4
REMARK    3  A    between atoms: C_4  and  O_6
REMARK    4  A    between atoms: N_13  and  C_14
REMARK    5  A    between atoms: C_20  and  O_21
REMARK    6  A    between atoms: O_21  and  C_22
REMARK    7  A    between atoms: C_22  and  C_23
REMARK    8  A    between atoms: C_22  and  C_24
REMARK                            x       y       z     vdW  Elec       q    Type
REMARK                         _______ _______ _______ _____ _____    ______ ____
ROOT
ATOM      1  C   UNL     1       0.129   7.994  21.585  0.00  0.00    +0.000 C 
ATOM      2  C   UNL     1       0.305   9.380  21.050  0.00  0.00    +0.000 A 
ATOM      3  C   UNL     1      -0.172  10.545  21.660  0.00  0.00    +0.000 A 
ATOM      4  S   UNL     1       0.279  11.943  20.779  0.00  0.00    +0.000 S 
ATOM      5  C   UNL     1       1.088  11.042  19.599  0.00  0.00    +0.000 A 
ATOM      6  N   UNL     1       1.699  11.700  18.604  0.00  0.00    +0.000 NA
ATOM      7  C   UNL     1       2.292  10.884  17.746  0.00  0.00    +0.000 A 
ATOM      8  N   UNL     1       2.319   9.552  17.806  0.00  0.00    +0.000 NA
ATOM      9  C   UNL     1       1.720   8.893  18.838  0.00  0.00    +0.000 A 
ATOM     10  N   UNL     1       1.862   7.493  18.852  0.00  0.00    +0.000 N 
ATOM     11  C   UNL     1       1.034   9.673  19.807  0.00  0.00    +0.000 A 
ATOM     12  H   UNL     1       1.293   6.973  19.510  0.00  0.00    +0.000 HD
ENDROOT
BRANCH  10  13
ATOM     13  C   UNL     1       3.045   6.798  18.486  0.00  0.00    +0.000 A 
ATOM     14  C   UNL     1       3.785   7.257  17.370  0.00  0.00    +0.000 A 
ATOM     15  C   UNL     1       4.983   6.665  16.979  0.00  0.00    +0.000 A 
ATOM     16  C   UNL     1       5.472   5.602  17.713  0.00  0.00    +0.000 A 
ATOM     17  F   UNL     1       6.636   5.041  17.364  0.00  0.00    +0.000 F 
ATOM     18  C   UNL     1       4.771   5.116  18.808  0.00  0.00    +0.000 A 
ATOM     19  C   UNL     1       3.543   5.683  19.189  0.00  0.00    +0.000 A 
BRANCH  19  20
ATOM     20  O   UNL     1       3.006   5.067  20.289  0.00  0.00    +0.000 OA
BRANCH  20  21
ATOM     21  C   UNL     1       2.474   3.743  20.161  0.00  0.00    +0.000 C 
ATOM     22  C   UNL     1       2.425   3.105  21.549  0.00  0.00    +0.000 C 
BRANCH  21  23
ATOM     23  C   UNL     1       1.062   3.887  19.602  0.00  0.00    +0.000 C 
ATOM     24  F   UNL     1       1.119   3.858  18.238  0.00  0.00    +0.000 F 
ENDBRANCH  21  23
ENDBRANCH  20  21
ENDBRANCH  19  20
ENDBRANCH  10  13
BRANCH   3  25
ATOM     25  C   UNL     1      -0.950  10.699  22.892  0.00  0.00    +0.000 C 
ATOM     26  O   UNL     1      -1.928  11.416  23.033  0.00  0.00    +0.000 OA
BRANCH  25  27
ATOM     27  O   UNL     1      -0.476   9.955  23.925  0.00  0.00    +0.000 OA
ATOM     28  H   UNL     1      -0.960  10.130  24.755  0.00  0.00    +0.000 HD
ENDBRANCH  25  27
ENDBRANCH   3  25
TORSDOF 6
ENDMDL
MODEL 8
REMARK VINA RESULT:      -6.7      3.918      7.601
REMARK  Name = 
REMARK  8 active torsions:
REMARK  status: ('A' for Active; 'I' for Inactive)
REMARK    1  A    between atoms: C_1  and  C_2
REMARK    2  A    between atoms: C_3  and  C_4
REMARK    3  A    between atoms: C_4  and  O_6
REMARK    4  A    between atoms: N_13  and  C_14
REMARK    5  A    between atoms: C_20  and  O_21
REMARK    6  A    between atoms: O_21  and  C_22
REMARK    7  A    between atoms: C_22  and  C_23
REMARK    8  A    between atoms: C_22  and  C_24
REMARK                            x       y       z     vdW  Elec       q    Type
REMARK                         _______ _______ _______ _____ _____    ______ ____
ROOT
ATOM      1  C   UNL     1       4.487   7.693  17.331  0.00  0.00    +0.000 C 
ATOM      2  C   UNL     1       4.522   6.350  17.991  0.00  0.00    +0.000 A 
ATOM      3  C   UNL     1       5.530   5.396  17.820  0.00  0.00    +0.000 A 
ATOM      4  S   UNL     1       5.251   4.010  18.787  0.00  0.00    +0.000 S 
ATOM      5  C   UNL     1       3.818   4.639  19.425  0.00  0.00    +0.000 A 
ATOM      6  N   UNL     1       3.151   3.910  20.330  0.00  0.00    +0.000 NA
ATOM      7  C   UNL     1       2.046   4.510  20.749  0.00  0.00    +0.000 A 
ATOM      8  N   UNL     1       1.593   5.702  20.359  0.00  0.00    +0.000 NA
ATOM      9  C   UNL     1       2.294   6.449  19.459  0.00  0.00    +0.000 A 
ATOM     10  N   UNL     1       1.773   7.722  19.163  0.00  0.00    +0.000 N 
ATOM     11  C   UNL     1       3.486   5.890  18.928  0.00  0.00    +0.000 A 
ATOM     12  H   UNL     1       2.181   8.223  18.382  0.00  0.00    +0.000 HD
ENDROOT
BRANCH  10  13
ATOM     13  C   UNL     1       1.170   8.589  20.113  0.00  0.00    +0.000 A 
ATOM     14  C   UNL     1       1.458   8.398  21.486  0.00  0.00    +0.000 A 
ATOM     15  C   UNL     1       0.951   9.238  22.473  0.00  0.00    +0.000 A 
ATOM     16  C   UNL     1       0.150  10.300  22.100  0.00  0.00    +0.000 A 
ATOM     17  F   UNL     1      -0.322  11.130  23.038  0.00  0.00    +0.000 F 
ATOM     18  C   UNL     1      -0.163  10.515  20.765  0.00  0.00    +0.000 A 
ATOM     19  C   UNL     1       0.313   9.652  19.764  0.00  0.00    +0.000 A 
BRANCH  19  20
ATOM     20  O   UNL     1      -0.104  10.027  18.514  0.00  0.00    +0.000 OA
BRANCH  20  21
ATOM     21  C   UNL     1      -1.376  10.667  18.362  0.00  0.00    +0.000 C 
ATOM     22  C   UNL     1      -1.141  12.128  17.980  0.00  0.00    +0.000 C 
BRANCH  21  23
ATOM     23  C   UNL     1      -2.102   9.943  17.232  0.00  0.00    +0.000 C 
ATOM     24  F   UNL     1      -3.132   9.218  17.759  0.00  0.00    +0.000 F 
ENDBRANCH  21  23
ENDBRANCH  20  21
ENDBRANCH  19  20
ENDBRANCH  10  13
BRANCH   3  25
ATOM     25  C   UNL     1       6.726   5.447  16.975  0.00  0.00    +0.000 C 
ATOM     26  O   UNL     1       6.826   6.044  15.915  0.00  0.00    +0.000 OA
BRANCH  25  27
ATOM     27  O   UNL     1       7.771   4.736  17.476  0.00  0.00    +0.000 OA
ATOM     28  H   UNL     1       7.474   3.999  18.042  0.00  0.00    +0.000 HD
ENDBRANCH  25  27
ENDBRANCH   3  25
TORSDOF 6
ENDMDL
MODEL 9
REMARK VINA RESULT:      -6.7      1.256      1.467
REMARK  Name = 
REMARK  8 active torsions:
REMARK  status: ('A' for Active; 'I' for Inactive)
REMARK    1  A    between atoms: C_1  and  C_2
REMARK    2  A    between atoms: C_3  and  C_4
REMARK    3  A    between atoms: C_4  and  O_6
REMARK    4  A    between atoms: N_13  and  C_14
REMARK    5  A    between atoms: C_20  and  O_21
REMARK    6  A    between atoms: O_21  and  C_22
REMARK    7  A    between atoms: C_22  and  C_23
REMARK    8  A    between atoms: C_22  and  C_24
REMARK                            x       y       z     vdW  Elec       q    Type
REMARK                         _______ _______ _______ _____ _____    ______ ____
ROOT
ATOM      1  C   UNL     1       1.971  10.348  17.988  0.00  0.00    +0.000 C 
ATOM      2  C   UNL     1       1.038  10.658  19.116  0.00  0.00    +0.000 A 
ATOM      3  C   UNL     1       0.260  11.816  19.221  0.00  0.00    +0.000 A 
ATOM      4  S   UNL     1      -0.726  11.782  20.621  0.00  0.00    +0.000 S 
ATOM      5  C   UNL     1      -0.142  10.270  21.100  0.00  0.00    +0.000 A 
ATOM      6  N   UNL     1      -0.643   9.719  22.214  0.00  0.00    +0.000 NA
ATOM      7  C   UNL     1      -0.103   8.539  22.482  0.00  0.00    +0.000 A 
ATOM      8  N   UNL     1       0.834   7.914  21.768  0.00  0.00    +0.000 NA
ATOM      9  C   UNL     1       1.315   8.469  20.620  0.00  0.00    +0.000 A 
ATOM     10  N   UNL     1       2.249   7.702  19.898  0.00  0.00    +0.000 N 
ATOM     11  C   UNL     1       0.819   9.747  20.249  0.00  0.00    +0.000 A 
ATOM     12  H   UNL     1       2.740   8.159  19.138  0.00  0.00    +0.000 HD
ENDROOT
BRANCH  10  13
ATOM     13  C   UNL     1       2.183   6.293  19.736  0.00  0.00    +0.000 A 
ATOM     14  C   UNL     1       1.424   5.537  20.661  0.00  0.00    +0.000 A 
ATOM     15  C   UNL     1       1.264   4.160  20.540  0.00  0.00    +0.000 A 
ATOM     16  C   UNL     1       1.858   3.510  19.476  0.00  0.00    +0.000 A 
ATOM     17  F   UNL     1       1.691   2.190  19.333  0.00  0.00    +0.000 F 
ATOM     18  C   UNL     1       2.619   4.214  18.552  0.00  0.00    +0.000 A 
ATOM     19  C   UNL     1       2.815   5.599  18.685  0.00  0.00    +0.000 A 
BRANCH  19  20
ATOM     20  O   UNL     1       3.594   6.112  17.681  0.00  0.00    +0.000 OA
BRANCH  20  21
ATOM     21  C   UNL     1       4.810   5.443  17.326  0.00  0.00    +0.000 C 
ATOM     22  C   UNL     1       5.165   5.815  15.886  0.00  0.00    +0.000 C 
BRANCH  21  23
ATOM     23  C   UNL     1       5.888   5.954  18.277  0.00  0.00    +0.000 C 
ATOM     24  F   UNL     1       5.877   5.192  19.410  0.00  0.00    +0.000 F 
ENDBRANCH  21  23
ENDBRANCH  20  21
ENDBRANCH  19  20
ENDBRANCH  10  13
BRANCH   3  25
ATOM     25  C   UNL     1       0.185  12.972  18.324  0.00  0.00    +0.000 C 
ATOM     26  O   UNL     1       1.004  13.875  18.254  0.00  0.00    +0.000 OA
BRANCH  25  27
ATOM     27  O   UNL     1      -0.923  12.974  17.539  0.00  0.00    +0.000 OA
ATOM     28  H   UNL     1      -0.710  12.802  16.602  0.00  0.00    +0.000 HD
ENDBRANCH  25  27
ENDBRANCH   3  25
TORSDOF 6
ENDMDL
