MODEL 1
REMARK VINA RESULT:      -7.7      0.000      0.000
REMARK  Name = 
REMARK  8 active torsions:
REMARK  status: ('A' for Active; 'I' for Inactive)
REMARK    1  A    between atoms: C_1  and  C_2
REMARK    2  A    between atoms: N_6  and  C_7
REMARK    3  A    between atoms: C_11  and  C_12
REMARK    4  A    between atoms: C_13  and  C_14
REMARK    5  A    between atoms: C_14  and  C_15
REMARK    6  A    between atoms: C_15  and  C_16
REMARK    7  A    between atoms: N_18  and  C_19
REMARK    8  A    between atoms: C_24  and  C_25
REMARK                            x       y       z     vdW  Elec       q    Type
REMARK                         _______ _______ _______ _____ _____    ______ ____
ROOT
ATOM      1  C   UNL     1       3.475   7.592  17.277  0.00  0.00    +0.000 C 
ATOM      2  C   UNL     1       2.477   8.256  18.182  0.00  0.00    +0.000 A 
ATOM      3  N   UNL     1       1.947   9.404  17.667  0.00  0.00    +0.000 NA
ATOM      4  C   UNL     1       1.080  10.066  18.439  0.00  0.00    +0.000 A 
ATOM      5  N   UNL     1       0.433  11.275  18.066  0.00  0.00    +0.000 N 
ATOM      6  N   UNL     1      -0.056  11.769  19.291  0.00  0.00    +0.000 N 
ATOM      7  C   UNL     1      -0.976  12.877  19.286  0.00  0.00    +0.000 C 
ATOM      8  C   UNL     1      -0.075  10.762  20.255  0.00  0.00    +0.000 A 
ATOM      9  O   UNL     1      -0.638  10.781  21.333  0.00  0.00    +0.000 OA
ATOM     10  C   UNL     1       0.731   9.656  19.715  0.00  0.00    +0.000 A 
ATOM     11  C   UNL     1       1.221   8.472  20.258  0.00  0.00    +0.000 A 
ATOM     12  C   UNL     1       0.813   8.018  21.629  0.00  0.00    +0.000 C 
ATOM     13  C   UNL     1       2.142   7.732  19.462  0.00  0.00    +0.000 A 
ATOM     14  H   UNL     1       1.083  11.851  17.535  0.00  0.00    +0.000 HD
ENDROOT
BRANCH  13  15
ATOM     15  C   UNL     1       2.776   6.444  19.990  0.00  0.00    +0.000 C 
BRANCH  15  16
ATOM     16  C   UNL     1       2.063   5.171  19.526  0.00  0.00    +0.000 C 
BRANCH  16  17
ATOM     17  C   UNL     1       2.974   4.145  18.835  0.00  0.00    +0.000 C 
ATOM     18  O   UNL     1       2.639   2.998  18.578  0.00  0.00    +0.000 OA
ATOM     19  N   UNL     1       4.209   4.690  18.543  0.00  0.00    +0.000 N 
ATOM     20  H   UNL     1       4.297   5.683  18.714  0.00  0.00    +0.000 HD
BRANCH  19  21
ATOM     21  C   UNL     1       5.318   4.109  17.778  0.00  0.00    +0.000 C 
ATOM     22  C   UNL     1       4.989   3.717  16.326  0.00  0.00    +0.000 C 
ATOM     23  C   UNL     1       5.467   4.682  15.243  0.00  0.00    +0.000 C 
ATOM     24  C   UNL     1       6.895   5.153  15.475  0.00  0.00    +0.000 C 
ATOM     25  C   UNL     1       7.022   5.808  16.842  0.00  0.00    +0.000 C 
ATOM     26  C   UNL     1       6.684   4.816  17.959  0.00  0.00    +0.000 C 
ATOM     27  C   UNL     1       6.850   5.477  19.329  0.00  0.00    +0.000 C 
ENDBRANCH  19  21
ENDBRANCH  16  17
ENDBRANCH  15  16
ENDBRANCH  13  15
TORSDOF 4
ENDMDL
MODEL 2
REMARK VINA RESULT:      -7.2      2.620      3.492
REMARK  Name = 
REMARK  8 active torsions:
REMARK  status: ('A' for Active; 'I' for Inactive)
REMARK    1  A    between atoms: C_1  and  C_2
REMARK    2  A    between atoms: N_6  and  C_7
REMARK    3  A    between atoms: C_11  and  C_12
REMARK    4  A    between atoms: C_13  and  C_14
REMARK    5  A    between atoms: C_14  and  C_15
REMARK    6  A    between atoms: C_15  and  C_16
REMARK    7  A    between atoms: N_18  and  C_19
REMARK    8  A    between atoms: C_24  and  C_25
REMARK                            x       y       z     vdW  Elec       q    Type
REMARK                         _______ _______ _______ _____ _____    ______ ____
ROOT
ATOM      1  C   UNL     1       1.410   9.247  18.087  0.00  0.00    +0.000 C 
ATOM      2  C   UNL     1       0.599   9.797  19.225  0.00  0.00    +0.000 A 
ATOM      3  N   UNL     1      -0.292  10.761  18.849  0.00  0.00    +0.000 NA
ATOM      4  C   UNL     1      -1.019  11.321  19.821  0.00  0.00    +0.000 A 
ATOM      5  N   UNL     1      -1.991  12.336  19.612  0.00  0.00    +0.000 N 
ATOM      6  N   UNL     1      -2.198  12.854  20.907  0.00  0.00    +0.000 N 
ATOM      7  C   UNL     1      -3.297  13.756  21.137  0.00  0.00    +0.000 C 
ATOM      8  C   UNL     1      -1.719  11.968  21.872  0.00  0.00    +0.000 A 
ATOM      9  O   UNL     1      -1.935  11.991  23.068  0.00  0.00    +0.000 OA
ATOM     10  C   UNL     1      -0.886  10.988  21.159  0.00  0.00    +0.000 A 
ATOM     11  C   UNL     1      -0.017   9.984  21.575  0.00  0.00    +0.000 A 
ATOM     12  C   UNL     1       0.098   9.606  23.022  0.00  0.00    +0.000 C 
ATOM     13  C   UNL     1       0.771   9.356  20.567  0.00  0.00    +0.000 A 
ATOM     14  H   UNL     1      -1.664  12.969  18.885  0.00  0.00    +0.000 HD
ENDROOT
BRANCH  13  15
ATOM     15  C   UNL     1       1.792   8.277  20.931  0.00  0.00    +0.000 C 
BRANCH  15  16
ATOM     16  C   UNL     1       1.181   6.884  21.103  0.00  0.00    +0.000 C 
BRANCH  16  17
ATOM     17  C   UNL     1       1.802   5.800  20.208  0.00  0.00    +0.000 C 
ATOM     18  O   UNL     1       2.902   5.894  19.683  0.00  0.00    +0.000 OA
ATOM     19  N   UNL     1       0.959   4.713  20.083  0.00  0.00    +0.000 N 
ATOM     20  H   UNL     1       0.133   4.733  20.668  0.00  0.00    +0.000 HD
BRANCH  19  21
ATOM     21  C   UNL     1       1.208   3.420  19.437  0.00  0.00    +0.000 C 
ATOM     22  C   UNL     1       1.423   3.469  17.912  0.00  0.00    +0.000 C 
ATOM     23  C   UNL     1       2.870   3.371  17.432  0.00  0.00    +0.000 C 
ATOM     24  C   UNL     1       3.648   2.283  18.156  0.00  0.00    +0.000 C 
ATOM     25  C   UNL     1       3.618   2.521  19.659  0.00  0.00    +0.000 C 
ATOM     26  C   UNL     1       2.183   2.484  20.192  0.00  0.00    +0.000 C 
ATOM     27  C   UNL     1       2.170   2.688  21.708  0.00  0.00    +0.000 C 
ENDBRANCH  19  21
ENDBRANCH  16  17
ENDBRANCH  15  16
ENDBRANCH  13  15
TORSDOF 4
ENDMDL
MODEL 3
REMARK VINA RESULT:      -7.2      1.998      7.932
REMARK  Name = 
REMARK  8 active torsions:
REMARK  status: ('A' for Active; 'I' for Inactive)
REMARK    1  A    between atoms: C_1  and  C_2
REMARK    2  A    between atoms: N_6  and  C_7
REMARK    3  A    between atoms: C_11  and  C_12
REMARK    4  A    between atoms: C_13  and  C_14
REMARK    5  A    between atoms: C_14  and  C_15
REMARK    6  A    between atoms: C_15  and  C_16
REMARK    7  A    between atoms: N_18  and  C_19
REMARK    8  A    between atoms: C_24  and  C_25
REMARK                            x       y       z     vdW  Elec       q    Type
REMARK                         _______ _______ _______ _____ _____    ______ ____
ROOT
ATOM      1  C   UNL     1       2.190   3.881  21.457  0.00  0.00    +0.000 C 
ATOM      2  C   UNL     1       2.764   4.536  20.232  0.00  0.00    +0.000 A 
ATOM      3  N   UNL     1       3.784   3.833  19.660  0.00  0.00    +0.000 NA
ATOM      4  C   UNL     1       4.366   4.380  18.589  0.00  0.00    +0.000 A 
ATOM      5  N   UNL     1       5.439   3.790  17.868  0.00  0.00    +0.000 N 
ATOM      6  N   UNL     1       5.942   4.863  17.104  0.00  0.00    +0.000 N 
ATOM      7  C   UNL     1       6.902   4.597  16.064  0.00  0.00    +0.000 C 
ATOM      8  C   UNL     1       5.011   5.899  17.042  0.00  0.00    +0.000 A 
ATOM      9  O   UNL     1       5.023   6.859  16.295  0.00  0.00    +0.000 OA
ATOM     10  C   UNL     1       3.999   5.611  18.069  0.00  0.00    +0.000 A 
ATOM     11  C   UNL     1       2.939   6.338  18.602  0.00  0.00    +0.000 A 
ATOM     12  C   UNL     1       2.526   7.656  18.014  0.00  0.00    +0.000 C 
ATOM     13  C   UNL     1       2.287   5.784  19.741  0.00  0.00    +0.000 A 
ATOM     14  H   UNL     1       6.066   3.326  18.523  0.00  0.00    +0.000 HD
ENDROOT
BRANCH  13  15
ATOM     15  C   UNL     1       1.144   6.531  20.430  0.00  0.00    +0.000 C 
BRANCH  15  16
ATOM     16  C   UNL     1       1.545   7.905  20.974  0.00  0.00    +0.000 C 
BRANCH  16  17
ATOM     17  C   UNL     1       0.364   8.821  21.328  0.00  0.00    +0.000 C 
ATOM     18  O   UNL     1      -0.282   8.734  22.363  0.00  0.00    +0.000 OA
ATOM     19  N   UNL     1       0.136   9.751  20.333  0.00  0.00    +0.000 N 
ATOM     20  H   UNL     1       0.825   9.771  19.591  0.00  0.00    +0.000 HD
BRANCH  19  21
ATOM     21  C   UNL     1      -0.795  10.885  20.322  0.00  0.00    +0.000 C 
ATOM     22  C   UNL     1      -0.464  12.024  21.304  0.00  0.00    +0.000 C 
ATOM     23  C   UNL     1       0.195  13.263  20.701  0.00  0.00    +0.000 C 
ATOM     24  C   UNL     1      -0.473  13.702  19.406  0.00  0.00    +0.000 C 
ATOM     25  C   UNL     1      -0.463  12.567  18.393  0.00  0.00    +0.000 C 
ATOM     26  C   UNL     1      -1.241  11.356  18.917  0.00  0.00    +0.000 C 
ATOM     27  C   UNL     1      -1.253  10.237  17.874  0.00  0.00    +0.000 C 
ENDBRANCH  19  21
ENDBRANCH  16  17
ENDBRANCH  15  16
ENDBRANCH  13  15
TORSDOF 4
ENDMDL
MODEL 4
REMARK VINA RESULT:      -7.1      2.197      3.121
REMARK  Name = 
REMARK  8 active torsions:
REMARK  status: ('A' for Active; 'I' for Inactive)
REMARK    1  A    between atoms: C_1  and  C_2
REMARK    2  A    between atoms: N_6  and  C_7
REMARK    3  A    between atoms: C_11  and  C_12
REMARK    4  A    between atoms: C_13  and  C_14
REMARK    5  A    between atoms: C_14  and  C_15
REMARK    6  A    between atoms: C_15  and  C_16
REMARK    7  A    between atoms: N_18  and  C_19
REMARK    8  A    between atoms: C_24  and  C_25
REMARK                            x       y       z     vdW  Elec       q    Type
REMARK                         _______ _______ _______ _____ _____    ______ ____
ROOT
ATOM      1  C   UNL     1       1.896   8.693  17.961  0.00  0.00    +0.000 C 
ATOM      2  C   UNL     1       1.097   9.380  19.032  0.00  0.00    +0.000 A 
ATOM      3  N   UNL     1       0.379  10.450  18.581  0.00  0.00    +0.000 NA
ATOM      4  C   UNL     1      -0.323  11.131  19.490  0.00  0.00    +0.000 A 
ATOM      5  N   UNL     1      -1.125  12.267  19.200  0.00  0.00    +0.000 N 
ATOM      6  N   UNL     1      -1.343  12.841  20.469  0.00  0.00    +0.000 N 
ATOM      7  C   UNL     1      -2.314  13.894  20.609  0.00  0.00    +0.000 C 
ATOM      8  C   UNL     1      -1.059  11.921  21.478  0.00  0.00    +0.000 A 
ATOM      9  O   UNL     1      -1.349  12.004  22.656  0.00  0.00    +0.000 OA
ATOM     10  C   UNL     1      -0.329  10.815  20.839  0.00  0.00    +0.000 A 
ATOM     11  C   UNL     1       0.360   9.710  21.330  0.00  0.00    +0.000 A 
ATOM     12  C   UNL     1       0.323   9.356  22.788  0.00  0.00    +0.000 C 
ATOM     13  C   UNL     1       1.115   8.953  20.389  0.00  0.00    +0.000 A 
ATOM     14  H   UNL     1      -0.664  12.829  18.487  0.00  0.00    +0.000 HD
ENDROOT
BRANCH  13  15
ATOM     15  C   UNL     1       1.947   7.750  20.839  0.00  0.00    +0.000 C 
BRANCH  15  16
ATOM     16  C   UNL     1       1.133   6.462  20.993  0.00  0.00    +0.000 C 
BRANCH  16  17
ATOM     17  C   UNL     1       1.860   5.189  20.531  0.00  0.00    +0.000 C 
ATOM     18  O   UNL     1       1.719   4.094  21.056  0.00  0.00    +0.000 OA
ATOM     19  N   UNL     1       2.681   5.446  19.451  0.00  0.00    +0.000 N 
ATOM     20  H   UNL     1       2.605   6.376  19.059  0.00  0.00    +0.000 HD
BRANCH  19  21
ATOM     21  C   UNL     1       3.445   4.504  18.626  0.00  0.00    +0.000 C 
ATOM     22  C   UNL     1       4.601   3.781  19.341  0.00  0.00    +0.000 C 
ATOM     23  C   UNL     1       4.331   2.339  19.770  0.00  0.00    +0.000 C 
ATOM     24  C   UNL     1       3.641   1.531  18.682  0.00  0.00    +0.000 C 
ATOM     25  C   UNL     1       2.337   2.199  18.270  0.00  0.00    +0.000 C 
ATOM     26  C   UNL     1       2.593   3.599  17.703  0.00  0.00    +0.000 C 
ATOM     27  C   UNL     1       1.279   4.245  17.260  0.00  0.00    +0.000 C 
ENDBRANCH  19  21
ENDBRANCH  16  17
ENDBRANCH  15  16
ENDBRANCH  13  15
TORSDOF 4
ENDMDL
MODEL 5
REMARK VINA RESULT:      -7.0      1.595      7.850
REMARK  Name = 
REMARK  8 active torsions:
REMARK  status: ('A' for Active; 'I' for Inactive)
REMARK    1  A    between atoms: C_1  and  C_2
REMARK    2  A    between atoms: N_6  and  C_7
REMARK    3  A    between atoms: C_11  and  C_12
REMARK    4  A    between atoms: C_13  and  C_14
REMARK    5  A    between atoms: C_14  and  C_15
REMARK    6  A    between atoms: C_15  and  C_16
REMARK    7  A    between atoms: N_18  and  C_19
REMARK    8  A    between atoms: C_24  and  C_25
REMARK                            x       y       z     vdW  Elec       q    Type
REMARK                         _______ _______ _______ _____ _____    ______ ____
ROOT
ATOM      1  C   UNL     1       1.641   9.598  18.190  0.00  0.00    +0.000 C 
ATOM      2  C   UNL     1       2.311   8.275  18.436  0.00  0.00    +0.000 A 
ATOM      3  N   UNL     1       3.250   7.954  17.499  0.00  0.00    +0.000 NA
ATOM      4  C   UNL     1       3.857   6.771  17.635  0.00  0.00    +0.000 A 
ATOM      5  N   UNL     1       4.857   6.275  16.756  0.00  0.00    +0.000 N 
ATOM      6  N   UNL     1       4.908   4.901  17.069  0.00  0.00    +0.000 N 
ATOM      7  C   UNL     1       5.977   4.098  16.537  0.00  0.00    +0.000 C 
ATOM      8  C   UNL     1       4.304   4.656  18.302  0.00  0.00    +0.000 A 
ATOM      9  O   UNL     1       4.371   3.641  18.968  0.00  0.00    +0.000 OA
ATOM     10  C   UNL     1       3.557   5.875  18.648  0.00  0.00    +0.000 A 
ATOM     11  C   UNL     1       2.633   6.184  19.642  0.00  0.00    +0.000 A 
ATOM     12  C   UNL     1       2.336   5.221  20.754  0.00  0.00    +0.000 C 
ATOM     13  C   UNL     1       1.970   7.441  19.536  0.00  0.00    +0.000 A 
ATOM     14  H   UNL     1       4.628   6.547  15.802  0.00  0.00    +0.000 HD
ENDROOT
BRANCH  13  15
ATOM     15  C   UNL     1       0.901   7.850  20.551  0.00  0.00    +0.000 C 
BRANCH  15  16
ATOM     16  C   UNL     1       1.433   8.729  21.686  0.00  0.00    +0.000 C 
BRANCH  16  17
ATOM     17  C   UNL     1       0.530   9.917  22.051  0.00  0.00    +0.000 C 
ATOM     18  O   UNL     1       0.177  10.182  23.191  0.00  0.00    +0.000 OA
ATOM     19  N   UNL     1       0.178  10.641  20.928  0.00  0.00    +0.000 N 
ATOM     20  H   UNL     1       0.640  10.365  20.071  0.00  0.00    +0.000 HD
BRANCH  19  21
ATOM     21  C   UNL     1      -0.554  11.909  20.838  0.00  0.00    +0.000 C 
ATOM     22  C   UNL     1       0.201  13.148  21.354  0.00  0.00    +0.000 C 
ATOM     23  C   UNL     1       0.814  14.056  20.289  0.00  0.00    +0.000 C 
ATOM     24  C   UNL     1      -0.139  14.317  19.133  0.00  0.00    +0.000 C 
ATOM     25  C   UNL     1      -0.579  13.005  18.501  0.00  0.00    +0.000 C 
ATOM     26  C   UNL     1      -1.325  12.131  19.514  0.00  0.00    +0.000 C 
ATOM     27  C   UNL     1      -1.792  10.832  18.857  0.00  0.00    +0.000 C 
ENDBRANCH  19  21
ENDBRANCH  16  17
ENDBRANCH  15  16
ENDBRANCH  13  15
TORSDOF 4
ENDMDL
MODEL 6
REMARK VINA RESULT:      -7.0      1.836      2.739
REMARK  Name = 
REMARK  8 active torsions:
REMARK  status: ('A' for Active; 'I' for Inactive)
REMARK    1  A    between atoms: C_1  and  C_2
REMARK    2  A    between atoms: N_6  and  C_7
REMARK    3  A    between atoms: C_11  and  C_12
REMARK    4  A    between atoms: C_13  and  C_14
REMARK    5  A    between atoms: C_14  and  C_15
REMARK    6  A    between atoms: C_15  and  C_16
REMARK    7  A    between atoms: N_18  and  C_19
REMARK    8  A    between atoms: C_24  and  C_25
REMARK                            x       y       z     vdW  Elec       q    Type
REMARK                         _______ _______ _______ _____ _____    ______ ____
ROOT
ATOM      1  C   UNL     1       1.436   9.148  17.963  0.00  0.00    +0.000 C 
ATOM      2  C   UNL     1       0.682   9.692  19.144  0.00  0.00    +0.000 A 
ATOM      3  N   UNL     1      -0.172  10.709  18.828  0.00  0.00    +0.000 NA
ATOM      4  C   UNL     1      -0.845  11.266  19.839  0.00  0.00    +0.000 A 
ATOM      5  N   UNL     1      -1.774  12.332  19.695  0.00  0.00    +0.000 N 
ATOM      6  N   UNL     1      -1.922  12.810  21.013  0.00  0.00    +0.000 N 
ATOM      7  C   UNL     1      -2.970  13.753  21.306  0.00  0.00    +0.000 C 
ATOM      8  C   UNL     1      -1.459  11.868  21.931  0.00  0.00    +0.000 A 
ATOM      9  O   UNL     1      -1.641  11.858  23.133  0.00  0.00    +0.000 OA
ATOM     10  C   UNL     1      -0.693  10.878  21.160  0.00  0.00    +0.000 A 
ATOM     11  C   UNL     1       0.140   9.820  21.515  0.00  0.00    +0.000 A 
ATOM     12  C   UNL     1       0.276   9.385  22.944  0.00  0.00    +0.000 C 
ATOM     13  C   UNL     1       0.869   9.195  20.463  0.00  0.00    +0.000 A 
ATOM     14  H   UNL     1      -1.437  12.975  18.981  0.00  0.00    +0.000 HD
ENDROOT
BRANCH  13  15
ATOM     15  C   UNL     1       1.849   8.057  20.759  0.00  0.00    +0.000 C 
BRANCH  15  16
ATOM     16  C   UNL     1       1.183   6.683  20.863  0.00  0.00    +0.000 C 
BRANCH  16  17
ATOM     17  C   UNL     1       1.919   5.558  20.119  0.00  0.00    +0.000 C 
ATOM     18  O   UNL     1       1.361   4.597  19.608  0.00  0.00    +0.000 OA
ATOM     19  N   UNL     1       3.282   5.780  20.101  0.00  0.00    +0.000 N 
ATOM     20  H   UNL     1       3.582   6.675  20.466  0.00  0.00    +0.000 HD
BRANCH  19  21
ATOM     21  C   UNL     1       4.330   5.036  19.395  0.00  0.00    +0.000 C 
ATOM     22  C   UNL     1       4.412   3.533  19.721  0.00  0.00    +0.000 C 
ATOM     23  C   UNL     1       3.805   2.585  18.689  0.00  0.00    +0.000 C 
ATOM     24  C   UNL     1       4.190   2.956  17.265  0.00  0.00    +0.000 C 
ATOM     25  C   UNL     1       3.773   4.387  16.958  0.00  0.00    +0.000 C 
ATOM     26  C   UNL     1       4.480   5.376  17.891  0.00  0.00    +0.000 C 
ATOM     27  C   UNL     1       4.080   6.812  17.550  0.00  0.00    +0.000 C 
ENDBRANCH  19  21
ENDBRANCH  16  17
ENDBRANCH  15  16
ENDBRANCH  13  15
TORSDOF 4
ENDMDL
MODEL 7
REMARK VINA RESULT:      -7.0      1.905      7.791
REMARK  Name = 
REMARK  8 active torsions:
REMARK  status: ('A' for Active; 'I' for Inactive)
REMARK    1  A    between atoms: C_1  and  C_2
REMARK    2  A    between atoms: N_6  and  C_7
REMARK    3  A    between atoms: C_11  and  C_12
REMARK    4  A    between atoms: C_13  and  C_14
REMARK    5  A    between atoms: C_14  and  C_15
REMARK    6  A    between atoms: C_15  and  C_16
REMARK    7  A    between atoms: N_18  and  C_19
REMARK    8  A    between atoms: C_24  and  C_25
REMARK                            x       y       z     vdW  Elec       q    Type
REMARK                         _______ _______ _______ _____ _____    ______ ____
ROOT
ATOM      1  C   UNL     1       2.142   4.432  21.330  0.00  0.00    +0.000 C 
ATOM      2  C   UNL     1       2.788   4.979  20.088  0.00  0.00    +0.000 A 
ATOM      3  N   UNL     1       3.777   4.181  19.588  0.00  0.00    +0.000 NA
ATOM      4  C   UNL     1       4.421   4.629  18.506  0.00  0.00    +0.000 A 
ATOM      5  N   UNL     1       5.473   3.932  17.853  0.00  0.00    +0.000 N 
ATOM      6  N   UNL     1       6.063   4.925  17.045  0.00  0.00    +0.000 N 
ATOM      7  C   UNL     1       7.032   4.540  16.051  0.00  0.00    +0.000 C 
ATOM      8  C   UNL     1       5.203   6.013  16.897  0.00  0.00    +0.000 A 
ATOM      9  O   UNL     1       5.296   6.924  16.098  0.00  0.00    +0.000 OA
ATOM     10  C   UNL     1       4.147   5.847  17.907  0.00  0.00    +0.000 A 
ATOM     11  C   UNL     1       3.122   6.669  18.366  0.00  0.00    +0.000 A 
ATOM     12  C   UNL     1       2.810   7.973  17.694  0.00  0.00    +0.000 C 
ATOM     13  C   UNL     1       2.405   6.223  19.514  0.00  0.00    +0.000 A 
ATOM     14  H   UNL     1       6.051   3.469  18.551  0.00  0.00    +0.000 HD
ENDROOT
BRANCH  13  15
ATOM     15  C   UNL     1       1.294   7.079  20.125  0.00  0.00    +0.000 C 
BRANCH  15  16
ATOM     16  C   UNL     1       1.803   8.141  21.104  0.00  0.00    +0.000 C 
BRANCH  16  17
ATOM     17  C   UNL     1       1.051   9.479  21.040  0.00  0.00    +0.000 C 
ATOM     18  O   UNL     1       0.953  10.253  21.982  0.00  0.00    +0.000 OA
ATOM     19  N   UNL     1       0.510   9.690  19.787  0.00  0.00    +0.000 N 
ATOM     20  H   UNL     1       0.773   9.014  19.081  0.00  0.00    +0.000 HD
BRANCH  19  21
ATOM     21  C   UNL     1      -0.164  10.882  19.259  0.00  0.00    +0.000 C 
ATOM     22  C   UNL     1      -1.421  11.329  20.029  0.00  0.00    +0.000 C 
ATOM     23  C   UNL     1      -1.245  12.516  20.974  0.00  0.00    +0.000 C 
ATOM     24  C   UNL     1      -0.441  13.644  20.344  0.00  0.00    +0.000 C 
ATOM     25  C   UNL     1       0.922  13.136  19.895  0.00  0.00    +0.000 C 
ATOM     26  C   UNL     1       0.777  12.037  18.838  0.00  0.00    +0.000 C 
ATOM     27  C   UNL     1       2.153  11.561  18.370  0.00  0.00    +0.000 C 
ENDBRANCH  19  21
ENDBRANCH  16  17
ENDBRANCH  15  16
ENDBRANCH  13  15
TORSDOF 4
ENDMDL
MODEL 8
REMARK VINA RESULT:      -7.0      3.303      5.595
REMARK  Name = 
REMARK  8 active torsions:
REMARK  status: ('A' for Active; 'I' for Inactive)
REMARK    1  A    between atoms: C_1  and  C_2
REMARK    2  A    between atoms: N_6  and  C_7
REMARK    3  A    between atoms: C_11  and  C_12
REMARK    4  A    between atoms: C_13  and  C_14
REMARK    5  A    between atoms: C_14  and  C_15
REMARK    6  A    between atoms: C_15  and  C_16
REMARK    7  A    between atoms: N_18  and  C_19
REMARK    8  A    between atoms: C_24  and  C_25
REMARK                            x       y       z     vdW  Elec       q    Type
REMARK                         _______ _______ _______ _____ _____    ______ ____
ROOT
ATOM      1  C   UNL     1      -1.491  12.451  22.458  0.00  0.00    +0.000 C 
ATOM      2  C   UNL     1      -2.013  12.173  21.077  0.00  0.00    +0.000 A 
ATOM      3  N   UNL     1      -3.204  12.783  20.806  0.00  0.00    +0.000 NA
ATOM      4  C   UNL     1      -3.744  12.545  19.608  0.00  0.00    +0.000 A 
ATOM      5  N   UNL     1      -4.974  13.094  19.157  0.00  0.00    +0.000 N 
ATOM      6  N   UNL     1      -5.300  12.288  18.048  0.00  0.00    +0.000 N 
ATOM      7  C   UNL     1      -6.378  12.687  17.180  0.00  0.00    +0.000 C 
ATOM      8  C   UNL     1      -4.179  11.587  17.605  0.00  0.00    +0.000 A 
ATOM      9  O   UNL     1      -4.050  10.989  16.554  0.00  0.00    +0.000 OA
ATOM     10  C   UNL     1      -3.169  11.705  18.667  0.00  0.00    +0.000 A 
ATOM     11  C   UNL     1      -1.938  11.097  18.893  0.00  0.00    +0.000 A 
ATOM     12  C   UNL     1      -1.306  10.214  17.857  0.00  0.00    +0.000 C 
ATOM     13  C   UNL     1      -1.325  11.333  20.157  0.00  0.00    +0.000 A 
ATOM     14  H   UNL     1      -5.628  13.133  19.937  0.00  0.00    +0.000 HD
ENDROOT
BRANCH  13  15
ATOM     15  C   UNL     1       0.004  10.668  20.520  0.00  0.00    +0.000 C 
BRANCH  15  16
ATOM     16  C   UNL     1      -0.154   9.308  21.205  0.00  0.00    +0.000 C 
BRANCH  16  17
ATOM     17  C   UNL     1       1.146   8.498  21.324  0.00  0.00    +0.000 C 
ATOM     18  O   UNL     1       2.010   8.711  22.163  0.00  0.00    +0.000 OA
ATOM     19  N   UNL     1       1.204   7.504  20.367  0.00  0.00    +0.000 N 
ATOM     20  H   UNL     1       0.363   7.379  19.818  0.00  0.00    +0.000 HD
BRANCH  19  21
ATOM     21  C   UNL     1       2.193   6.431  20.207  0.00  0.00    +0.000 C 
ATOM     22  C   UNL     1       1.844   5.099  20.897  0.00  0.00    +0.000 C 
ATOM     23  C   UNL     1       1.305   3.993  19.992  0.00  0.00    +0.000 C 
ATOM     24  C   UNL     1       2.099   3.861  18.702  0.00  0.00    +0.000 C 
ATOM     25  C   UNL     1       2.111   5.183  17.949  0.00  0.00    +0.000 C 
ATOM     26  C   UNL     1       2.777   6.283  18.781  0.00  0.00    +0.000 C 
ATOM     27  C   UNL     1       2.815   7.597  17.999  0.00  0.00    +0.000 C 
ENDBRANCH  19  21
ENDBRANCH  16  17
ENDBRANCH  15  16
ENDBRANCH  13  15
TORSDOF 4
ENDMDL
MODEL 9
REMARK VINA RESULT:      -6.9      2.627      3.548
REMARK  Name = 
REMARK  8 active torsions:
REMARK  status: ('A' for Active; 'I' for Inactive)
REMARK    1  A    between atoms: C_1  and  C_2
REMARK    2  A    between atoms: N_6  and  C_7
REMARK    3  A    between atoms: C_11  and  C_12
REMARK    4  A    between atoms: C_13  and  C_14
REMARK    5  A    between atoms: C_14  and  C_15
REMARK    6  A    between atoms: C_15  and  C_16
REMARK    7  A    between atoms: N_18  and  C_19
REMARK    8  A    between atoms: C_24  and  C_25
REMARK                            x       y       z     vdW  Elec       q    Type
REMARK                         _______ _______ _______ _____ _____    ______ ____
ROOT
ATOM      1  C   UNL     1       1.235   9.188  18.161  0.00  0.00    +0.000 C 
ATOM      2  C   UNL     1       0.709   9.986  19.321  0.00  0.00    +0.000 A 
ATOM      3  N   UNL     1       0.581  11.319  19.056  0.00  0.00    +0.000 NA
ATOM      4  C   UNL     1       0.156  12.094  20.058  0.00  0.00    +0.000 A 
ATOM      5  N   UNL     1      -0.034  13.499  19.963  0.00  0.00    +0.000 N 
ATOM      6  N   UNL     1      -0.111  13.905  21.310  0.00  0.00    +0.000 N 
ATOM      7  C   UNL     1      -0.534  15.247  21.617  0.00  0.00    +0.000 C 
ATOM      8  C   UNL     1      -0.365  12.813  22.139  0.00  0.00    +0.000 A 
ATOM      9  O   UNL     1      -0.711  12.835  23.304  0.00  0.00    +0.000 OA
ATOM     10  C   UNL     1      -0.128  11.611  21.325  0.00  0.00    +0.000 A 
ATOM     11  C   UNL     1      -0.047  10.253  21.621  0.00  0.00    +0.000 A 
ATOM     12  C   UNL     1      -0.386   9.733  22.987  0.00  0.00    +0.000 C 
ATOM     13  C   UNL     1       0.396   9.393  20.575  0.00  0.00    +0.000 A 
ATOM     14  H   UNL     1       0.698  13.896  19.377  0.00  0.00    +0.000 HD
ENDROOT
BRANCH  13  15
ATOM     15  C   UNL     1       0.567   7.892  20.816  0.00  0.00    +0.000 C 
BRANCH  15  16
ATOM     16  C   UNL     1       2.028   7.439  20.869  0.00  0.00    +0.000 C 
BRANCH  16  17
ATOM     17  C   UNL     1       2.352   6.221  19.990  0.00  0.00    +0.000 C 
ATOM     18  O   UNL     1       3.388   6.095  19.352  0.00  0.00    +0.000 OA
ATOM     19  N   UNL     1       1.327   5.296  20.020  0.00  0.00    +0.000 N 
ATOM     20  H   UNL     1       0.586   5.490  20.682  0.00  0.00    +0.000 HD
BRANCH  19  21
ATOM     21  C   UNL     1       1.279   3.951  19.438  0.00  0.00    +0.000 C 
ATOM     22  C   UNL     1       1.451   3.882  17.909  0.00  0.00    +0.000 C 
ATOM     23  C   UNL     1       2.829   3.458  17.404  0.00  0.00    +0.000 C 
ATOM     24  C   UNL     1       3.384   2.266  18.167  0.00  0.00    +0.000 C 
ATOM     25  C   UNL     1       3.454   2.575  19.656  0.00  0.00    +0.000 C 
ATOM     26  C   UNL     1       2.060   2.867  20.221  0.00  0.00    +0.000 C 
ATOM     27  C   UNL     1       2.139   3.140  21.724  0.00  0.00    +0.000 C 
ENDBRANCH  19  21
ENDBRANCH  16  17
ENDBRANCH  15  16
ENDBRANCH  13  15
TORSDOF 4
ENDMDL
