MODEL 1
REMARK VINA RESULT:      -8.0      0.000      0.000
REMARK  Name = 
REMARK  8 active torsions:
REMARK  status: ('A' for Active; 'I' for Inactive)
REMARK    1  A    between atoms: C_4  and  C_5
REMARK    2  A    between atoms: C_5  and  C_6
REMARK    3  A    between atoms: N_9  and  C_10
REMARK    4  A    between atoms: C_10  and  C_11
REMARK    5  A    between atoms: C_11  and  N_12
REMARK    6  A    between atoms: N_12  and  C_13
REMARK    7  A    between atoms: N_16  and  C_17
REMARK    8  A    between atoms: C_17  and  C_18
REMARK                            x       y       z     vdW  Elec       q    Type
REMARK                         _______ _______ _______ _____ _____    ______ ____
ROOT
ATOM      1  C   UNL     1       8.091   9.028  18.002  0.00  0.00    +0.000 C 
ENDROOT
BRANCH   1   2
ATOM      2  N   UNL     1       8.887   9.899  18.873  0.00  0.00    +0.000 NA
ATOM      3  H   UNL     1       9.493   9.333  19.466  0.00  0.00    +0.000 HD
BRANCH   2   4
ATOM      4  C   UNL     1       9.653  10.913  18.141  0.00  0.00    +0.000 C 
ATOM      5  C   UNL     1      10.816  11.415  18.998  0.00  0.00    +0.000 C 
ATOM      6  C   UNL     1      10.296  12.717  19.578  0.00  0.00    +0.000 C 
ATOM      7  N   UNL     1       9.529  13.339  18.487  0.00  0.00    +0.000 NA
ATOM      8  C   UNL     1       8.833  12.199  17.858  0.00  0.00    +0.000 C 
BRANCH   7   9
ATOM      9  C   UNL     1      10.398  14.065  17.551  0.00  0.00    +0.000 C 
BRANCH   9  10
ATOM     10  C   UNL     1      10.213  15.568  17.606  0.00  0.00    +0.000 A 
ATOM     11  C   UNL     1       9.051  16.128  18.153  0.00  0.00    +0.000 A 
ATOM     12  C   UNL     1       8.893  17.514  18.213  0.00  0.00    +0.000 A 
ATOM     13  C   UNL     1       9.894  18.352  17.724  0.00  0.00    +0.000 A 
ATOM     14  C   UNL     1      11.051  17.807  17.171  0.00  0.00    +0.000 A 
ATOM     15  C   UNL     1      11.211  16.422  17.113  0.00  0.00    +0.000 A 
ENDBRANCH   9  10
ENDBRANCH   7   9
ENDBRANCH   2   4
ENDBRANCH   1   2
BRANCH   1  16
ATOM     16  C   UNL     1       8.219   7.530  18.386  0.00  0.00    +0.000 C 
BRANCH  16  20
ATOM     17  C   UNL     1       4.569   5.396  17.173  0.00  0.00    +0.000 C 
ATOM     18  C   UNL     1       5.529   4.825  18.230  0.00  0.00    +0.000 C 
ATOM     19  C   UNL     1       6.504   5.838  18.839  0.00  0.00    +0.000 C 
ATOM     20  N   UNL     1       7.210   6.610  17.810  0.00  0.00    +0.000 NA
ATOM     21  C   UNL     1       6.244   7.363  17.001  0.00  0.00    +0.000 C 
ATOM     22  C   UNL     1       5.274   6.432  16.278  0.00  0.00    +0.000 C 
BRANCH  17  23
ATOM     23  C   UNL     1       3.248   5.937  17.773  0.00  0.00    +0.000 C 
BRANCH  23  27
ATOM     24  C   UNL     1       0.806   2.951  19.788  0.00  0.00    +0.000 A 
ATOM     25  C   UNL     1       1.135   2.822  18.442  0.00  0.00    +0.000 A 
ATOM     26  C   UNL     1       1.900   3.805  17.804  0.00  0.00    +0.000 A 
ATOM     27  C   UNL     1       2.349   4.942  18.497  0.00  0.00    +0.000 A 
ATOM     28  C   UNL     1       2.019   5.046  19.852  0.00  0.00    +0.000 A 
ATOM     29  C   UNL     1       1.248   4.066  20.492  0.00  0.00    +0.000 A 
ENDBRANCH  23  27
ENDBRANCH  17  23
ENDBRANCH  16  20
ENDBRANCH   1  16
TORSDOF 8
ENDMDL
MODEL 2
REMARK VINA RESULT:      -7.6      0.875      1.315
REMARK  Name = 
REMARK  8 active torsions:
REMARK  status: ('A' for Active; 'I' for Inactive)
REMARK    1  A    between atoms: C_4  and  C_5
REMARK    2  A    between atoms: C_5  and  C_6
REMARK    3  A    between atoms: N_9  and  C_10
REMARK    4  A    between atoms: C_10  and  C_11
REMARK    5  A    between atoms: C_11  and  N_12
REMARK    6  A    between atoms: N_12  and  C_13
REMARK    7  A    between atoms: N_16  and  C_17
REMARK    8  A    between atoms: C_17  and  C_18
REMARK                            x       y       z     vdW  Elec       q    Type
REMARK                         _______ _______ _______ _____ _____    ______ ____
ROOT
ATOM      1  C   UNL     1       8.363   8.149  17.586  0.00  0.00    +0.000 C 
ENDROOT
BRANCH   1   2
ATOM      2  N   UNL     1       8.031   9.492  18.073  0.00  0.00    +0.000 NA
ATOM      3  H   UNL     1       7.616   9.430  19.001  0.00  0.00    +0.000 HD
BRANCH   2   4
ATOM      4  C   UNL     1       9.171  10.415  18.058  0.00  0.00    +0.000 C 
ATOM      5  C   UNL     1       9.877  10.403  19.414  0.00  0.00    +0.000 C 
ATOM      6  C   UNL     1       9.327  11.634  20.113  0.00  0.00    +0.000 C 
ATOM      7  N   UNL     1       9.224  12.655  19.058  0.00  0.00    +0.000 NA
ATOM      8  C   UNL     1       8.744  11.896  17.886  0.00  0.00    +0.000 C 
BRANCH   7   9
ATOM      9  C   UNL     1      10.510  13.325  18.819  0.00  0.00    +0.000 C 
BRANCH   9  10
ATOM     10  C   UNL     1      10.359  14.751  18.330  0.00  0.00    +0.000 A 
ATOM     11  C   UNL     1      11.231  15.276  17.367  0.00  0.00    +0.000 A 
ATOM     12  C   UNL     1      11.078  16.587  16.912  0.00  0.00    +0.000 A 
ATOM     13  C   UNL     1      10.052  17.385  17.415  0.00  0.00    +0.000 A 
ATOM     14  C   UNL     1       9.182  16.877  18.378  0.00  0.00    +0.000 A 
ATOM     15  C   UNL     1       9.333  15.566  18.833  0.00  0.00    +0.000 A 
ENDBRANCH   9  10
ENDBRANCH   7   9
ENDBRANCH   2   4
ENDBRANCH   1   2
BRANCH   1  16
ATOM     16  C   UNL     1       7.800   7.031  18.504  0.00  0.00    +0.000 C 
BRANCH  16  20
ATOM     17  C   UNL     1       4.181   4.892  17.213  0.00  0.00    +0.000 C 
ATOM     18  C   UNL     1       5.138   4.306  18.263  0.00  0.00    +0.000 C 
ATOM     19  C   UNL     1       6.098   5.314  18.903  0.00  0.00    +0.000 C 
ATOM     20  N   UNL     1       6.805   6.116  17.898  0.00  0.00    +0.000 NA
ATOM     21  C   UNL     1       5.838   6.878  17.100  0.00  0.00    +0.000 C 
ATOM     22  C   UNL     1       4.882   5.955  16.347  0.00  0.00    +0.000 C 
BRANCH  17  23
ATOM     23  C   UNL     1       2.850   5.406  17.815  0.00  0.00    +0.000 C 
BRANCH  23  27
ATOM     24  C   UNL     1       1.153   2.900  20.941  0.00  0.00    +0.000 A 
ATOM     25  C   UNL     1       0.940   2.614  19.596  0.00  0.00    +0.000 A 
ATOM     26  C   UNL     1       1.472   3.446  18.605  0.00  0.00    +0.000 A 
ATOM     27  C   UNL     1       2.226   4.585  18.936  0.00  0.00    +0.000 A 
ATOM     28  C   UNL     1       2.440   4.846  20.293  0.00  0.00    +0.000 A 
ATOM     29  C   UNL     1       1.903   4.019  21.288  0.00  0.00    +0.000 A 
ENDBRANCH  23  27
ENDBRANCH  17  23
ENDBRANCH  16  20
ENDBRANCH   1  16
TORSDOF 8
ENDMDL
MODEL 3
REMARK VINA RESULT:      -7.5      1.944     10.908
REMARK  Name = 
REMARK  8 active torsions:
REMARK  status: ('A' for Active; 'I' for Inactive)
REMARK    1  A    between atoms: C_4  and  C_5
REMARK    2  A    between atoms: C_5  and  C_6
REMARK    3  A    between atoms: N_9  and  C_10
REMARK    4  A    between atoms: C_10  and  C_11
REMARK    5  A    between atoms: C_11  and  N_12
REMARK    6  A    between atoms: N_12  and  C_13
REMARK    7  A    between atoms: N_16  and  C_17
REMARK    8  A    between atoms: C_17  and  C_18
REMARK                            x       y       z     vdW  Elec       q    Type
REMARK                         _______ _______ _______ _____ _____    ______ ____
ROOT
ATOM      1  C   UNL     1       8.124   8.073  18.167  0.00  0.00    +0.000 C 
ENDROOT
BRANCH   1   2
ATOM      2  N   UNL     1       7.782   7.430  16.894  0.00  0.00    +0.000 NA
ATOM      3  H   UNL     1       8.614   7.349  16.313  0.00  0.00    +0.000 HD
BRANCH   2   4
ATOM      4  C   UNL     1       7.115   6.134  17.056  0.00  0.00    +0.000 C 
ATOM      5  C   UNL     1       5.784   6.128  16.303  0.00  0.00    +0.000 C 
ATOM      6  C   UNL     1       4.759   6.406  17.389  0.00  0.00    +0.000 C 
ATOM      7  N   UNL     1       5.238   5.657  18.562  0.00  0.00    +0.000 NA
ATOM      8  C   UNL     1       6.701   5.848  18.523  0.00  0.00    +0.000 C 
BRANCH   7   9
ATOM      9  C   UNL     1       4.844   4.242  18.506  0.00  0.00    +0.000 C 
BRANCH   9  10
ATOM     10  C   UNL     1       3.564   3.947  19.263  0.00  0.00    +0.000 A 
ATOM     11  C   UNL     1       2.957   4.930  20.056  0.00  0.00    +0.000 A 
ATOM     12  C   UNL     1       1.771   4.656  20.739  0.00  0.00    +0.000 A 
ATOM     13  C   UNL     1       1.183   3.396  20.637  0.00  0.00    +0.000 A 
ATOM     14  C   UNL     1       1.781   2.408  19.858  0.00  0.00    +0.000 A 
ATOM     15  C   UNL     1       2.965   2.682  19.172  0.00  0.00    +0.000 A 
ENDBRANCH   9  10
ENDBRANCH   7   9
ENDBRANCH   2   4
ENDBRANCH   1   2
BRANCH   1  16
ATOM     16  C   UNL     1       8.286   9.611  18.029  0.00  0.00    +0.000 C 
BRANCH  16  20
ATOM     17  C   UNL     1      11.178  12.283  19.987  0.00  0.00    +0.000 C 
ATOM     18  C   UNL     1      11.437  11.691  18.593  0.00  0.00    +0.000 C 
ATOM     19  C   UNL     1      10.199  11.136  17.881  0.00  0.00    +0.000 C 
ATOM     20  N   UNL     1       9.435  10.221  18.738  0.00  0.00    +0.000 NA
ATOM     21  C   UNL     1       8.971  10.931  19.935  0.00  0.00    +0.000 C 
ATOM     22  C   UNL     1      10.142  11.452  20.765  0.00  0.00    +0.000 C 
BRANCH  17  23
ATOM     23  C   UNL     1      10.823  13.791  19.956  0.00  0.00    +0.000 C 
BRANCH  23  27
ATOM     24  C   UNL     1       6.712  15.020  19.229  0.00  0.00    +0.000 A 
ATOM     25  C   UNL     1       7.211  14.907  20.523  0.00  0.00    +0.000 A 
ATOM     26  C   UNL     1       8.527  14.485  20.738  0.00  0.00    +0.000 A 
ATOM     27  C   UNL     1       9.375  14.163  19.665  0.00  0.00    +0.000 A 
ATOM     28  C   UNL     1       8.859  14.296  18.372  0.00  0.00    +0.000 A 
ATOM     29  C   UNL     1       7.539  14.712  18.153  0.00  0.00    +0.000 A 
ENDBRANCH  23  27
ENDBRANCH  17  23
ENDBRANCH  16  20
ENDBRANCH   1  16
TORSDOF 8
ENDMDL
MODEL 4
REMARK VINA RESULT:      -7.5      1.593      2.185
REMARK  Name = 
REMARK  8 active torsions:
REMARK  status: ('A' for Active; 'I' for Inactive)
REMARK    1  A    between atoms: C_4  and  C_5
REMARK    2  A    between atoms: C_5  and  C_6
REMARK    3  A    between atoms: N_9  and  C_10
REMARK    4  A    between atoms: C_10  and  C_11
REMARK    5  A    between atoms: C_11  and  N_12
REMARK    6  A    between atoms: N_12  and  C_13
REMARK    7  A    between atoms: N_16  and  C_17
REMARK    8  A    between atoms: C_17  and  C_18
REMARK                            x       y       z     vdW  Elec       q    Type
REMARK                         _______ _______ _______ _____ _____    ______ ____
ROOT
ATOM      1  C   UNL     1       7.551   8.212  17.621  0.00  0.00    +0.000 C 
ENDROOT
BRANCH   1   2
ATOM      2  N   UNL     1       8.758   8.803  18.207  0.00  0.00    +0.000 NA
ATOM      3  H   UNL     1       9.505   8.820  17.515  0.00  0.00    +0.000 HD
BRANCH   2   4
ATOM      4  C   UNL     1       8.536  10.132  18.786  0.00  0.00    +0.000 C 
ATOM      5  C   UNL     1       8.799  11.214  17.738  0.00  0.00    +0.000 C 
ATOM      6  C   UNL     1      10.206  11.685  18.059  0.00  0.00    +0.000 C 
ATOM      7  N   UNL     1      10.279  11.690  19.529  0.00  0.00    +0.000 NA
ATOM      8  C   UNL     1       9.540  10.472  19.917  0.00  0.00    +0.000 C 
BRANCH   7   9
ATOM      9  C   UNL     1       9.702  12.915  20.101  0.00  0.00    +0.000 C 
BRANCH   9  10
ATOM     10  C   UNL     1      10.358  14.181  19.587  0.00  0.00    +0.000 A 
ATOM     11  C   UNL     1       9.613  15.147  18.898  0.00  0.00    +0.000 A 
ATOM     12  C   UNL     1      10.221  16.317  18.441  0.00  0.00    +0.000 A 
ATOM     13  C   UNL     1      11.579  16.531  18.665  0.00  0.00    +0.000 A 
ATOM     14  C   UNL     1      12.333  15.575  19.342  0.00  0.00    +0.000 A 
ATOM     15  C   UNL     1      11.726  14.406  19.803  0.00  0.00    +0.000 A 
ENDBRANCH   9  10
ENDBRANCH   7   9
ENDBRANCH   2   4
ENDBRANCH   1   2
BRANCH   1  16
ATOM     16  C   UNL     1       7.457   6.683  17.873  0.00  0.00    +0.000 C 
BRANCH  16  20
ATOM     17  C   UNL     1       4.175   3.955  16.813  0.00  0.00    +0.000 C 
ATOM     18  C   UNL     1       5.503   3.964  16.040  0.00  0.00    +0.000 C 
ATOM     19  C   UNL     1       6.671   4.647  16.759  0.00  0.00    +0.000 C 
ATOM     20  N   UNL     1       6.309   5.980  17.254  0.00  0.00    +0.000 NA
ATOM     21  C   UNL     1       5.205   5.872  18.215  0.00  0.00    +0.000 C 
ATOM     22  C   UNL     1       3.956   5.279  17.567  0.00  0.00    +0.000 C 
BRANCH  17  23
ATOM     23  C   UNL     1       4.010   2.718  17.732  0.00  0.00    +0.000 C 
BRANCH  23  27
ATOM     24  C   UNL     1       1.177   2.918  21.028  0.00  0.00    +0.000 A 
ATOM     25  C   UNL     1       0.744   2.934  19.705  0.00  0.00    +0.000 A 
ATOM     26  C   UNL     1       1.671   2.895  18.659  0.00  0.00    +0.000 A 
ATOM     27  C   UNL     1       3.053   2.844  18.910  0.00  0.00    +0.000 A 
ATOM     28  C   UNL     1       3.466   2.816  20.245  0.00  0.00    +0.000 A 
ATOM     29  C   UNL     1       2.540   2.861  21.296  0.00  0.00    +0.000 A 
ENDBRANCH  23  27
ENDBRANCH  17  23
ENDBRANCH  16  20
ENDBRANCH   1  16
TORSDOF 8
ENDMDL
MODEL 5
REMARK VINA RESULT:      -7.5      2.145     11.391
REMARK  Name = 
REMARK  8 active torsions:
REMARK  status: ('A' for Active; 'I' for Inactive)
REMARK    1  A    between atoms: C_4  and  C_5
REMARK    2  A    between atoms: C_5  and  C_6
REMARK    3  A    between atoms: N_9  and  C_10
REMARK    4  A    between atoms: C_10  and  C_11
REMARK    5  A    between atoms: C_11  and  N_12
REMARK    6  A    between atoms: N_12  and  C_13
REMARK    7  A    between atoms: N_16  and  C_17
REMARK    8  A    between atoms: C_17  and  C_18
REMARK                            x       y       z     vdW  Elec       q    Type
REMARK                         _______ _______ _______ _____ _____    ______ ____
ROOT
ATOM      1  C   UNL     1       8.227   8.227  18.174  0.00  0.00    +0.000 C 
ENDROOT
BRANCH   1   2
ATOM      2  N   UNL     1       7.634   7.652  16.962  0.00  0.00    +0.000 NA
ATOM      3  H   UNL     1       8.275   7.760  16.179  0.00  0.00    +0.000 HD
BRANCH   2   4
ATOM      4  C   UNL     1       7.218   6.255  17.123  0.00  0.00    +0.000 C 
ATOM      5  C   UNL     1       6.877   5.646  15.762  0.00  0.00    +0.000 C 
ATOM      6  C   UNL     1       5.362   5.733  15.703  0.00  0.00    +0.000 C 
ATOM      7  N   UNL     1       4.911   5.422  17.069  0.00  0.00    +0.000 NA
ATOM      8  C   UNL     1       5.899   6.107  17.926  0.00  0.00    +0.000 C 
BRANCH   7   9
ATOM      9  C   UNL     1       4.852   3.973  17.309  0.00  0.00    +0.000 C 
BRANCH   9  10
ATOM     10  C   UNL     1       3.503   3.506  17.820  0.00  0.00    +0.000 A 
ATOM     11  C   UNL     1       3.366   2.260  18.446  0.00  0.00    +0.000 A 
ATOM     12  C   UNL     1       2.124   1.842  18.926  0.00  0.00    +0.000 A 
ATOM     13  C   UNL     1       1.007   2.665  18.783  0.00  0.00    +0.000 A 
ATOM     14  C   UNL     1       1.130   3.903  18.156  0.00  0.00    +0.000 A 
ATOM     15  C   UNL     1       2.372   4.323  17.678  0.00  0.00    +0.000 A 
ENDBRANCH   9  10
ENDBRANCH   7   9
ENDBRANCH   2   4
ENDBRANCH   1   2
BRANCH   1  16
ATOM     16  C   UNL     1       8.355   9.772  18.094  0.00  0.00    +0.000 C 
BRANCH  16  20
ATOM     17  C   UNL     1      11.342  12.432  19.922  0.00  0.00    +0.000 C 
ATOM     18  C   UNL     1      11.587  11.748  18.568  0.00  0.00    +0.000 C 
ATOM     19  C   UNL     1      10.332  11.203  17.877  0.00  0.00    +0.000 C 
ATOM     20  N   UNL     1       9.523  10.375  18.778  0.00  0.00    +0.000 NA
ATOM     21  C   UNL     1       9.080  11.173  19.926  0.00  0.00    +0.000 C 
ATOM     22  C   UNL     1      10.264  11.694  20.737  0.00  0.00    +0.000 C 
BRANCH  17  23
ATOM     23  C   UNL     1      11.051  13.949  19.799  0.00  0.00    +0.000 C 
BRANCH  23  27
ATOM     24  C   UNL     1       7.996  15.738  22.329  0.00  0.00    +0.000 A 
ATOM     25  C   UNL     1       9.262  15.444  22.827  0.00  0.00    +0.000 A 
ATOM     26  C   UNL     1      10.223  14.845  22.006  0.00  0.00    +0.000 A 
ATOM     27  C   UNL     1       9.940  14.522  20.668  0.00  0.00    +0.000 A 
ATOM     28  C   UNL     1       8.667  14.837  20.183  0.00  0.00    +0.000 A 
ATOM     29  C   UNL     1       7.700  15.432  21.004  0.00  0.00    +0.000 A 
ENDBRANCH  23  27
ENDBRANCH  17  23
ENDBRANCH  16  20
ENDBRANCH   1  16
TORSDOF 8
ENDMDL
MODEL 6
REMARK VINA RESULT:      -7.5      2.003     11.077
REMARK  Name = 
REMARK  8 active torsions:
REMARK  status: ('A' for Active; 'I' for Inactive)
REMARK    1  A    between atoms: C_4  and  C_5
REMARK    2  A    between atoms: C_5  and  C_6
REMARK    3  A    between atoms: N_9  and  C_10
REMARK    4  A    between atoms: C_10  and  C_11
REMARK    5  A    between atoms: C_11  and  N_12
REMARK    6  A    between atoms: N_12  and  C_13
REMARK    7  A    between atoms: N_16  and  C_17
REMARK    8  A    between atoms: C_17  and  C_18
REMARK                            x       y       z     vdW  Elec       q    Type
REMARK                         _______ _______ _______ _____ _____    ______ ____
ROOT
ATOM      1  C   UNL     1       8.258   8.214  18.213  0.00  0.00    +0.000 C 
ENDROOT
BRANCH   1   2
ATOM      2  N   UNL     1       7.484   7.672  17.092  0.00  0.00    +0.000 NA
ATOM      3  H   UNL     1       8.003   7.793  16.224  0.00  0.00    +0.000 HD
BRANCH   2   4
ATOM      4  C   UNL     1       7.082   6.275  17.283  0.00  0.00    +0.000 C 
ATOM      5  C   UNL     1       6.996   5.562  15.933  0.00  0.00    +0.000 C 
ATOM      6  C   UNL     1       5.513   5.588  15.610  0.00  0.00    +0.000 C 
ATOM      7  N   UNL     1       4.840   5.355  16.899  0.00  0.00    +0.000 NA
ATOM      8  C   UNL     1       5.648   6.134  17.858  0.00  0.00    +0.000 C 
BRANCH   7   9
ATOM      9  C   UNL     1       4.776   3.926  17.232  0.00  0.00    +0.000 C 
BRANCH   9  10
ATOM     10  C   UNL     1       3.573   3.562  18.079  0.00  0.00    +0.000 A 
ATOM     11  C   UNL     1       2.272   3.803  17.618  0.00  0.00    +0.000 A 
ATOM     12  C   UNL     1       1.168   3.453  18.397  0.00  0.00    +0.000 A 
ATOM     13  C   UNL     1       1.354   2.861  19.645  0.00  0.00    +0.000 A 
ATOM     14  C   UNL     1       2.643   2.623  20.117  0.00  0.00    +0.000 A 
ATOM     15  C   UNL     1       3.747   2.970  19.339  0.00  0.00    +0.000 A 
ENDBRANCH   9  10
ENDBRANCH   7   9
ENDBRANCH   2   4
ENDBRANCH   1   2
BRANCH   1  16
ATOM     16  C   UNL     1       8.396   9.759  18.145  0.00  0.00    +0.000 C 
BRANCH  16  20
ATOM     17  C   UNL     1      11.433  12.382  19.946  0.00  0.00    +0.000 C 
ATOM     18  C   UNL     1      11.642  11.722  18.573  0.00  0.00    +0.000 C 
ATOM     19  C   UNL     1      10.369  11.193  17.905  0.00  0.00    +0.000 C 
ATOM     20  N   UNL     1       9.582  10.348  18.810  0.00  0.00    +0.000 NA
ATOM     21  C   UNL     1       9.169  11.125  19.984  0.00  0.00    +0.000 C 
ATOM     22  C   UNL     1      10.375  11.629  20.774  0.00  0.00    +0.000 C 
BRANCH  17  23
ATOM     23  C   UNL     1      11.141  13.900  19.858  0.00  0.00    +0.000 C 
BRANCH  23  27
ATOM     24  C   UNL     1       6.927  14.982  19.874  0.00  0.00    +0.000 A 
ATOM     25  C   UNL     1       7.596  14.714  18.684  0.00  0.00    +0.000 A 
ATOM     26  C   UNL     1       8.957  14.393  18.696  0.00  0.00    +0.000 A 
ATOM     27  C   UNL     1       9.683  14.337  19.898  0.00  0.00    +0.000 A 
ATOM     28  C   UNL     1       8.989  14.597  21.084  0.00  0.00    +0.000 A 
ATOM     29  C   UNL     1       7.627  14.925  21.075  0.00  0.00    +0.000 A 
ENDBRANCH  23  27
ENDBRANCH  17  23
ENDBRANCH  16  20
ENDBRANCH   1  16
TORSDOF 8
ENDMDL
MODEL 7
REMARK VINA RESULT:      -7.5      1.448     11.779
REMARK  Name = 
REMARK  8 active torsions:
REMARK  status: ('A' for Active; 'I' for Inactive)
REMARK    1  A    between atoms: C_4  and  C_5
REMARK    2  A    between atoms: C_5  and  C_6
REMARK    3  A    between atoms: N_9  and  C_10
REMARK    4  A    between atoms: C_10  and  C_11
REMARK    5  A    between atoms: C_11  and  N_12
REMARK    6  A    between atoms: N_12  and  C_13
REMARK    7  A    between atoms: N_16  and  C_17
REMARK    8  A    between atoms: C_17  and  C_18
REMARK                            x       y       z     vdW  Elec       q    Type
REMARK                         _______ _______ _______ _____ _____    ______ ____
ROOT
ATOM      1  C   UNL     1       8.220   7.912  18.163  0.00  0.00    +0.000 C 
ENDROOT
BRANCH   1   2
ATOM      2  N   UNL     1       7.704   7.311  16.929  0.00  0.00    +0.000 NA
ATOM      3  H   UNL     1       8.424   7.330  16.208  0.00  0.00    +0.000 HD
BRANCH   2   4
ATOM      4  C   UNL     1       7.173   5.957  17.117  0.00  0.00    +0.000 C 
ATOM      5  C   UNL     1       6.921   5.296  15.761  0.00  0.00    +0.000 C 
ATOM      6  C   UNL     1       5.430   5.483  15.545  0.00  0.00    +0.000 C 
ATOM      7  N   UNL     1       4.827   5.282  16.873  0.00  0.00    +0.000 NA
ATOM      8  C   UNL     1       5.776   5.946  17.789  0.00  0.00    +0.000 C 
BRANCH   7   9
ATOM      9  C   UNL     1       4.638   3.858  17.178  0.00  0.00    +0.000 C 
BRANCH   9  10
ATOM     10  C   UNL     1       3.514   3.600  18.162  0.00  0.00    +0.000 A 
ATOM     11  C   UNL     1       2.180   3.847  17.807  0.00  0.00    +0.000 A 
ATOM     12  C   UNL     1       1.149   3.594  18.713  0.00  0.00    +0.000 A 
ATOM     13  C   UNL     1       1.440   3.096  19.982  0.00  0.00    +0.000 A 
ATOM     14  C   UNL     1       2.763   2.853  20.348  0.00  0.00    +0.000 A 
ATOM     15  C   UNL     1       3.794   3.103  19.443  0.00  0.00    +0.000 A 
ENDBRANCH   9  10
ENDBRANCH   7   9
ENDBRANCH   2   4
ENDBRANCH   1   2
BRANCH   1  16
ATOM     16  C   UNL     1       8.089   9.459  18.168  0.00  0.00    +0.000 C 
BRANCH  16  20
ATOM     17  C   UNL     1      11.058  12.436  19.457  0.00  0.00    +0.000 C 
ATOM     18  C   UNL     1      10.758  12.181  17.971  0.00  0.00    +0.000 C 
ATOM     19  C   UNL     1       9.445  11.443  17.689  0.00  0.00    +0.000 C 
ATOM     20  N   UNL     1       9.313  10.225  18.497  0.00  0.00    +0.000 NA
ATOM     21  C   UNL     1       9.325  10.570  19.923  0.00  0.00    +0.000 C 
ATOM     22  C   UNL     1      10.638  11.237  20.327  0.00  0.00    +0.000 C 
BRANCH  17  23
ATOM     23  C   UNL     1      10.480  13.775  19.978  0.00  0.00    +0.000 C 
BRANCH  23  27
ATOM     24  C   UNL     1      11.281  17.216  17.438  0.00  0.00    +0.000 A 
ATOM     25  C   UNL     1      12.309  16.377  17.857  0.00  0.00    +0.000 A 
ATOM     26  C   UNL     1      12.036  15.290  18.695  0.00  0.00    +0.000 A 
ATOM     27  C   UNL     1      10.729  15.020  19.136  0.00  0.00    +0.000 A 
ATOM     28  C   UNL     1       9.709  15.867  18.693  0.00  0.00    +0.000 A 
ATOM     29  C   UNL     1       9.980  16.960  17.859  0.00  0.00    +0.000 A 
ENDBRANCH  23  27
ENDBRANCH  17  23
ENDBRANCH  16  20
ENDBRANCH   1  16
TORSDOF 8
ENDMDL
MODEL 8
REMARK VINA RESULT:      -7.4      1.818     11.197
REMARK  Name = 
REMARK  8 active torsions:
REMARK  status: ('A' for Active; 'I' for Inactive)
REMARK    1  A    between atoms: C_4  and  C_5
REMARK    2  A    between atoms: C_5  and  C_6
REMARK    3  A    between atoms: N_9  and  C_10
REMARK    4  A    between atoms: C_10  and  C_11
REMARK    5  A    between atoms: C_11  and  N_12
REMARK    6  A    between atoms: N_12  and  C_13
REMARK    7  A    between atoms: N_16  and  C_17
REMARK    8  A    between atoms: C_17  and  C_18
REMARK                            x       y       z     vdW  Elec       q    Type
REMARK                         _______ _______ _______ _____ _____    ______ ____
ROOT
ATOM      1  C   UNL     1       8.257   8.582  17.785  0.00  0.00    +0.000 C 
ENDROOT
BRANCH   1   2
ATOM      2  N   UNL     1       8.337   7.493  18.764  0.00  0.00    +0.000 NA
ATOM      3  H   UNL     1       7.914   7.787  19.643  0.00  0.00    +0.000 HD
BRANCH   2   4
ATOM      4  C   UNL     1       7.757   6.234  18.285  0.00  0.00    +0.000 C 
ATOM      5  C   UNL     1       6.941   6.480  17.015  0.00  0.00    +0.000 C 
ATOM      6  C   UNL     1       5.511   6.551  17.519  0.00  0.00    +0.000 C 
ATOM      7  N   UNL     1       5.426   5.522  18.568  0.00  0.00    +0.000 NA
ATOM      8  C   UNL     1       6.720   5.636  19.270  0.00  0.00    +0.000 C 
BRANCH   7   9
ATOM      9  C   UNL     1       5.196   4.185  18.005  0.00  0.00    +0.000 C 
BRANCH   9  10
ATOM     10  C   UNL     1       3.779   3.687  18.207  0.00  0.00    +0.000 A 
ATOM     11  C   UNL     1       2.682   4.458  17.799  0.00  0.00    +0.000 A 
ATOM     12  C   UNL     1       1.380   3.987  17.975  0.00  0.00    +0.000 A 
ATOM     13  C   UNL     1       1.162   2.742  18.563  0.00  0.00    +0.000 A 
ATOM     14  C   UNL     1       2.245   1.969  18.979  0.00  0.00    +0.000 A 
ATOM     15  C   UNL     1       3.546   2.437  18.801  0.00  0.00    +0.000 A 
ENDBRANCH   9  10
ENDBRANCH   7   9
ENDBRANCH   2   4
ENDBRANCH   1   2
BRANCH   1  16
ATOM     16  C   UNL     1       8.270   9.982  18.455  0.00  0.00    +0.000 C 
BRANCH  16  20
ATOM     17  C   UNL     1      11.753  12.385  19.655  0.00  0.00    +0.000 C 
ATOM     18  C   UNL     1      11.700  11.653  18.305  0.00  0.00    +0.000 C 
ATOM     19  C   UNL     1      10.301  11.216  17.855  0.00  0.00    +0.000 C 
ATOM     20  N   UNL     1       9.588  10.486  18.910  0.00  0.00    +0.000 NA
ATOM     21  C   UNL     1       9.421  11.346  20.086  0.00  0.00    +0.000 C 
ATOM     22  C   UNL     1      10.769  11.769  20.666  0.00  0.00    +0.000 C 
BRANCH  17  23
ATOM     23  C   UNL     1      11.583  13.919  19.527  0.00  0.00    +0.000 C 
BRANCH  23  27
ATOM     24  C   UNL     1       7.594  15.658  19.604  0.00  0.00    +0.000 A 
ATOM     25  C   UNL     1       8.367  15.579  20.759  0.00  0.00    +0.000 A 
ATOM     26  C   UNL     1       9.637  14.993  20.720  0.00  0.00    +0.000 A 
ATOM     27  C   UNL     1      10.162  14.469  19.526  0.00  0.00    +0.000 A 
ATOM     28  C   UNL     1       9.375  14.570  18.375  0.00  0.00    +0.000 A 
ATOM     29  C   UNL     1       8.100  15.150  18.412  0.00  0.00    +0.000 A 
ENDBRANCH  23  27
ENDBRANCH  17  23
ENDBRANCH  16  20
ENDBRANCH   1  16
TORSDOF 8
ENDMDL
MODEL 9
REMARK VINA RESULT:      -7.4      6.638      9.264
REMARK  Name = 
REMARK  8 active torsions:
REMARK  status: ('A' for Active; 'I' for Inactive)
REMARK    1  A    between atoms: C_4  and  C_5
REMARK    2  A    between atoms: C_5  and  C_6
REMARK    3  A    between atoms: N_9  and  C_10
REMARK    4  A    between atoms: C_10  and  C_11
REMARK    5  A    between atoms: C_11  and  N_12
REMARK    6  A    between atoms: N_12  and  C_13
REMARK    7  A    between atoms: N_16  and  C_17
REMARK    8  A    between atoms: C_17  and  C_18
REMARK                            x       y       z     vdW  Elec       q    Type
REMARK                         _______ _______ _______ _____ _____    ______ ____
ROOT
ATOM      1  C   UNL     1       1.858   7.170  20.437  0.00  0.00    +0.000 C 
ENDROOT
BRANCH   1   2
ATOM      2  N   UNL     1       1.628   8.154  21.500  0.00  0.00    +0.000 NA
ATOM      3  H   UNL     1       2.439   8.763  21.587  0.00  0.00    +0.000 HD
BRANCH   2   4
ATOM      4  C   UNL     1       0.395   8.927  21.321  0.00  0.00    +0.000 C 
ATOM      5  C   UNL     1       0.571   9.946  20.194  0.00  0.00    +0.000 C 
ATOM      6  C   UNL     1       0.872  11.240  20.928  0.00  0.00    +0.000 C 
ATOM      7  N   UNL     1       0.001  11.215  22.114  0.00  0.00    +0.000 NA
ATOM      8  C   UNL     1       0.051   9.806  22.552  0.00  0.00    +0.000 C 
BRANCH   7   9
ATOM      9  C   UNL     1      -1.361  11.669  21.803  0.00  0.00    +0.000 C 
BRANCH   9  10
ATOM     10  C   UNL     1      -1.929  12.613  22.844  0.00  0.00    +0.000 A 
ATOM     11  C   UNL     1      -3.183  12.373  23.422  0.00  0.00    +0.000 A 
ATOM     12  C   UNL     1      -3.694  13.239  24.390  0.00  0.00    +0.000 A 
ATOM     13  C   UNL     1      -2.958  14.353  24.788  0.00  0.00    +0.000 A 
ATOM     14  C   UNL     1      -1.713  14.606  24.216  0.00  0.00    +0.000 A 
ATOM     15  C   UNL     1      -1.200  13.740  23.250  0.00  0.00    +0.000 A 
ENDBRANCH   9  10
ENDBRANCH   7   9
ENDBRANCH   2   4
ENDBRANCH   1   2
BRANCH   1  16
ATOM     16  C   UNL     1       1.641   5.711  20.924  0.00  0.00    +0.000 C 
BRANCH  16  20
ATOM     17  C   UNL     1       2.513   2.734  17.807  0.00  0.00    +0.000 C 
ATOM     18  C   UNL     1       1.896   4.101  17.472  0.00  0.00    +0.000 C 
ATOM     19  C   UNL     1       2.033   5.163  18.568  0.00  0.00    +0.000 C 
ATOM     20  N   UNL     1       1.596   4.664  19.877  0.00  0.00    +0.000 NA
ATOM     21  C   UNL     1       2.420   3.517  20.273  0.00  0.00    +0.000 C 
ATOM     22  C   UNL     1       2.284   2.362  19.284  0.00  0.00    +0.000 C 
BRANCH  17  23
ATOM     23  C   UNL     1       4.001   2.615  17.393  0.00  0.00    +0.000 C 
BRANCH  23  27
ATOM     24  C   UNL     1       6.164   6.383  17.141  0.00  0.00    +0.000 A 
ATOM     25  C   UNL     1       5.527   5.844  16.028  0.00  0.00    +0.000 A 
ATOM     26  C   UNL     1       4.858   4.618  16.122  0.00  0.00    +0.000 A 
ATOM     27  C   UNL     1       4.815   3.902  17.330  0.00  0.00    +0.000 A 
ATOM     28  C   UNL     1       5.449   4.467  18.440  0.00  0.00    +0.000 A 
ATOM     29  C   UNL     1       6.126   5.692  18.348  0.00  0.00    +0.000 A 
ENDBRANCH  23  27
ENDBRANCH  17  23
ENDBRANCH  16  20
ENDBRANCH   1  16
TORSDOF 8
ENDMDL
