MODEL 1
REMARK VINA RESULT:      -8.5      0.000      0.000
REMARK  Name = 
REMARK  3 active torsions:
REMARK  status: ('A' for Active; 'I' for Inactive)
REMARK    1  A    between atoms: C_1  and  C_2
REMARK    2  A    between atoms: C_3  and  N_4
REMARK    3  A    between atoms: C_21  and  N_22
REMARK                            x       y       z     vdW  Elec       q    Type
REMARK                         _______ _______ _______ _____ _____    ______ ____
ROOT
ATOM      1  N   UNL     1       2.238   6.943  20.117  0.00  0.00    +0.000 N 
ATOM      2  C   UNL     1       2.998   6.134  19.296  0.00  0.00    +0.000 A 
ATOM      3  N   UNL     1       3.811   6.638  18.402  0.00  0.00    +0.000 NA
ATOM      4  C   UNL     1       4.412   5.805  17.433  0.00  0.00    +0.000 A 
ATOM      5  C   UNL     1       5.102   6.412  16.387  0.00  0.00    +0.000 A 
ATOM      6  C   UNL     1       5.600   5.645  15.331  0.00  0.00    +0.000 A 
ATOM      7  C   UNL     1       5.427   4.258  15.326  0.00  0.00    +0.000 A 
ATOM      8  C   UNL     1       4.755   3.624  16.373  0.00  0.00    +0.000 A 
ATOM      9  C   UNL     1       4.243   4.409  17.406  0.00  0.00    +0.000 A 
ATOM     10  N   UNL     1       3.472   3.886  18.446  0.00  0.00    +0.000 N 
ATOM     11  C   UNL     1       3.070   2.625  18.765  0.00  0.00    +0.000 A 
ATOM     12  N   UNL     1       2.304   2.665  19.838  0.00  0.00    +0.000 NA
ATOM     13  N   UNL     1       2.175   3.987  20.219  0.00  0.00    +0.000 NA
ATOM     14  C   UNL     1       2.882   4.698  19.368  0.00  0.00    +0.000 A 
ATOM     15  H   UNL     1       1.622   6.443  20.754  0.00  0.00    +0.000 HD
ENDROOT
BRANCH   1  18
ATOM     16  C   UNL     1       1.291   8.990  22.197  0.00  0.00    +0.000 C 
ATOM     17  C   UNL     1       1.246   9.179  20.699  0.00  0.00    +0.000 A 
ATOM     18  C   UNL     1       1.756   8.230  19.782  0.00  0.00    +0.000 A 
ATOM     19  C   UNL     1       1.825   8.576  18.415  0.00  0.00    +0.000 A 
ATOM     20  C   UNL     1       1.343   9.794  17.933  0.00  0.00    +0.000 A 
ATOM     21  C   UNL     1       0.755  10.692  18.811  0.00  0.00    +0.000 A 
ATOM     22  C   UNL     1       0.698  10.369  20.172  0.00  0.00    +0.000 A 
BRANCH  22  23
ATOM     23  N   UNL     1       0.032  11.328  21.045  0.00  0.00    +0.000 N 
ATOM     24  O   UNL     1      -1.186  11.200  21.208  0.00  0.00    +0.000 OA
ATOM     25  O   UNL     1       0.740  12.217  21.541  0.00  0.00    +0.000 OA
ENDBRANCH  22  23
ENDBRANCH   1  18
TORSDOF 2
ENDMDL
MODEL 2
REMARK VINA RESULT:      -8.0      3.791      7.651
REMARK  Name = 
REMARK  3 active torsions:
REMARK  status: ('A' for Active; 'I' for Inactive)
REMARK    1  A    between atoms: C_1  and  C_2
REMARK    2  A    between atoms: C_3  and  N_4
REMARK    3  A    between atoms: C_21  and  N_22
REMARK                            x       y       z     vdW  Elec       q    Type
REMARK                         _______ _______ _______ _____ _____    ______ ____
ROOT
ATOM      1  N   UNL     1       2.778   6.777  19.277  0.00  0.00    +0.000 N 
ATOM      2  C   UNL     1       2.139   7.874  19.821  0.00  0.00    +0.000 A 
ATOM      3  N   UNL     1       1.780   7.900  21.081  0.00  0.00    +0.000 NA
ATOM      4  C   UNL     1       0.942   8.930  21.562  0.00  0.00    +0.000 A 
ATOM      5  C   UNL     1       0.426   8.802  22.849  0.00  0.00    +0.000 A 
ATOM      6  C   UNL     1      -0.513   9.720  23.326  0.00  0.00    +0.000 A 
ATOM      7  C   UNL     1      -0.928  10.786  22.522  0.00  0.00    +0.000 A 
ATOM      8  C   UNL     1      -0.410  10.945  21.235  0.00  0.00    +0.000 A 
ATOM      9  C   UNL     1       0.507  10.005  20.766  0.00  0.00    +0.000 A 
ATOM     10  N   UNL     1       1.007  10.017  19.463  0.00  0.00    +0.000 N 
ATOM     11  C   UNL     1       0.825  10.850  18.402  0.00  0.00    +0.000 A 
ATOM     12  N   UNL     1       1.496  10.393  17.362  0.00  0.00    +0.000 NA
ATOM     13  N   UNL     1       2.113   9.215  17.739  0.00  0.00    +0.000 NA
ATOM     14  C   UNL     1       1.802   9.011  19.000  0.00  0.00    +0.000 A 
ATOM     15  H   UNL     1       2.985   6.856  18.284  0.00  0.00    +0.000 HD
ENDROOT
BRANCH   1  18
ATOM     16  C   UNL     1       4.996   4.664  19.102  0.00  0.00    +0.000 C 
ATOM     17  C   UNL     1       3.584   4.415  19.577  0.00  0.00    +0.000 A 
ATOM     18  C   UNL     1       2.615   5.438  19.701  0.00  0.00    +0.000 A 
ATOM     19  C   UNL     1       1.381   5.134  20.316  0.00  0.00    +0.000 A 
ATOM     20  C   UNL     1       1.062   3.844  20.741  0.00  0.00    +0.000 A 
ATOM     21  C   UNL     1       1.968   2.814  20.537  0.00  0.00    +0.000 A 
ATOM     22  C   UNL     1       3.204   3.105  19.946  0.00  0.00    +0.000 A 
BRANCH  22  23
ATOM     23  N   UNL     1       4.101   1.981  19.717  0.00  0.00    +0.000 N 
ATOM     24  O   UNL     1       3.903   1.289  18.713  0.00  0.00    +0.000 OA
ATOM     25  O   UNL     1       4.986   1.791  20.565  0.00  0.00    +0.000 OA
ENDBRANCH  22  23
ENDBRANCH   1  18
TORSDOF 2
ENDMDL
MODEL 3
REMARK VINA RESULT:      -7.9      1.568      3.332
REMARK  Name = 
REMARK  3 active torsions:
REMARK  status: ('A' for Active; 'I' for Inactive)
REMARK    1  A    between atoms: C_1  and  C_2
REMARK    2  A    between atoms: C_3  and  N_4
REMARK    3  A    between atoms: C_21  and  N_22
REMARK                            x       y       z     vdW  Elec       q    Type
REMARK                         _______ _______ _______ _____ _____    ______ ____
ROOT
ATOM      1  N   UNL     1       2.728   8.035  18.270  0.00  0.00    +0.000 N 
ATOM      2  C   UNL     1       2.940   6.700  17.986  0.00  0.00    +0.000 A 
ATOM      3  N   UNL     1       2.005   5.803  18.180  0.00  0.00    +0.000 NA
ATOM      4  C   UNL     1       2.308   4.427  18.091  0.00  0.00    +0.000 A 
ATOM      5  C   UNL     1       1.337   3.517  18.503  0.00  0.00    +0.000 A 
ATOM      6  C   UNL     1       1.630   2.152  18.564  0.00  0.00    +0.000 A 
ATOM      7  C   UNL     1       2.895   1.686  18.193  0.00  0.00    +0.000 A 
ATOM      8  C   UNL     1       3.879   2.577  17.759  0.00  0.00    +0.000 A 
ATOM      9  C   UNL     1       3.577   3.938  17.729  0.00  0.00    +0.000 A 
ATOM     10  N   UNL     1       4.518   4.918  17.407  0.00  0.00    +0.000 N 
ATOM     11  C   UNL     1       5.825   4.866  17.031  0.00  0.00    +0.000 A 
ATOM     12  N   UNL     1       6.290   6.092  16.884  0.00  0.00    +0.000 NA
ATOM     13  N   UNL     1       5.273   6.973  17.199  0.00  0.00    +0.000 NA
ATOM     14  C   UNL     1       4.223   6.244  17.510  0.00  0.00    +0.000 A 
ATOM     15  H   UNL     1       3.532   8.636  18.107  0.00  0.00    +0.000 HD
ENDROOT
BRANCH   1  18
ATOM     16  C   UNL     1       0.929  10.489  17.878  0.00  0.00    +0.000 C 
ATOM     17  C   UNL     1       1.066   9.698  19.158  0.00  0.00    +0.000 A 
ATOM     18  C   UNL     1       1.860   8.533  19.269  0.00  0.00    +0.000 A 
ATOM     19  C   UNL     1       1.785   7.770  20.454  0.00  0.00    +0.000 A 
ATOM     20  C   UNL     1       1.006   8.166  21.543  0.00  0.00    +0.000 A 
ATOM     21  C   UNL     1       0.298   9.356  21.480  0.00  0.00    +0.000 A 
ATOM     22  C   UNL     1       0.348  10.113  20.302  0.00  0.00    +0.000 A 
BRANCH  22  23
ATOM     23  N   UNL     1      -0.380  11.375  20.304  0.00  0.00    +0.000 N 
ATOM     24  O   UNL     1       0.219  12.378  20.706  0.00  0.00    +0.000 OA
ATOM     25  O   UNL     1      -1.558  11.340  19.920  0.00  0.00    +0.000 OA
ENDBRANCH  22  23
ENDBRANCH   1  18
TORSDOF 2
ENDMDL
MODEL 4
REMARK VINA RESULT:      -7.9      1.923      3.191
REMARK  Name = 
REMARK  3 active torsions:
REMARK  status: ('A' for Active; 'I' for Inactive)
REMARK    1  A    between atoms: C_1  and  C_2
REMARK    2  A    between atoms: C_3  and  N_4
REMARK    3  A    between atoms: C_21  and  N_22
REMARK                            x       y       z     vdW  Elec       q    Type
REMARK                         _______ _______ _______ _____ _____    ______ ____
ROOT
ATOM      1  N   UNL     1       2.889   8.044  17.884  0.00  0.00    +0.000 N 
ATOM      2  C   UNL     1       3.050   6.673  17.842  0.00  0.00    +0.000 A 
ATOM      3  N   UNL     1       2.029   5.861  17.957  0.00  0.00    +0.000 NA
ATOM      4  C   UNL     1       2.237   4.475  18.129  0.00  0.00    +0.000 A 
ATOM      5  C   UNL     1       1.135   3.685  18.450  0.00  0.00    +0.000 A 
ATOM      6  C   UNL     1       1.303   2.333  18.762  0.00  0.00    +0.000 A 
ATOM      7  C   UNL     1       2.577   1.759  18.736  0.00  0.00    +0.000 A 
ATOM      8  C   UNL     1       3.694   2.526  18.399  0.00  0.00    +0.000 A 
ATOM      9  C   UNL     1       3.510   3.878  18.115  0.00  0.00    +0.000 A 
ATOM     10  N   UNL     1       4.570   4.752  17.865  0.00  0.00    +0.000 N 
ATOM     11  C   UNL     1       5.918   4.583  17.785  0.00  0.00    +0.000 A 
ATOM     12  N   UNL     1       6.497   5.749  17.569  0.00  0.00    +0.000 NA
ATOM     13  N   UNL     1       5.508   6.714  17.535  0.00  0.00    +0.000 NA
ATOM     14  C   UNL     1       4.364   6.091  17.717  0.00  0.00    +0.000 A 
ATOM     15  H   UNL     1       3.753   8.576  17.812  0.00  0.00    +0.000 HD
ENDROOT
BRANCH   1  18
ATOM     16  C   UNL     1       2.254   7.524  20.840  0.00  0.00    +0.000 C 
ATOM     17  C   UNL     1       1.506   8.476  19.938  0.00  0.00    +0.000 A 
ATOM     18  C   UNL     1       1.878   8.730  18.597  0.00  0.00    +0.000 A 
ATOM     19  C   UNL     1       1.223   9.764  17.894  0.00  0.00    +0.000 A 
ATOM     20  C   UNL     1       0.174  10.494  18.455  0.00  0.00    +0.000 A 
ATOM     21  C   UNL     1      -0.262  10.189  19.736  0.00  0.00    +0.000 A 
ATOM     22  C   UNL     1       0.393   9.179  20.452  0.00  0.00    +0.000 A 
BRANCH  22  23
ATOM     23  N   UNL     1      -0.132   8.870  21.776  0.00  0.00    +0.000 N 
ATOM     24  O   UNL     1      -0.941   7.941  21.865  0.00  0.00    +0.000 OA
ATOM     25  O   UNL     1       0.260   9.582  22.712  0.00  0.00    +0.000 OA
ENDBRANCH  22  23
ENDBRANCH   1  18
TORSDOF 2
ENDMDL
MODEL 5
REMARK VINA RESULT:      -7.6      1.626      3.597
REMARK  Name = 
REMARK  3 active torsions:
REMARK  status: ('A' for Active; 'I' for Inactive)
REMARK    1  A    between atoms: C_1  and  C_2
REMARK    2  A    between atoms: C_3  and  N_4
REMARK    3  A    between atoms: C_21  and  N_22
REMARK                            x       y       z     vdW  Elec       q    Type
REMARK                         _______ _______ _______ _____ _____    ______ ____
ROOT
ATOM      1  N   UNL     1       2.137   7.999  18.854  0.00  0.00    +0.000 N 
ATOM      2  C   UNL     1       2.540   6.688  19.011  0.00  0.00    +0.000 A 
ATOM      3  N   UNL     1       1.867   5.851  19.761  0.00  0.00    +0.000 NA
ATOM      4  C   UNL     1       2.407   4.587  20.082  0.00  0.00    +0.000 A 
ATOM      5  C   UNL     1       1.750   3.821  21.042  0.00  0.00    +0.000 A 
ATOM      6  C   UNL     1       2.312   2.624  21.495  0.00  0.00    +0.000 A 
ATOM      7  C   UNL     1       3.529   2.177  20.973  0.00  0.00    +0.000 A 
ATOM      8  C   UNL     1       4.197   2.918  19.996  0.00  0.00    +0.000 A 
ATOM      9  C   UNL     1       3.634   4.122  19.575  0.00  0.00    +0.000 A 
ATOM     10  N   UNL     1       4.268   4.984  18.679  0.00  0.00    +0.000 N 
ATOM     11  C   UNL     1       5.443   4.918  17.995  0.00  0.00    +0.000 A 
ATOM     12  N   UNL     1       5.614   6.027  17.302  0.00  0.00    +0.000 NA
ATOM     13  N   UNL     1       4.539   6.857  17.558  0.00  0.00    +0.000 NA
ATOM     14  C   UNL     1       3.749   6.210  18.387  0.00  0.00    +0.000 A 
ATOM     15  H   UNL     1       2.750   8.565  18.271  0.00  0.00    +0.000 HD
ENDROOT
BRANCH   1  18
ATOM     16  C   UNL     1       0.217  10.279  18.126  0.00  0.00    +0.000 C 
ATOM     17  C   UNL     1       0.592   9.864  19.529  0.00  0.00    +0.000 A 
ATOM     18  C   UNL     1       1.432   8.762  19.814  0.00  0.00    +0.000 A 
ATOM     19  C   UNL     1       1.580   8.350  21.156  0.00  0.00    +0.000 A 
ATOM     20  C   UNL     1       0.982   9.036  22.213  0.00  0.00    +0.000 A 
ATOM     21  C   UNL     1       0.234  10.175  21.952  0.00  0.00    +0.000 A 
ATOM     22  C   UNL     1       0.062  10.583  20.624  0.00  0.00    +0.000 A 
BRANCH  22  23
ATOM     23  N   UNL     1      -0.697  11.808  20.408  0.00  0.00    +0.000 N 
ATOM     24  O   UNL     1      -1.918  11.701  20.252  0.00  0.00    +0.000 OA
ATOM     25  O   UNL     1      -0.052  12.866  20.376  0.00  0.00    +0.000 OA
ENDBRANCH  22  23
ENDBRANCH   1  18
TORSDOF 2
ENDMDL
MODEL 6
REMARK VINA RESULT:      -7.6      1.891      3.487
REMARK  Name = 
REMARK  3 active torsions:
REMARK  status: ('A' for Active; 'I' for Inactive)
REMARK    1  A    between atoms: C_1  and  C_2
REMARK    2  A    between atoms: C_3  and  N_4
REMARK    3  A    between atoms: C_21  and  N_22
REMARK                            x       y       z     vdW  Elec       q    Type
REMARK                         _______ _______ _______ _____ _____    ______ ____
ROOT
ATOM      1  N   UNL     1       2.343   7.954  18.263  0.00  0.00    +0.000 N 
ATOM      2  C   UNL     1       2.592   6.649  18.638  0.00  0.00    +0.000 A 
ATOM      3  N   UNL     1       1.659   5.903  19.176  0.00  0.00    +0.000 NA
ATOM      4  C   UNL     1       1.986   4.654  19.748  0.00  0.00    +0.000 A 
ATOM      5  C   UNL     1       1.003   3.996  20.483  0.00  0.00    +0.000 A 
ATOM      6  C   UNL     1       1.309   2.825  21.182  0.00  0.00    +0.000 A 
ATOM      7  C   UNL     1       2.601   2.294  21.132  0.00  0.00    +0.000 A 
ATOM      8  C   UNL     1       3.599   2.926  20.386  0.00  0.00    +0.000 A 
ATOM      9  C   UNL     1       3.281   4.107  19.717  0.00  0.00    +0.000 A 
ATOM     10  N   UNL     1       4.227   4.867  19.027  0.00  0.00    +0.000 N 
ATOM     11  C   UNL     1       5.556   4.703  18.783  0.00  0.00    +0.000 A 
ATOM     12  N   UNL     1       6.013   5.742  18.112  0.00  0.00    +0.000 NA
ATOM     13  N   UNL     1       4.966   6.626  17.933  0.00  0.00    +0.000 NA
ATOM     14  C   UNL     1       3.909   6.080  18.492  0.00  0.00    +0.000 A 
ATOM     15  H   UNL     1       3.148   8.447  17.881  0.00  0.00    +0.000 HD
ENDROOT
BRANCH   1  18
ATOM     16  C   UNL     1       2.033   8.237  21.302  0.00  0.00    +0.000 C 
ATOM     17  C   UNL     1       1.182   8.933  20.266  0.00  0.00    +0.000 A 
ATOM     18  C   UNL     1       1.406   8.820  18.874  0.00  0.00    +0.000 A 
ATOM     19  C   UNL     1       0.669   9.645  17.998  0.00  0.00    +0.000 A 
ATOM     20  C   UNL     1      -0.322  10.514  18.456  0.00  0.00    +0.000 A 
ATOM     21  C   UNL     1      -0.617  10.562  19.811  0.00  0.00    +0.000 A 
ATOM     22  C   UNL     1       0.122   9.764  20.693  0.00  0.00    +0.000 A 
BRANCH  22  23
ATOM     23  N   UNL     1      -0.255   9.821  22.099  0.00  0.00    +0.000 N 
ATOM     24  O   UNL     1       0.058  10.835  22.732  0.00  0.00    +0.000 OA
ATOM     25  O   UNL     1      -0.846   8.833  22.559  0.00  0.00    +0.000 OA
ENDBRANCH  22  23
ENDBRANCH   1  18
TORSDOF 2
ENDMDL
MODEL 7
REMARK VINA RESULT:      -7.5      3.631      7.692
REMARK  Name = 
REMARK  3 active torsions:
REMARK  status: ('A' for Active; 'I' for Inactive)
REMARK    1  A    between atoms: C_1  and  C_2
REMARK    2  A    between atoms: C_3  and  N_4
REMARK    3  A    between atoms: C_21  and  N_22
REMARK                            x       y       z     vdW  Elec       q    Type
REMARK                         _______ _______ _______ _____ _____    ______ ____
ROOT
ATOM      1  N   UNL     1       2.647   7.008  19.061  0.00  0.00    +0.000 N 
ATOM      2  C   UNL     1       2.056   8.091  19.681  0.00  0.00    +0.000 A 
ATOM      3  N   UNL     1       1.626   8.020  20.917  0.00  0.00    +0.000 NA
ATOM      4  C   UNL     1       0.836   9.058  21.458  0.00  0.00    +0.000 A 
ATOM      5  C   UNL     1       0.237   8.844  22.697  0.00  0.00    +0.000 A 
ATOM      6  C   UNL     1      -0.661   9.779  23.217  0.00  0.00    +0.000 A 
ATOM      7  C   UNL     1      -0.951  10.947  22.507  0.00  0.00    +0.000 A 
ATOM      8  C   UNL     1      -0.348  11.193  21.271  0.00  0.00    +0.000 A 
ATOM      9  C   UNL     1       0.526  10.237  20.756  0.00  0.00    +0.000 A 
ATOM     10  N   UNL     1       1.102  10.339  19.489  0.00  0.00    +0.000 N 
ATOM     11  C   UNL     1       1.042  11.285  18.511  0.00  0.00    +0.000 A 
ATOM     12  N   UNL     1       1.739  10.884  17.466  0.00  0.00    +0.000 NA
ATOM     13  N   UNL     1       2.248   9.630  17.750  0.00  0.00    +0.000 NA
ATOM     14  C   UNL     1       1.850   9.327  18.966  0.00  0.00    +0.000 A 
ATOM     15  H   UNL     1       2.918   7.169  18.093  0.00  0.00    +0.000 HD
ENDROOT
BRANCH   1  18
ATOM     16  C   UNL     1       3.914   4.673  17.526  0.00  0.00    +0.000 C 
ATOM     17  C   UNL     1       2.870   4.545  18.611  0.00  0.00    +0.000 A 
ATOM     18  C   UNL     1       2.364   5.650  19.335  0.00  0.00    +0.000 A 
ATOM     19  C   UNL     1       1.524   5.409  20.444  0.00  0.00    +0.000 A 
ATOM     20  C   UNL     1       1.123   4.122  20.804  0.00  0.00    +0.000 A 
ATOM     21  C   UNL     1       1.537   3.039  20.042  0.00  0.00    +0.000 A 
ATOM     22  C   UNL     1       2.386   3.263  18.952  0.00  0.00    +0.000 A 
BRANCH  22  23
ATOM     23  N   UNL     1       2.757   2.096  18.161  0.00  0.00    +0.000 N 
ATOM     24  O   UNL     1       3.645   1.363  18.609  0.00  0.00    +0.000 OA
ATOM     25  O   UNL     1       2.165   1.942  17.082  0.00  0.00    +0.000 OA
ENDBRANCH  22  23
ENDBRANCH   1  18
TORSDOF 2
ENDMDL
MODEL 8
REMARK VINA RESULT:      -7.4      4.261      6.473
REMARK  Name = 
REMARK  3 active torsions:
REMARK  status: ('A' for Active; 'I' for Inactive)
REMARK    1  A    between atoms: C_1  and  C_2
REMARK    2  A    between atoms: C_3  and  N_4
REMARK    3  A    between atoms: C_21  and  N_22
REMARK                            x       y       z     vdW  Elec       q    Type
REMARK                         _______ _______ _______ _____ _____    ______ ____
ROOT
ATOM      1  N   UNL     1      -1.849  11.646  19.713  0.00  0.00    +0.000 N 
ATOM      2  C   UNL     1      -0.754  10.821  19.874  0.00  0.00    +0.000 A 
ATOM      3  N   UNL     1      -0.107  10.334  18.843  0.00  0.00    +0.000 NA
ATOM      4  C   UNL     1       0.867   9.328  19.023  0.00  0.00    +0.000 A 
ATOM      5  C   UNL     1       1.377   8.704  17.887  0.00  0.00    +0.000 A 
ATOM      6  C   UNL     1       2.241   7.612  18.010  0.00  0.00    +0.000 A 
ATOM      7  C   UNL     1       2.616   7.151  19.275  0.00  0.00    +0.000 A 
ATOM      8  C   UNL     1       2.133   7.773  20.428  0.00  0.00    +0.000 A 
ATOM      9  C   UNL     1       1.252   8.844  20.286  0.00  0.00    +0.000 A 
ATOM     10  N   UNL     1       0.636   9.470  21.372  0.00  0.00    +0.000 N 
ATOM     11  C   UNL     1       0.719   9.293  22.719  0.00  0.00    +0.000 A 
ATOM     12  N   UNL     1      -0.113  10.118  23.324  0.00  0.00    +0.000 NA
ATOM     13  N   UNL     1      -0.780  10.838  22.350  0.00  0.00    +0.000 NA
ATOM     14  C   UNL     1      -0.315  10.429  21.191  0.00  0.00    +0.000 A 
ATOM     15  H   UNL     1      -2.289  11.941  20.582  0.00  0.00    +0.000 HD
ENDROOT
BRANCH   1  18
ATOM     16  C   UNL     1      -4.778  12.536  19.911  0.00  0.00    +0.000 C 
ATOM     17  C   UNL     1      -4.123  11.945  18.685  0.00  0.00    +0.000 A 
ATOM     18  C   UNL     1      -2.750  11.610  18.623  0.00  0.00    +0.000 A 
ATOM     19  C   UNL     1      -2.198  11.229  17.381  0.00  0.00    +0.000 A 
ATOM     20  C   UNL     1      -2.978  11.105  16.231  0.00  0.00    +0.000 A 
ATOM     21  C   UNL     1      -4.343  11.339  16.301  0.00  0.00    +0.000 A 
ATOM     22  C   UNL     1      -4.900  11.737  17.523  0.00  0.00    +0.000 A 
BRANCH  22  23
ATOM     23  N   UNL     1      -6.344  11.929  17.553  0.00  0.00    +0.000 N 
ATOM     24  O   UNL     1      -6.791  12.965  17.050  0.00  0.00    +0.000 OA
ATOM     25  O   UNL     1      -7.014  11.043  18.103  0.00  0.00    +0.000 OA
ENDBRANCH  22  23
ENDBRANCH   1  18
TORSDOF 2
ENDMDL
MODEL 9
REMARK VINA RESULT:      -7.2      1.466      2.159
REMARK  Name = 
REMARK  3 active torsions:
REMARK  status: ('A' for Active; 'I' for Inactive)
REMARK    1  A    between atoms: C_1  and  C_2
REMARK    2  A    between atoms: C_3  and  N_4
REMARK    3  A    between atoms: C_21  and  N_22
REMARK                            x       y       z     vdW  Elec       q    Type
REMARK                         _______ _______ _______ _____ _____    ______ ____
ROOT
ATOM      1  N   UNL     1       1.647   6.524  20.266  0.00  0.00    +0.000 N 
ATOM      2  C   UNL     1       2.547   5.949  19.391  0.00  0.00    +0.000 A 
ATOM      3  N   UNL     1       3.648   6.567  19.039  0.00  0.00    +0.000 NA
ATOM      4  C   UNL     1       4.442   6.063  17.986  0.00  0.00    +0.000 A 
ATOM      5  C   UNL     1       5.484   6.860  17.517  0.00  0.00    +0.000 A 
ATOM      6  C   UNL     1       6.217   6.472  16.392  0.00  0.00    +0.000 A 
ATOM      7  C   UNL     1       5.923   5.271  15.740  0.00  0.00    +0.000 A 
ATOM      8  C   UNL     1       4.895   4.447  16.204  0.00  0.00    +0.000 A 
ATOM      9  C   UNL     1       4.158   4.862  17.312  0.00  0.00    +0.000 A 
ATOM     10  N   UNL     1       3.050   4.162  17.793  0.00  0.00    +0.000 N 
ATOM     11  C   UNL     1       2.449   2.999  17.419  0.00  0.00    +0.000 A 
ATOM     12  N   UNL     1       1.388   2.789  18.175  0.00  0.00    +0.000 NA
ATOM     13  N   UNL     1       1.272   3.854  19.049  0.00  0.00    +0.000 NA
ATOM     14  C   UNL     1       2.278   4.662  18.798  0.00  0.00    +0.000 A 
ATOM     15  H   UNL     1       0.815   5.966  20.446  0.00  0.00    +0.000 HD
ENDROOT
BRANCH   1  18
ATOM     16  C   UNL     1       1.293   8.450  17.903  0.00  0.00    +0.000 C 
ATOM     17  C   UNL     1       1.321   8.847  19.361  0.00  0.00    +0.000 A 
ATOM     18  C   UNL     1       1.422   7.912  20.418  0.00  0.00    +0.000 A 
ATOM     19  C   UNL     1       1.265   8.368  21.745  0.00  0.00    +0.000 A 
ATOM     20  C   UNL     1       1.084   9.717  22.049  0.00  0.00    +0.000 A 
ATOM     21  C   UNL     1       1.080  10.654  21.026  0.00  0.00    +0.000 A 
ATOM     22  C   UNL     1       1.214  10.213  19.703  0.00  0.00    +0.000 A 
BRANCH  22  23
ATOM     23  N   UNL     1       1.245  11.241  18.671  0.00  0.00    +0.000 N 
ATOM     24  O   UNL     1       2.341  11.513  18.170  0.00  0.00    +0.000 OA
ATOM     25  O   UNL     1       0.165  11.782  18.389  0.00  0.00    +0.000 OA
ENDBRANCH  22  23
ENDBRANCH   1  18
TORSDOF 2
ENDMDL
