MODEL 1
REMARK VINA RESULT:      -8.6      0.000      0.000
REMARK  Name = 
REMARK  10 active torsions:
REMARK  status: ('A' for Active; 'I' for Inactive)
REMARK    1  A    between atoms: C_1  and  C_2
REMARK    2  A    between atoms: N_4  and  C_5
REMARK    3  A    between atoms: C_9  and  C_10
REMARK    4  A    between atoms: C_11  and  C_12
REMARK    5  A    between atoms: N_14  and  C_15
REMARK    6  A    between atoms: C_19  and  C_21
REMARK    7  A    between atoms: C_22  and  C_23
REMARK    8  A    between atoms: C_23  and  N_24
REMARK    9  A    between atoms: N_24  and  C_25
REMARK   10  A    between atoms: N_24  and  C_26
REMARK                            x       y       z     vdW  Elec       q    Type
REMARK                         _______ _______ _______ _____ _____    ______ ____
ROOT
ATOM      1  C   UNL     1       2.243   8.534  18.311  0.00  0.00    +0.000 A 
ATOM      2  N   UNL     1       1.749   9.557  17.598  0.00  0.00    +0.000 NA
ATOM      3  N   UNL     1       0.752  10.040  18.398  0.00  0.00    +0.000 N 
ATOM      4  C   UNL     1       0.655   9.367  19.591  0.00  0.00    +0.000 A 
ATOM      5  N   UNL     1      -0.222   9.586  20.583  0.00  0.00    +0.000 NA
ATOM      6  C   UNL     1      -0.085   8.692  21.576  0.00  0.00    +0.000 A 
ATOM      7  N   UNL     1       0.752   7.637  21.629  0.00  0.00    +0.000 NA
ATOM      8  C   UNL     1       1.599   7.437  20.600  0.00  0.00    +0.000 A 
ATOM      9  N   UNL     1       2.395   6.297  20.642  0.00  0.00    +0.000 N 
ATOM     10  C   UNL     1       1.584   8.345  19.539  0.00  0.00    +0.000 A 
ATOM     11  H   UNL     1       2.014   5.640  21.315  0.00  0.00    +0.000 HD
ATOM     12  H   UNL     1       2.618   5.904  19.737  0.00  0.00    +0.000 HD
ENDROOT
BRANCH   3  13
ATOM     13  C   UNL     1      -0.260  10.895  17.800  0.00  0.00    +0.000 C 
ATOM     14  C   UNL     1      -1.454  10.045  17.337  0.00  0.00    +0.000 C 
ATOM     15  C   UNL     1      -2.649  10.967  17.445  0.00  0.00    +0.000 C 
ATOM     16  N   UNL     1      -2.333  11.814  18.579  0.00  0.00    +0.000 N 
ATOM     17  C   UNL     1      -3.194  12.476  19.429  0.00  0.00    +0.000 C 
ATOM     18  O   UNL     1      -2.795  13.226  20.317  0.00  0.00    +0.000 OA
ATOM     19  C   UNL     1      -0.885  11.988  18.689  0.00  0.00    +0.000 C 
BRANCH  17  20
ATOM     20  C   UNL     1      -4.653  12.232  19.235  0.00  0.00    +0.000 C 
ATOM     21  C   UNL     1      -5.469  11.947  20.266  0.00  0.00    +0.000 C 
BRANCH  21  22
ATOM     22  C   UNL     1      -6.942  11.692  20.106  0.00  0.00    +0.000 C 
BRANCH  22  23
ATOM     23  N   UNL     1      -7.775  12.529  20.981  0.00  0.00    +0.000 NA
ATOM     24  C   UNL     1      -7.247  12.598  22.346  0.00  0.00    +0.000 C 
ATOM     25  C   UNL     1      -7.874  13.884  20.429  0.00  0.00    +0.000 C 
ENDBRANCH  22  23
ENDBRANCH  21  22
ENDBRANCH  17  20
ENDBRANCH   3  13
BRANCH   1  27
ATOM     26  C   UNL     1       4.214   7.027  17.453  0.00  0.00    +0.000 C 
ATOM     27  C   UNL     1       3.281   7.717  17.780  0.00  0.00    +0.000 C 
BRANCH  26  32
ATOM     28  C   UNL     1       6.357   4.606  15.571  0.00  0.00    +0.000 A 
ATOM     29  C   UNL     1       7.397   4.442  16.491  0.00  0.00    +0.000 A 
ATOM     30  C   UNL     1       7.398   5.137  17.700  0.00  0.00    +0.000 A 
ATOM     31  C   UNL     1       6.350   5.997  18.006  0.00  0.00    +0.000 A 
ATOM     32  C   UNL     1       5.315   6.189  17.090  0.00  0.00    +0.000 A 
ATOM     33  C   UNL     1       5.338   5.527  15.853  0.00  0.00    +0.000 A 
BRANCH  28  37
ATOM     34  C   UNL     1       6.556   3.222  12.058  0.00  0.00    +0.000 C 
ATOM     35  C   UNL     1       6.777   4.239  13.146  0.00  0.00    +0.000 C 
ATOM     36  O   UNL     1       7.366   5.286  12.898  0.00  0.00    +0.000 OA
ATOM     37  N   UNL     1       6.274   3.846  14.379  0.00  0.00    +0.000 N 
ATOM     38  H   UNL     1       5.993   2.878  14.472  0.00  0.00    +0.000 HD
ENDBRANCH  28  37
ENDBRANCH  26  32
ENDBRANCH   1  27
TORSDOF 7
ENDMDL
MODEL 2
REMARK VINA RESULT:      -8.0      1.208      1.433
REMARK  Name = 
REMARK  10 active torsions:
REMARK  status: ('A' for Active; 'I' for Inactive)
REMARK    1  A    between atoms: C_1  and  C_2
REMARK    2  A    between atoms: N_4  and  C_5
REMARK    3  A    between atoms: C_9  and  C_10
REMARK    4  A    between atoms: C_11  and  C_12
REMARK    5  A    between atoms: N_14  and  C_15
REMARK    6  A    between atoms: C_19  and  C_21
REMARK    7  A    between atoms: C_22  and  C_23
REMARK    8  A    between atoms: C_23  and  N_24
REMARK    9  A    between atoms: N_24  and  C_25
REMARK   10  A    between atoms: N_24  and  C_26
REMARK                            x       y       z     vdW  Elec       q    Type
REMARK                         _______ _______ _______ _____ _____    ______ ____
ROOT
ATOM      1  C   UNL     1       1.975   8.627  18.538  0.00  0.00    +0.000 A 
ATOM      2  N   UNL     1       1.479   9.631  17.801  0.00  0.00    +0.000 NA
ATOM      3  N   UNL     1       0.521  10.170  18.613  0.00  0.00    +0.000 N 
ATOM      4  C   UNL     1       0.451   9.549  19.836  0.00  0.00    +0.000 A 
ATOM      5  N   UNL     1      -0.386   9.829  20.847  0.00  0.00    +0.000 NA
ATOM      6  C   UNL     1      -0.234   8.973  21.871  0.00  0.00    +0.000 A 
ATOM      7  N   UNL     1       0.581   7.902  21.939  0.00  0.00    +0.000 NA
ATOM      8  C   UNL     1       1.387   7.640  20.892  0.00  0.00    +0.000 A 
ATOM      9  N   UNL     1       2.159   6.484  20.955  0.00  0.00    +0.000 N 
ATOM     10  C   UNL     1       1.354   8.504  19.795  0.00  0.00    +0.000 A 
ATOM     11  H   UNL     1       1.786   5.864  21.667  0.00  0.00    +0.000 HD
ATOM     12  H   UNL     1       2.341   6.049  20.060  0.00  0.00    +0.000 HD
ENDROOT
BRANCH   3  13
ATOM     13  C   UNL     1      -0.492  11.023  18.014  0.00  0.00    +0.000 C 
ATOM     14  C   UNL     1      -1.677  10.169  17.535  0.00  0.00    +0.000 C 
ATOM     15  C   UNL     1      -2.878  11.081  17.642  0.00  0.00    +0.000 C 
ATOM     16  N   UNL     1      -2.577  11.921  18.785  0.00  0.00    +0.000 N 
ATOM     17  C   UNL     1      -3.449  12.570  19.634  0.00  0.00    +0.000 C 
ATOM     18  O   UNL     1      -3.063  13.315  20.531  0.00  0.00    +0.000 OA
ATOM     19  C   UNL     1      -1.131  12.104  18.908  0.00  0.00    +0.000 C 
BRANCH  17  20
ATOM     20  C   UNL     1      -4.905  12.318  19.426  0.00  0.00    +0.000 C 
ATOM     21  C   UNL     1      -5.812  13.310  19.475  0.00  0.00    +0.000 C 
BRANCH  21  22
ATOM     22  C   UNL     1      -7.286  13.091  19.275  0.00  0.00    +0.000 C 
BRANCH  22  23
ATOM     23  N   UNL     1      -7.802  13.704  18.043  0.00  0.00    +0.000 NA
ATOM     24  C   UNL     1      -7.900  15.162  18.149  0.00  0.00    +0.000 C 
ATOM     25  C   UNL     1      -6.935  13.356  16.912  0.00  0.00    +0.000 C 
ENDBRANCH  22  23
ENDBRANCH  21  22
ENDBRANCH  17  20
ENDBRANCH   3  13
BRANCH   1  27
ATOM     26  C   UNL     1       3.899   7.070  17.663  0.00  0.00    +0.000 C 
ATOM     27  C   UNL     1       2.976   7.765  18.008  0.00  0.00    +0.000 C 
BRANCH  26  32
ATOM     28  C   UNL     1       6.529   5.395  15.596  0.00  0.00    +0.000 A 
ATOM     29  C   UNL     1       7.020   4.478  16.531  0.00  0.00    +0.000 A 
ATOM     30  C   UNL     1       6.503   4.433  17.826  0.00  0.00    +0.000 A 
ATOM     31  C   UNL     1       5.481   5.299  18.196  0.00  0.00    +0.000 A 
ATOM     32  C   UNL     1       4.995   6.234  17.282  0.00  0.00    +0.000 A 
ATOM     33  C   UNL     1       5.547   6.313  15.994  0.00  0.00    +0.000 A 
BRANCH  28  37
ATOM     34  C   UNL     1       7.285   4.683  11.960  0.00  0.00    +0.000 C 
ATOM     35  C   UNL     1       6.718   4.396  13.325  0.00  0.00    +0.000 C 
ATOM     36  O   UNL     1       6.100   3.355  13.527  0.00  0.00    +0.000 OA
ATOM     37  N   UNL     1       6.961   5.405  14.247  0.00  0.00    +0.000 N 
ATOM     38  H   UNL     1       7.308   6.284  13.884  0.00  0.00    +0.000 HD
ENDBRANCH  28  37
ENDBRANCH  26  32
ENDBRANCH   1  27
TORSDOF 7
ENDMDL
MODEL 3
REMARK VINA RESULT:      -7.8      6.144      7.880
REMARK  Name = 
REMARK  10 active torsions:
REMARK  status: ('A' for Active; 'I' for Inactive)
REMARK    1  A    between atoms: C_1  and  C_2
REMARK    2  A    between atoms: N_4  and  C_5
REMARK    3  A    between atoms: C_9  and  C_10
REMARK    4  A    between atoms: C_11  and  C_12
REMARK    5  A    between atoms: N_14  and  C_15
REMARK    6  A    between atoms: C_19  and  C_21
REMARK    7  A    between atoms: C_22  and  C_23
REMARK    8  A    between atoms: C_23  and  N_24
REMARK    9  A    between atoms: N_24  and  C_25
REMARK   10  A    between atoms: N_24  and  C_26
REMARK                            x       y       z     vdW  Elec       q    Type
REMARK                         _______ _______ _______ _____ _____    ______ ____
ROOT
ATOM      1  C   UNL     1       8.658  11.896  17.841  0.00  0.00    +0.000 A 
ATOM      2  N   UNL     1       7.593  12.698  17.975  0.00  0.00    +0.000 NA
ATOM      3  N   UNL     1       8.149  13.945  18.050  0.00  0.00    +0.000 N 
ATOM      4  C   UNL     1       9.516  13.924  17.924  0.00  0.00    +0.000 A 
ATOM      5  N   UNL     1      10.356  14.970  17.965  0.00  0.00    +0.000 NA
ATOM      6  C   UNL     1      11.640  14.582  17.886  0.00  0.00    +0.000 A 
ATOM      7  N   UNL     1      12.122  13.325  17.833  0.00  0.00    +0.000 NA
ATOM      8  C   UNL     1      11.245  12.301  17.819  0.00  0.00    +0.000 A 
ATOM      9  N   UNL     1      11.770  11.013  17.846  0.00  0.00    +0.000 N 
ATOM     10  C   UNL     1       9.880  12.593  17.838  0.00  0.00    +0.000 A 
ATOM     11  H   UNL     1      12.736  11.045  18.155  0.00  0.00    +0.000 HD
ATOM     12  H   UNL     1      11.191  10.331  18.319  0.00  0.00    +0.000 HD
ENDROOT
BRANCH   3  13
ATOM     13  C   UNL     1       7.344  15.029  18.586  0.00  0.00    +0.000 C 
ATOM     14  C   UNL     1       6.021  15.130  17.809  0.00  0.00    +0.000 C 
ATOM     15  C   UNL     1       5.027  15.680  18.808  0.00  0.00    +0.000 C 
ATOM     16  N   UNL     1       5.467  15.129  20.075  0.00  0.00    +0.000 N 
ATOM     17  C   UNL     1       4.726  14.873  21.210  0.00  0.00    +0.000 C 
ATOM     18  O   UNL     1       5.236  14.467  22.252  0.00  0.00    +0.000 OA
ATOM     19  C   UNL     1       6.917  14.936  20.064  0.00  0.00    +0.000 C 
BRANCH  17  20
ATOM     20  C   UNL     1       3.254  15.101  21.120  0.00  0.00    +0.000 C 
ATOM     21  C   UNL     1       2.422  14.175  20.611  0.00  0.00    +0.000 C 
BRANCH  21  22
ATOM     22  C   UNL     1       0.935  14.374  20.502  0.00  0.00    +0.000 C 
BRANCH  22  23
ATOM     23  N   UNL     1       0.210  13.147  20.142  0.00  0.00    +0.000 NA
ATOM     24  C   UNL     1       0.170  12.933  18.694  0.00  0.00    +0.000 C 
ATOM     25  C   UNL     1       0.839  11.989  20.788  0.00  0.00    +0.000 C 
ENDBRANCH  22  23
ENDBRANCH  21  22
ENDBRANCH  17  20
ENDBRANCH   3  13
BRANCH   1  27
ATOM     26  C   UNL     1       8.313   9.294  17.872  0.00  0.00    +0.000 C 
ATOM     27  C   UNL     1       8.498  10.482  17.791  0.00  0.00    +0.000 C 
BRANCH  26  32
ATOM     28  C   UNL     1       7.070   5.847  17.115  0.00  0.00    +0.000 A 
ATOM     29  C   UNL     1       7.451   5.192  18.290  0.00  0.00    +0.000 A 
ATOM     30  C   UNL     1       8.127   5.875  19.302  0.00  0.00    +0.000 A 
ATOM     31  C   UNL     1       8.418   7.226  19.152  0.00  0.00    +0.000 A 
ATOM     32  C   UNL     1       8.063   7.889  17.977  0.00  0.00    +0.000 A 
ATOM     33  C   UNL     1       7.427   7.191  16.939  0.00  0.00    +0.000 A 
BRANCH  28  37
ATOM     34  C   UNL     1       5.691   4.288  13.958  0.00  0.00    +0.000 C 
ATOM     35  C   UNL     1       6.715   5.000  14.803  0.00  0.00    +0.000 C 
ATOM     36  O   UNL     1       7.796   5.319  14.319  0.00  0.00    +0.000 OA
ATOM     37  N   UNL     1       6.299   5.213  16.110  0.00  0.00    +0.000 N 
ATOM     38  H   UNL     1       5.468   4.721  16.413  0.00  0.00    +0.000 HD
ENDBRANCH  28  37
ENDBRANCH  26  32
ENDBRANCH   1  27
TORSDOF 7
ENDMDL
MODEL 4
REMARK VINA RESULT:      -7.8      3.914      5.275
REMARK  Name = 
REMARK  10 active torsions:
REMARK  status: ('A' for Active; 'I' for Inactive)
REMARK    1  A    between atoms: C_1  and  C_2
REMARK    2  A    between atoms: N_4  and  C_5
REMARK    3  A    between atoms: C_9  and  C_10
REMARK    4  A    between atoms: C_11  and  C_12
REMARK    5  A    between atoms: N_14  and  C_15
REMARK    6  A    between atoms: C_19  and  C_21
REMARK    7  A    between atoms: C_22  and  C_23
REMARK    8  A    between atoms: C_23  and  N_24
REMARK    9  A    between atoms: N_24  and  C_25
REMARK   10  A    between atoms: N_24  and  C_26
REMARK                            x       y       z     vdW  Elec       q    Type
REMARK                         _______ _______ _______ _____ _____    ______ ____
ROOT
ATOM      1  C   UNL     1       0.276   9.061  21.033  0.00  0.00    +0.000 A 
ATOM      2  N   UNL     1      -0.197   9.458  22.223  0.00  0.00    +0.000 NA
ATOM      3  N   UNL     1      -0.815  10.642  21.933  0.00  0.00    +0.000 N 
ATOM      4  C   UNL     1      -0.766  10.953  20.596  0.00  0.00    +0.000 A 
ATOM      5  N   UNL     1      -1.264  12.043  19.992  0.00  0.00    +0.000 NA
ATOM      6  C   UNL     1      -0.969  12.065  18.682  0.00  0.00    +0.000 A 
ATOM      7  N   UNL     1      -0.222  11.185  17.987  0.00  0.00    +0.000 NA
ATOM      8  C   UNL     1       0.282  10.117  18.637  0.00  0.00    +0.000 A 
ATOM      9  N   UNL     1       1.115   9.268  17.916  0.00  0.00    +0.000 N 
ATOM     10  C   UNL     1      -0.014   9.963  19.992  0.00  0.00    +0.000 A 
ATOM     11  H   UNL     1       1.441   9.740  17.079  0.00  0.00    +0.000 HD
ATOM     12  H   UNL     1       1.838   8.820  18.465  0.00  0.00    +0.000 HD
ENDROOT
BRANCH   3  13
ATOM     13  C   UNL     1      -1.105  11.555  23.026  0.00  0.00    +0.000 C 
ATOM     14  C   UNL     1      -0.584  12.960  22.684  0.00  0.00    +0.000 C 
ATOM     15  C   UNL     1      -1.512  13.905  23.415  0.00  0.00    +0.000 C 
ATOM     16  N   UNL     1      -2.790  13.221  23.397  0.00  0.00    +0.000 N 
ATOM     17  C   UNL     1      -4.058  13.758  23.459  0.00  0.00    +0.000 C 
ATOM     18  O   UNL     1      -5.068  13.060  23.506  0.00  0.00    +0.000 OA
ATOM     19  C   UNL     1      -2.586  11.772  23.397  0.00  0.00    +0.000 C 
BRANCH  17  20
ATOM     20  C   UNL     1      -4.161  15.247  23.454  0.00  0.00    +0.000 C 
ATOM     21  C   UNL     1      -4.163  15.962  24.593  0.00  0.00    +0.000 C 
BRANCH  21  22
ATOM     22  C   UNL     1      -4.269  17.462  24.625  0.00  0.00    +0.000 C 
BRANCH  22  23
ATOM     23  N   UNL     1      -2.976  18.132  24.825  0.00  0.00    +0.000 NA
ATOM     24  C   UNL     1      -2.070  17.346  25.667  0.00  0.00    +0.000 C 
ATOM     25  C   UNL     1      -2.339  18.383  23.528  0.00  0.00    +0.000 C 
ENDBRANCH  22  23
ENDBRANCH  21  22
ENDBRANCH  17  20
ENDBRANCH   3  13
BRANCH   1  27
ATOM     26  C   UNL     1       1.642   6.842  20.716  0.00  0.00    +0.000 C 
ATOM     27  C   UNL     1       1.053   7.873  20.922  0.00  0.00    +0.000 C 
BRANCH  26  32
ATOM     28  C   UNL     1       4.121   4.424  19.299  0.00  0.00    +0.000 A 
ATOM     29  C   UNL     1       3.599   3.227  19.798  0.00  0.00    +0.000 A 
ATOM     30  C   UNL     1       2.462   3.225  20.606  0.00  0.00    +0.000 A 
ATOM     31  C   UNL     1       1.828   4.422  20.914  0.00  0.00    +0.000 A 
ATOM     32  C   UNL     1       2.348   5.628  20.442  0.00  0.00    +0.000 A 
ATOM     33  C   UNL     1       3.520   5.635  19.670  0.00  0.00    +0.000 A 
BRANCH  28  37
ATOM     34  C   UNL     1       7.454   4.818  17.557  0.00  0.00    +0.000 C 
ATOM     35  C   UNL     1       6.488   4.915  18.708  0.00  0.00    +0.000 C 
ATOM     36  O   UNL     1       6.864   5.352  19.791  0.00  0.00    +0.000 OA
ATOM     37  N   UNL     1       5.214   4.457  18.399  0.00  0.00    +0.000 N 
ATOM     38  H   UNL     1       5.109   3.945  17.532  0.00  0.00    +0.000 HD
ENDBRANCH  28  37
ENDBRANCH  26  32
ENDBRANCH   1  27
TORSDOF 7
ENDMDL
MODEL 5
REMARK VINA RESULT:      -7.6      1.174      1.313
REMARK  Name = 
REMARK  10 active torsions:
REMARK  status: ('A' for Active; 'I' for Inactive)
REMARK    1  A    between atoms: C_1  and  C_2
REMARK    2  A    between atoms: N_4  and  C_5
REMARK    3  A    between atoms: C_9  and  C_10
REMARK    4  A    between atoms: C_11  and  C_12
REMARK    5  A    between atoms: N_14  and  C_15
REMARK    6  A    between atoms: C_19  and  C_21
REMARK    7  A    between atoms: C_22  and  C_23
REMARK    8  A    between atoms: C_23  and  N_24
REMARK    9  A    between atoms: N_24  and  C_25
REMARK   10  A    between atoms: N_24  and  C_26
REMARK                            x       y       z     vdW  Elec       q    Type
REMARK                         _______ _______ _______ _____ _____    ______ ____
ROOT
ATOM      1  C   UNL     1       2.032   8.614  18.532  0.00  0.00    +0.000 A 
ATOM      2  N   UNL     1       1.568   9.693  17.886  0.00  0.00    +0.000 NA
ATOM      3  N   UNL     1       0.721  10.261  18.796  0.00  0.00    +0.000 N 
ATOM      4  C   UNL     1       0.691   9.582  19.989  0.00  0.00    +0.000 A 
ATOM      5  N   UNL     1      -0.042   9.871  21.075  0.00  0.00    +0.000 NA
ATOM      6  C   UNL     1       0.113   8.951  22.041  0.00  0.00    +0.000 A 
ATOM      7  N   UNL     1       0.839   7.816  21.993  0.00  0.00    +0.000 NA
ATOM      8  C   UNL     1       1.540   7.549  20.874  0.00  0.00    +0.000 A 
ATOM      9  N   UNL     1       2.215   6.334  20.820  0.00  0.00    +0.000 N 
ATOM     10  C   UNL     1       1.498   8.472  19.827  0.00  0.00    +0.000 A 
ATOM     11  H   UNL     1       1.846   5.707  21.528  0.00  0.00    +0.000 HD
ATOM     12  H   UNL     1       2.294   5.936  19.893  0.00  0.00    +0.000 HD
ENDROOT
BRANCH   3  13
ATOM     13  C   UNL     1      -0.258  11.224  18.321  0.00  0.00    +0.000 C 
ATOM     14  C   UNL     1      -1.609  10.525  18.095  0.00  0.00    +0.000 C 
ATOM     15  C   UNL     1      -2.645  11.599  18.342  0.00  0.00    +0.000 C 
ATOM     16  N   UNL     1      -2.046  12.431  19.367  0.00  0.00    +0.000 N 
ATOM     17  C   UNL     1      -2.667  13.227  20.307  0.00  0.00    +0.000 C 
ATOM     18  O   UNL     1      -2.040  13.944  21.081  0.00  0.00    +0.000 OA
ATOM     19  C   UNL     1      -0.588  12.416  19.240  0.00  0.00    +0.000 C 
BRANCH  17  20
ATOM     20  C   UNL     1      -4.158  13.172  20.357  0.00  0.00    +0.000 C 
ATOM     21  C   UNL     1      -4.868  13.935  21.206  0.00  0.00    +0.000 C 
BRANCH  21  22
ATOM     22  C   UNL     1      -6.370  13.902  21.285  0.00  0.00    +0.000 C 
BRANCH  22  23
ATOM     23  N   UNL     1      -6.981  12.949  20.348  0.00  0.00    +0.000 NA
ATOM     24  C   UNL     1      -7.705  11.880  21.039  0.00  0.00    +0.000 C 
ATOM     25  C   UNL     1      -7.899  13.655  19.447  0.00  0.00    +0.000 C 
ENDBRANCH  22  23
ENDBRANCH  21  22
ENDBRANCH  17  20
ENDBRANCH   3  13
BRANCH   1  27
ATOM     26  C   UNL     1       3.637   6.851  17.434  0.00  0.00    +0.000 C 
ATOM     27  C   UNL     1       2.915   7.705  17.884  0.00  0.00    +0.000 C 
BRANCH  26  32
ATOM     28  C   UNL     1       6.069   5.024  15.257  0.00  0.00    +0.000 A 
ATOM     29  C   UNL     1       5.955   3.739  15.796  0.00  0.00    +0.000 A 
ATOM     30  C   UNL     1       5.106   3.490  16.875  0.00  0.00    +0.000 A 
ATOM     31  C   UNL     1       4.353   4.524  17.417  0.00  0.00    +0.000 A 
ATOM     32  C   UNL     1       4.470   5.816  16.905  0.00  0.00    +0.000 A 
ATOM     33  C   UNL     1       5.361   6.077  15.852  0.00  0.00    +0.000 A 
BRANCH  28  37
ATOM     34  C   UNL     1       7.717   5.101  11.854  0.00  0.00    +0.000 C 
ATOM     35  C   UNL     1       6.786   4.578  12.916  0.00  0.00    +0.000 C 
ATOM     36  O   UNL     1       6.061   3.617  12.679  0.00  0.00    +0.000 OA
ATOM     37  N   UNL     1       6.846   5.294  14.104  0.00  0.00    +0.000 N 
ATOM     38  H   UNL     1       7.342   6.177  14.082  0.00  0.00    +0.000 HD
ENDBRANCH  28  37
ENDBRANCH  26  32
ENDBRANCH   1  27
TORSDOF 7
ENDMDL
MODEL 6
REMARK VINA RESULT:      -7.6      6.117      9.002
REMARK  Name = 
REMARK  10 active torsions:
REMARK  status: ('A' for Active; 'I' for Inactive)
REMARK    1  A    between atoms: C_1  and  C_2
REMARK    2  A    between atoms: N_4  and  C_5
REMARK    3  A    between atoms: C_9  and  C_10
REMARK    4  A    between atoms: C_11  and  C_12
REMARK    5  A    between atoms: N_14  and  C_15
REMARK    6  A    between atoms: C_19  and  C_21
REMARK    7  A    between atoms: C_22  and  C_23
REMARK    8  A    between atoms: C_23  and  N_24
REMARK    9  A    between atoms: N_24  and  C_25
REMARK   10  A    between atoms: N_24  and  C_26
REMARK                            x       y       z     vdW  Elec       q    Type
REMARK                         _______ _______ _______ _____ _____    ______ ____
ROOT
ATOM      1  C   UNL     1       2.868  13.834  19.539  0.00  0.00    +0.000 A 
ATOM      2  N   UNL     1       2.537  12.843  18.699  0.00  0.00    +0.000 NA
ATOM      3  N   UNL     1       1.365  12.371  19.220  0.00  0.00    +0.000 N 
ATOM      4  C   UNL     1       0.955  13.074  20.327  0.00  0.00    +0.000 A 
ATOM      5  N   UNL     1      -0.139  12.858  21.073  0.00  0.00    +0.000 NA
ATOM      6  C   UNL     1      -0.193  13.685  22.130  0.00  0.00    +0.000 A 
ATOM      7  N   UNL     1       0.719  14.601  22.510  0.00  0.00    +0.000 NA
ATOM      8  C   UNL     1       1.817  14.770  21.747  0.00  0.00    +0.000 A 
ATOM      9  N   UNL     1       2.780  15.664  22.205  0.00  0.00    +0.000 N 
ATOM     10  C   UNL     1       1.946  14.002  20.588  0.00  0.00    +0.000 A 
ATOM     11  H   UNL     1       2.633  15.848  23.192  0.00  0.00    +0.000 HD
ATOM     12  H   UNL     1       3.730  15.429  21.949  0.00  0.00    +0.000 HD
ENDROOT
BRANCH   3  13
ATOM     13  C   UNL     1       0.907  11.054  18.811  0.00  0.00    +0.000 C 
ATOM     14  C   UNL     1       1.948  10.405  17.884  0.00  0.00    +0.000 C 
ATOM     15  C   UNL     1       1.799   8.918  18.118  0.00  0.00    +0.000 C 
ATOM     16  N   UNL     1       1.425   8.821  19.515  0.00  0.00    +0.000 N 
ATOM     17  C   UNL     1       1.623   7.776  20.392  0.00  0.00    +0.000 C 
ATOM     18  O   UNL     1       1.193   7.791  21.543  0.00  0.00    +0.000 OA
ATOM     19  C   UNL     1       0.670  10.008  19.918  0.00  0.00    +0.000 C 
BRANCH  17  20
ATOM     20  C   UNL     1       2.406   6.611  19.887  0.00  0.00    +0.000 C 
ATOM     21  C   UNL     1       1.983   5.345  20.052  0.00  0.00    +0.000 C 
BRANCH  21  22
ATOM     22  C   UNL     1       2.748   4.148  19.558  0.00  0.00    +0.000 C 
BRANCH  22  23
ATOM     23  N   UNL     1       2.122   2.869  19.920  0.00  0.00    +0.000 NA
ATOM     24  C   UNL     1       1.486   2.917  21.238  0.00  0.00    +0.000 C 
ATOM     25  C   UNL     1       1.123   2.500  18.911  0.00  0.00    +0.000 C 
ENDBRANCH  22  23
ENDBRANCH  21  22
ENDBRANCH  17  20
ENDBRANCH   3  13
BRANCH   1  27
ATOM     26  C   UNL     1       5.133  15.091  19.110  0.00  0.00    +0.000 C 
ATOM     27  C   UNL     1       4.087  14.550  19.369  0.00  0.00    +0.000 C 
BRANCH  26  32
ATOM     28  C   UNL     1       8.596  15.675  17.822  0.00  0.00    +0.000 A 
ATOM     29  C   UNL     1       8.805  16.980  18.280  0.00  0.00    +0.000 A 
ATOM     30  C   UNL     1       7.808  17.658  18.981  0.00  0.00    +0.000 A 
ATOM     31  C   UNL     1       6.595  17.033  19.242  0.00  0.00    +0.000 A 
ATOM     32  C   UNL     1       6.363  15.739  18.774  0.00  0.00    +0.000 A 
ATOM     33  C   UNL     1       7.346  15.074  18.026  0.00  0.00    +0.000 A 
BRANCH  28  37
ATOM     34  C   UNL     1      11.465  13.384  16.918  0.00  0.00    +0.000 C 
ATOM     35  C   UNL     1      10.492  14.063  17.844  0.00  0.00    +0.000 C 
ATOM     36  O   UNL     1      10.517  13.822  19.047  0.00  0.00    +0.000 OA
ATOM     37  N   UNL     1       9.617  14.922  17.192  0.00  0.00    +0.000 N 
ATOM     38  H   UNL     1       9.587  14.866  16.182  0.00  0.00    +0.000 HD
ENDBRANCH  28  37
ENDBRANCH  26  32
ENDBRANCH   1  27
TORSDOF 7
ENDMDL
MODEL 7
REMARK VINA RESULT:      -7.6      2.419      3.173
REMARK  Name = 
REMARK  10 active torsions:
REMARK  status: ('A' for Active; 'I' for Inactive)
REMARK    1  A    between atoms: C_1  and  C_2
REMARK    2  A    between atoms: N_4  and  C_5
REMARK    3  A    between atoms: C_9  and  C_10
REMARK    4  A    between atoms: C_11  and  C_12
REMARK    5  A    between atoms: N_14  and  C_15
REMARK    6  A    between atoms: C_19  and  C_21
REMARK    7  A    between atoms: C_22  and  C_23
REMARK    8  A    between atoms: C_23  and  N_24
REMARK    9  A    between atoms: N_24  and  C_25
REMARK   10  A    between atoms: N_24  and  C_26
REMARK                            x       y       z     vdW  Elec       q    Type
REMARK                         _______ _______ _______ _____ _____    ______ ____
ROOT
ATOM      1  C   UNL     1       1.102   9.778  19.297  0.00  0.00    +0.000 A 
ATOM      2  N   UNL     1       0.405  10.580  18.479  0.00  0.00    +0.000 NA
ATOM      3  N   UNL     1      -0.425  11.251  19.333  0.00  0.00    +0.000 N 
ATOM      4  C   UNL     1      -0.223  10.909  20.648  0.00  0.00    +0.000 A 
ATOM      5  N   UNL     1      -0.878  11.374  21.722  0.00  0.00    +0.000 NA
ATOM      6  C   UNL     1      -0.478  10.767  22.852  0.00  0.00    +0.000 A 
ATOM      7  N   UNL     1       0.413   9.764  22.980  0.00  0.00    +0.000 NA
ATOM      8  C   UNL     1       1.030   9.308  21.873  0.00  0.00    +0.000 A 
ATOM      9  N   UNL     1       1.885   8.220  22.022  0.00  0.00    +0.000 N 
ATOM     10  C   UNL     1       0.733   9.911  20.649  0.00  0.00    +0.000 A 
ATOM     11  H   UNL     1       1.696   7.758  22.906  0.00  0.00    +0.000 HD
ATOM     12  H   UNL     1       1.931   7.607  21.218  0.00  0.00    +0.000 HD
ENDROOT
BRANCH   3  13
ATOM     13  C   UNL     1      -1.591  11.919  18.780  0.00  0.00    +0.000 C 
ATOM     14  C   UNL     1      -2.722  10.900  18.562  0.00  0.00    +0.000 C 
ATOM     15  C   UNL     1      -3.997  11.698  18.722  0.00  0.00    +0.000 C 
ATOM     16  N   UNL     1      -3.657  12.702  19.712  0.00  0.00    +0.000 N 
ATOM     17  C   UNL     1      -4.488  13.366  20.589  0.00  0.00    +0.000 C 
ATOM     18  O   UNL     1      -4.084  14.253  21.336  0.00  0.00    +0.000 OA
ATOM     19  C   UNL     1      -2.236  13.038  19.621  0.00  0.00    +0.000 C 
BRANCH  17  20
ATOM     20  C   UNL     1      -5.921  12.950  20.606  0.00  0.00    +0.000 C 
ATOM     21  C   UNL     1      -6.287  11.669  20.785  0.00  0.00    +0.000 C 
BRANCH  21  22
ATOM     22  C   UNL     1      -7.721  11.215  20.804  0.00  0.00    +0.000 C 
BRANCH  22  23
ATOM     23  N   UNL     1      -7.916   9.882  20.217  0.00  0.00    +0.000 NA
ATOM     24  C   UNL     1      -6.883   9.554  19.231  0.00  0.00    +0.000 C 
ATOM     25  C   UNL     1      -7.917   8.867  21.276  0.00  0.00    +0.000 C 
ENDBRANCH  22  23
ENDBRANCH  21  22
ENDBRANCH  17  20
ENDBRANCH   3  13
BRANCH   1  27
ATOM     26  C   UNL     1       2.748   8.005  18.279  0.00  0.00    +0.000 C 
ATOM     27  C   UNL     1       2.049   8.855  18.772  0.00  0.00    +0.000 C 
BRANCH  26  32
ATOM     28  C   UNL     1       4.291   4.691  17.483  0.00  0.00    +0.000 A 
ATOM     29  C   UNL     1       5.271   5.097  16.571  0.00  0.00    +0.000 A 
ATOM     30  C   UNL     1       5.401   6.438  16.212  0.00  0.00    +0.000 A 
ATOM     31  C   UNL     1       4.557   7.391  16.771  0.00  0.00    +0.000 A 
ATOM     32  C   UNL     1       3.561   7.001  17.665  0.00  0.00    +0.000 A 
ATOM     33  C   UNL     1       3.398   5.645  17.990  0.00  0.00    +0.000 A 
BRANCH  28  37
ATOM     34  C   UNL     1       3.223   1.206  18.488  0.00  0.00    +0.000 C 
ATOM     35  C   UNL     1       3.027   2.600  17.955  0.00  0.00    +0.000 C 
ATOM     36  O   UNL     1       1.919   2.961  17.570  0.00  0.00    +0.000 OA
ATOM     37  N   UNL     1       4.192   3.356  17.944  0.00  0.00    +0.000 N 
ATOM     38  H   UNL     1       5.060   2.861  18.104  0.00  0.00    +0.000 HD
ENDBRANCH  28  37
ENDBRANCH  26  32
ENDBRANCH   1  27
TORSDOF 7
ENDMDL
MODEL 8
REMARK VINA RESULT:      -7.5      3.427      5.031
REMARK  Name = 
REMARK  10 active torsions:
REMARK  status: ('A' for Active; 'I' for Inactive)
REMARK    1  A    between atoms: C_1  and  C_2
REMARK    2  A    between atoms: N_4  and  C_5
REMARK    3  A    between atoms: C_9  and  C_10
REMARK    4  A    between atoms: C_11  and  C_12
REMARK    5  A    between atoms: N_14  and  C_15
REMARK    6  A    between atoms: C_19  and  C_21
REMARK    7  A    between atoms: C_22  and  C_23
REMARK    8  A    between atoms: C_23  and  N_24
REMARK    9  A    between atoms: N_24  and  C_25
REMARK   10  A    between atoms: N_24  and  C_26
REMARK                            x       y       z     vdW  Elec       q    Type
REMARK                         _______ _______ _______ _____ _____    ______ ____
ROOT
ATOM      1  C   UNL     1       0.446   9.782  20.798  0.00  0.00    +0.000 A 
ATOM      2  N   UNL     1      -0.250   9.940  21.932  0.00  0.00    +0.000 NA
ATOM      3  N   UNL     1      -0.750  11.207  21.818  0.00  0.00    +0.000 N 
ATOM      4  C   UNL     1      -0.411  11.805  20.629  0.00  0.00    +0.000 A 
ATOM      5  N   UNL     1      -0.732  13.041  20.216  0.00  0.00    +0.000 NA
ATOM      6  C   UNL     1      -0.170  13.333  19.032  0.00  0.00    +0.000 A 
ATOM      7  N   UNL     1       0.673  12.571  18.306  0.00  0.00    +0.000 NA
ATOM      8  C   UNL     1       0.990  11.346  18.769  0.00  0.00    +0.000 A 
ATOM      9  N   UNL     1       1.924  10.613  18.042  0.00  0.00    +0.000 N 
ATOM     10  C   UNL     1       0.413  10.916  19.965  0.00  0.00    +0.000 A 
ATOM     11  H   UNL     1       2.434  11.232  17.422  0.00  0.00    +0.000 HD
ATOM     12  H   UNL     1       2.499   9.994  18.599  0.00  0.00    +0.000 HD
ENDROOT
BRANCH   3  13
ATOM     13  C   UNL     1      -1.228  11.872  23.018  0.00  0.00    +0.000 C 
ATOM     14  C   UNL     1      -0.926  13.377  22.937  0.00  0.00    +0.000 C 
ATOM     15  C   UNL     1      -2.022  14.036  23.743  0.00  0.00    +0.000 C 
ATOM     16  N   UNL     1      -3.172  13.179  23.533  0.00  0.00    +0.000 N 
ATOM     17  C   UNL     1      -4.512  13.499  23.593  0.00  0.00    +0.000 C 
ATOM     18  O   UNL     1      -5.397  12.658  23.463  0.00  0.00    +0.000 OA
ATOM     19  C   UNL     1      -2.738  11.798  23.319  0.00  0.00    +0.000 C 
BRANCH  17  20
ATOM     20  C   UNL     1      -4.852  14.935  23.815  0.00  0.00    +0.000 C 
ATOM     21  C   UNL     1      -4.938  15.810  22.797  0.00  0.00    +0.000 C 
BRANCH  21  22
ATOM     22  C   UNL     1      -5.274  17.264  22.986  0.00  0.00    +0.000 C 
BRANCH  22  23
ATOM     23  N   UNL     1      -5.276  18.027  21.730  0.00  0.00    +0.000 NA
ATOM     24  C   UNL     1      -4.746  17.249  20.608  0.00  0.00    +0.000 C 
ATOM     25  C   UNL     1      -6.641  18.465  21.415  0.00  0.00    +0.000 C 
ENDBRANCH  22  23
ENDBRANCH  21  22
ENDBRANCH  17  20
ENDBRANCH   3  13
BRANCH   1  27
ATOM     26  C   UNL     1       1.699   7.510  20.396  0.00  0.00    +0.000 C 
ATOM     27  C   UNL     1       1.184   8.588  20.561  0.00  0.00    +0.000 C 
BRANCH  26  32
ATOM     28  C   UNL     1       3.967   4.811  19.145  0.00  0.00    +0.000 A 
ATOM     29  C   UNL     1       3.303   3.688  19.650  0.00  0.00    +0.000 A 
ATOM     30  C   UNL     1       2.141   3.826  20.409  0.00  0.00    +0.000 A 
ATOM     31  C   UNL     1       1.623   5.092  20.661  0.00  0.00    +0.000 A 
ATOM     32  C   UNL     1       2.284   6.223  20.182  0.00  0.00    +0.000 A 
ATOM     33  C   UNL     1       3.480   6.087  19.460  0.00  0.00    +0.000 A 
BRANCH  28  37
ATOM     34  C   UNL     1       7.398   4.739  17.559  0.00  0.00    +0.000 C 
ATOM     35  C   UNL     1       6.406   4.943  18.673  0.00  0.00    +0.000 C 
ATOM     36  O   UNL     1       6.795   5.273  19.789  0.00  0.00    +0.000 OA
ATOM     37  N   UNL     1       5.092   4.705  18.293  0.00  0.00    +0.000 N 
ATOM     38  H   UNL     1       4.949   4.251  17.399  0.00  0.00    +0.000 HD
ENDBRANCH  28  37
ENDBRANCH  26  32
ENDBRANCH   1  27
TORSDOF 7
ENDMDL
MODEL 9
REMARK VINA RESULT:      -7.5      5.951      9.154
REMARK  Name = 
REMARK  10 active torsions:
REMARK  status: ('A' for Active; 'I' for Inactive)
REMARK    1  A    between atoms: C_1  and  C_2
REMARK    2  A    between atoms: N_4  and  C_5
REMARK    3  A    between atoms: C_9  and  C_10
REMARK    4  A    between atoms: C_11  and  C_12
REMARK    5  A    between atoms: N_14  and  C_15
REMARK    6  A    between atoms: C_19  and  C_21
REMARK    7  A    between atoms: C_22  and  C_23
REMARK    8  A    between atoms: C_23  and  N_24
REMARK    9  A    between atoms: N_24  and  C_25
REMARK   10  A    between atoms: N_24  and  C_26
REMARK                            x       y       z     vdW  Elec       q    Type
REMARK                         _______ _______ _______ _____ _____    ______ ____
ROOT
ATOM      1  C   UNL     1       2.747  13.708  19.462  0.00  0.00    +0.000 A 
ATOM      2  N   UNL     1       2.458  12.716  18.608  0.00  0.00    +0.000 NA
ATOM      3  N   UNL     1       1.310  12.183  19.125  0.00  0.00    +0.000 N 
ATOM      4  C   UNL     1       0.872  12.851  20.243  0.00  0.00    +0.000 A 
ATOM      5  N   UNL     1      -0.209  12.574  20.988  0.00  0.00    +0.000 NA
ATOM      6  C   UNL     1      -0.297  13.382  22.057  0.00  0.00    +0.000 A 
ATOM      7  N   UNL     1       0.573  14.334  22.449  0.00  0.00    +0.000 NA
ATOM      8  C   UNL     1       1.660  14.563  21.686  0.00  0.00    +0.000 A 
ATOM      9  N   UNL     1       2.582  15.494  22.155  0.00  0.00    +0.000 N 
ATOM     10  C   UNL     1       1.820  13.819  20.516  0.00  0.00    +0.000 A 
ATOM     11  H   UNL     1       2.429  15.656  23.144  0.00  0.00    +0.000 HD
ATOM     12  H   UNL     1       3.541  15.305  21.893  0.00  0.00    +0.000 HD
ENDROOT
BRANCH   3  13
ATOM     13  C   UNL     1       0.912  10.853  18.698  0.00  0.00    +0.000 C 
ATOM     14  C   UNL     1       1.960  10.280  17.729  0.00  0.00    +0.000 C 
ATOM     15  C   UNL     1       1.896   8.783  17.932  0.00  0.00    +0.000 C 
ATOM     16  N   UNL     1       1.566   8.636  19.336  0.00  0.00    +0.000 N 
ATOM     17  C   UNL     1       1.844   7.584  20.184  0.00  0.00    +0.000 C 
ATOM     18  O   UNL     1       1.444   7.551  21.345  0.00  0.00    +0.000 OA
ATOM     19  C   UNL     1       0.761   9.772  19.786  0.00  0.00    +0.000 C 
BRANCH  17  20
ATOM     20  C   UNL     1       2.673   6.473  19.631  0.00  0.00    +0.000 C 
ATOM     21  C   UNL     1       2.457   5.190  19.968  0.00  0.00    +0.000 C 
BRANCH  21  22
ATOM     22  C   UNL     1       3.276   4.047  19.433  0.00  0.00    +0.000 C 
BRANCH  22  23
ATOM     23  N   UNL     1       3.102   3.835  17.989  0.00  0.00    +0.000 NA
ATOM     24  C   UNL     1       4.359   3.990  17.252  0.00  0.00    +0.000 C 
ATOM     25  C   UNL     1       2.558   2.495  17.745  0.00  0.00    +0.000 C 
ENDBRANCH  22  23
ENDBRANCH  21  22
ENDBRANCH  17  20
ENDBRANCH   3  13
BRANCH   1  27
ATOM     26  C   UNL     1       4.976  15.041  19.080  0.00  0.00    +0.000 C 
ATOM     27  C   UNL     1       3.931  14.481  19.300  0.00  0.00    +0.000 C 
BRANCH  26  32
ATOM     28  C   UNL     1       8.460  15.672  17.872  0.00  0.00    +0.000 A 
ATOM     29  C   UNL     1       8.658  16.961  18.376  0.00  0.00    +0.000 A 
ATOM     30  C   UNL     1       7.648  17.615  19.082  0.00  0.00    +0.000 A 
ATOM     31  C   UNL     1       6.432  16.979  19.301  0.00  0.00    +0.000 A 
ATOM     32  C   UNL     1       6.210  15.702  18.786  0.00  0.00    +0.000 A 
ATOM     33  C   UNL     1       7.208  15.063  18.034  0.00  0.00    +0.000 A 
BRANCH  28  37
ATOM     34  C   UNL     1      11.245  13.306  16.901  0.00  0.00    +0.000 C 
ATOM     35  C   UNL     1      10.218  13.911  17.820  0.00  0.00    +0.000 C 
ATOM     36  O   UNL     1      10.079  13.476  18.959  0.00  0.00    +0.000 OA
ATOM     37  N   UNL     1       9.492  14.941  17.235  0.00  0.00    +0.000 N 
ATOM     38  H   UNL     1       9.582  15.053  16.233  0.00  0.00    +0.000 HD
ENDBRANCH  28  37
ENDBRANCH  26  32
ENDBRANCH   1  27
TORSDOF 7
ENDMDL
