MODEL 1
REMARK VINA RESULT:      -7.3      0.000      0.000
REMARK  Name = 
REMARK  8 active torsions:
REMARK  status: ('A' for Active; 'I' for Inactive)
REMARK    1  A    between atoms: C_1  and  C_2
REMARK    2  A    between atoms: C_6  and  C_7
REMARK    3  A    between atoms: C_8  and  C_9
REMARK    4  A    between atoms: C_9  and  C_10
REMARK    5  A    between atoms: C_10  and  O_12
REMARK    6  A    between atoms: C_15  and  C_16
REMARK    7  A    between atoms: C_15  and  C_17
REMARK    8  A    between atoms: C_17  and  O_18
REMARK                            x       y       z     vdW  Elec       q    Type
REMARK                         _______ _______ _______ _____ _____    ______ ____
ROOT
ATOM      1  C   UNL     1       5.802   3.595  15.483  0.00  0.00    +0.000 C 
ATOM      2  C   UNL     1       4.840   3.979  16.580  0.00  0.00    +0.000 A 
ATOM      3  C   UNL     1       4.282   2.935  17.329  0.00  0.00    +0.000 A 
ATOM      4  C   UNL     1       3.392   3.226  18.343  0.00  0.00    +0.000 A 
ATOM      5  C   UNL     1       3.059   4.545  18.646  0.00  0.00    +0.000 A 
ATOM      6  C   UNL     1       3.586   5.628  17.931  0.00  0.00    +0.000 A 
ATOM      7  C   UNL     1       3.201   7.047  18.252  0.00  0.00    +0.000 C 
ATOM      8  C   UNL     1       4.510   5.338  16.879  0.00  0.00    +0.000 A 
ATOM      9  C   UNL     1       2.101   4.476  19.766  0.00  0.00    +0.000 C 
ATOM     10  O   UNL     1       1.730   5.421  20.437  0.00  0.00    +0.000 OA
ATOM     11  C   UNL     1       1.627   3.036  19.934  0.00  0.00    +0.000 C 
ATOM     12  C   UNL     1       0.302   2.895  19.168  0.00  0.00    +0.000 C 
ATOM     13  C   UNL     1       2.749   2.226  19.254  0.00  0.00    +0.000 C 
ENDROOT
BRANCH   8  14
ATOM     14  C   UNL     1       5.170   6.471  16.092  0.00  0.00    +0.000 C 
BRANCH  14  15
ATOM     15  C   UNL     1       6.562   6.914  16.511  0.00  0.00    +0.000 C 
ATOM     16  O   UNL     1       6.734   7.841  17.291  0.00  0.00    +0.000 OA
BRANCH  15  17
ATOM     17  O   UNL     1       7.603   6.227  16.002  0.00  0.00    +0.000 OA
ATOM     18  H   UNL     1       8.094   5.684  16.644  0.00  0.00    +0.000 HD
ENDBRANCH  15  17
ENDBRANCH  14  15
ENDBRANCH   8  14
BRANCH  11  19
ATOM     19  C   UNL     1       1.423   2.652  21.401  0.00  0.00    +0.000 C 
BRANCH  19  20
ATOM     20  O   UNL     1       2.466   3.146  22.235  0.00  0.00    +0.000 OA
ATOM     21  H   UNL     1       2.660   2.459  22.900  0.00  0.00    +0.000 HD
ENDBRANCH  19  20
ENDBRANCH  11  19
TORSDOF 5
ENDMDL
MODEL 2
REMARK VINA RESULT:      -7.0      1.315      5.710
REMARK  Name = 
REMARK  8 active torsions:
REMARK  status: ('A' for Active; 'I' for Inactive)
REMARK    1  A    between atoms: C_1  and  C_2
REMARK    2  A    between atoms: C_6  and  C_7
REMARK    3  A    between atoms: C_8  and  C_9
REMARK    4  A    between atoms: C_9  and  C_10
REMARK    5  A    between atoms: C_10  and  O_12
REMARK    6  A    between atoms: C_15  and  C_16
REMARK    7  A    between atoms: C_15  and  C_17
REMARK    8  A    between atoms: C_17  and  O_18
REMARK                            x       y       z     vdW  Elec       q    Type
REMARK                         _______ _______ _______ _____ _____    ______ ____
ROOT
ATOM      1  C   UNL     1       1.915   2.212  19.006  0.00  0.00    +0.000 C 
ATOM      2  C   UNL     1       2.755   3.235  18.284  0.00  0.00    +0.000 A 
ATOM      3  C   UNL     1       3.733   2.749  17.406  0.00  0.00    +0.000 A 
ATOM      4  C   UNL     1       4.535   3.639  16.721  0.00  0.00    +0.000 A 
ATOM      5  C   UNL     1       4.369   5.014  16.873  0.00  0.00    +0.000 A 
ATOM      6  C   UNL     1       3.409   5.557  17.736  0.00  0.00    +0.000 A 
ATOM      7  C   UNL     1       3.255   7.044  17.911  0.00  0.00    +0.000 C 
ATOM      8  C   UNL     1       2.572   4.644  18.450  0.00  0.00    +0.000 A 
ATOM      9  C   UNL     1       5.380   5.645  16.002  0.00  0.00    +0.000 C 
ATOM     10  O   UNL     1       5.425   6.826  15.714  0.00  0.00    +0.000 OA
ATOM     11  C   UNL     1       6.377   4.587  15.541  0.00  0.00    +0.000 C 
ATOM     12  C   UNL     1       7.582   4.642  16.495  0.00  0.00    +0.000 C 
ATOM     13  C   UNL     1       5.588   3.274  15.721  0.00  0.00    +0.000 C 
ENDROOT
BRANCH   8  14
ATOM     14  C   UNL     1       1.463   5.163  19.368  0.00  0.00    +0.000 C 
BRANCH  14  15
ATOM     15  C   UNL     1       1.816   5.455  20.816  0.00  0.00    +0.000 C 
ATOM     16  O   UNL     1       2.148   4.566  21.589  0.00  0.00    +0.000 OA
BRANCH  15  17
ATOM     17  O   UNL     1       1.767   6.742  21.211  0.00  0.00    +0.000 OA
ATOM     18  H   UNL     1       1.283   7.341  20.613  0.00  0.00    +0.000 HD
ENDBRANCH  15  17
ENDBRANCH  14  15
ENDBRANCH   8  14
BRANCH  11  19
ATOM     19  C   UNL     1       6.843   4.806  14.101  0.00  0.00    +0.000 C 
BRANCH  19  20
ATOM     20  O   UNL     1       8.000   5.634  14.031  0.00  0.00    +0.000 OA
ATOM     21  H   UNL     1       8.279   5.826  14.945  0.00  0.00    +0.000 HD
ENDBRANCH  19  20
ENDBRANCH  11  19
TORSDOF 5
ENDMDL
MODEL 3
REMARK VINA RESULT:      -6.8      1.585      6.091
REMARK  Name = 
REMARK  8 active torsions:
REMARK  status: ('A' for Active; 'I' for Inactive)
REMARK    1  A    between atoms: C_1  and  C_2
REMARK    2  A    between atoms: C_6  and  C_7
REMARK    3  A    between atoms: C_8  and  C_9
REMARK    4  A    between atoms: C_9  and  C_10
REMARK    5  A    between atoms: C_10  and  O_12
REMARK    6  A    between atoms: C_15  and  C_16
REMARK    7  A    between atoms: C_15  and  C_17
REMARK    8  A    between atoms: C_17  and  O_18
REMARK                            x       y       z     vdW  Elec       q    Type
REMARK                         _______ _______ _______ _____ _____    ______ ____
ROOT
ATOM      1  C   UNL     1       1.687   6.351  20.752  0.00  0.00    +0.000 C 
ATOM      2  C   UNL     1       2.544   5.626  19.746  0.00  0.00    +0.000 A 
ATOM      3  C   UNL     1       3.536   6.375  19.098  0.00  0.00    +0.000 A 
ATOM      4  C   UNL     1       4.348   5.764  18.165  0.00  0.00    +0.000 A 
ATOM      5  C   UNL     1       4.210   4.408  17.875  0.00  0.00    +0.000 A 
ATOM      6  C   UNL     1       3.237   3.611  18.491  0.00  0.00    +0.000 A 
ATOM      7  C   UNL     1       3.082   2.153  18.151  0.00  0.00    +0.000 C 
ATOM      8  C   UNL     1       2.391   4.233  19.460  0.00  0.00    +0.000 A 
ATOM      9  C   UNL     1       5.228   4.105  16.850  0.00  0.00    +0.000 C 
ATOM     10  O   UNL     1       5.551   2.991  16.483  0.00  0.00    +0.000 OA
ATOM     11  C   UNL     1       5.795   5.412  16.303  0.00  0.00    +0.000 C 
ATOM     12  C   UNL     1       5.018   5.749  15.020  0.00  0.00    +0.000 C 
ATOM     13  C   UNL     1       5.474   6.419  17.426  0.00  0.00    +0.000 C 
ENDROOT
BRANCH   8  14
ATOM     14  C   UNL     1       1.343   3.413  20.215  0.00  0.00    +0.000 C 
BRANCH  14  15
ATOM     15  C   UNL     1       1.752   2.773  21.531  0.00  0.00    +0.000 C 
ATOM     16  O   UNL     1       2.927   2.583  21.816  0.00  0.00    +0.000 OA
BRANCH  15  17
ATOM     17  O   UNL     1       0.764   2.439  22.384  0.00  0.00    +0.000 OA
ATOM     18  H   UNL     1       0.035   1.925  21.992  0.00  0.00    +0.000 HD
ENDBRANCH  15  17
ENDBRANCH  14  15
ENDBRANCH   8  14
BRANCH  11  19
ATOM     19  C   UNL     1       7.291   5.321  15.997  0.00  0.00    +0.000 C 
BRANCH  19  20
ATOM     20  O   UNL     1       7.972   4.453  16.897  0.00  0.00    +0.000 OA
ATOM     21  H   UNL     1       8.481   3.817  16.362  0.00  0.00    +0.000 HD
ENDBRANCH  19  20
ENDBRANCH  11  19
TORSDOF 5
ENDMDL
MODEL 4
REMARK VINA RESULT:      -6.6      2.458      5.579
REMARK  Name = 
REMARK  8 active torsions:
REMARK  status: ('A' for Active; 'I' for Inactive)
REMARK    1  A    between atoms: C_1  and  C_2
REMARK    2  A    between atoms: C_6  and  C_7
REMARK    3  A    between atoms: C_8  and  C_9
REMARK    4  A    between atoms: C_9  and  C_10
REMARK    5  A    between atoms: C_10  and  O_12
REMARK    6  A    between atoms: C_15  and  C_16
REMARK    7  A    between atoms: C_15  and  C_17
REMARK    8  A    between atoms: C_17  and  O_18
REMARK                            x       y       z     vdW  Elec       q    Type
REMARK                         _______ _______ _______ _____ _____    ______ ____
ROOT
ATOM      1  C   UNL     1       1.543   9.164  18.083  0.00  0.00    +0.000 C 
ATOM      2  C   UNL     1       2.390   7.942  18.338  0.00  0.00    +0.000 A 
ATOM      3  C   UNL     1       3.480   7.736  17.481  0.00  0.00    +0.000 A 
ATOM      4  C   UNL     1       4.288   6.632  17.664  0.00  0.00    +0.000 A 
ATOM      5  C   UNL     1       4.047   5.734  18.702  0.00  0.00    +0.000 A 
ATOM      6  C   UNL     1       2.973   5.890  19.587  0.00  0.00    +0.000 A 
ATOM      7  C   UNL     1       2.709   4.900  20.690  0.00  0.00    +0.000 C 
ATOM      8  C   UNL     1       2.131   7.031  19.408  0.00  0.00    +0.000 A 
ATOM      9  C   UNL     1       5.093   4.697  18.594  0.00  0.00    +0.000 C 
ATOM     10  O   UNL     1       5.336   3.850  19.433  0.00  0.00    +0.000 OA
ATOM     11  C   UNL     1       5.804   4.838  17.252  0.00  0.00    +0.000 C 
ATOM     12  C   UNL     1       5.135   3.861  16.271  0.00  0.00    +0.000 C 
ATOM     13  C   UNL     1       5.508   6.301  16.862  0.00  0.00    +0.000 C 
ENDROOT
BRANCH   8  14
ATOM     14  C   UNL     1       0.972   7.298  20.371  0.00  0.00    +0.000 C 
BRANCH  14  15
ATOM     15  C   UNL     1       1.041   8.542  21.240  0.00  0.00    +0.000 C 
ATOM     16  O   UNL     1       0.209   9.435  21.152  0.00  0.00    +0.000 OA
BRANCH  15  17
ATOM     17  O   UNL     1       2.049   8.612  22.131  0.00  0.00    +0.000 OA
ATOM     18  H   UNL     1       2.741   9.265  21.922  0.00  0.00    +0.000 HD
ENDBRANCH  15  17
ENDBRANCH  14  15
ENDBRANCH   8  14
BRANCH  11  19
ATOM     19  C   UNL     1       7.300   4.540  17.346  0.00  0.00    +0.000 C 
BRANCH  19  20
ATOM     20  O   UNL     1       7.831   4.850  18.630  0.00  0.00    +0.000 OA
ATOM     21  H   UNL     1       8.648   5.364  18.494  0.00  0.00    +0.000 HD
ENDBRANCH  19  20
ENDBRANCH  11  19
TORSDOF 5
ENDMDL
MODEL 5
REMARK VINA RESULT:      -6.5      3.468      5.797
REMARK  Name = 
REMARK  8 active torsions:
REMARK  status: ('A' for Active; 'I' for Inactive)
REMARK    1  A    between atoms: C_1  and  C_2
REMARK    2  A    between atoms: C_6  and  C_7
REMARK    3  A    between atoms: C_8  and  C_9
REMARK    4  A    between atoms: C_9  and  C_10
REMARK    5  A    between atoms: C_10  and  O_12
REMARK    6  A    between atoms: C_15  and  C_16
REMARK    7  A    between atoms: C_15  and  C_17
REMARK    8  A    between atoms: C_17  and  O_18
REMARK                            x       y       z     vdW  Elec       q    Type
REMARK                         _______ _______ _______ _____ _____    ______ ____
ROOT
ATOM      1  C   UNL     1       2.089   4.564  21.143  0.00  0.00    +0.000 C 
ATOM      2  C   UNL     1       2.129   5.813  20.299  0.00  0.00    +0.000 A 
ATOM      3  C   UNL     1       1.426   6.927  20.780  0.00  0.00    +0.000 A 
ATOM      4  C   UNL     1       1.424   8.097  20.047  0.00  0.00    +0.000 A 
ATOM      5  C   UNL     1       2.130   8.192  18.850  0.00  0.00    +0.000 A 
ATOM      6  C   UNL     1       2.849   7.113  18.322  0.00  0.00    +0.000 A 
ATOM      7  C   UNL     1       3.588   7.220  17.015  0.00  0.00    +0.000 C 
ATOM      8  C   UNL     1       2.859   5.896  19.073  0.00  0.00    +0.000 A 
ATOM      9  C   UNL     1       1.906   9.564  18.353  0.00  0.00    +0.000 C 
ATOM     10  O   UNL     1       2.511  10.091  17.438  0.00  0.00    +0.000 OA
ATOM     11  C   UNL     1       0.778  10.210  19.152  0.00  0.00    +0.000 C 
ATOM     12  C   UNL     1      -0.521  10.015  18.353  0.00  0.00    +0.000 C 
ATOM     13  C   UNL     1       0.759   9.377  20.450  0.00  0.00    +0.000 C 
ENDROOT
BRANCH   8  14
ATOM     14  C   UNL     1       3.669   4.692  18.588  0.00  0.00    +0.000 C 
BRANCH  14  15
ATOM     15  C   UNL     1       5.056   4.484  19.173  0.00  0.00    +0.000 C 
ATOM     16  O   UNL     1       5.720   5.419  19.599  0.00  0.00    +0.000 OA
BRANCH  15  17
ATOM     17  O   UNL     1       5.517   3.219  19.223  0.00  0.00    +0.000 OA
ATOM     18  H   UNL     1       5.406   2.706  18.401  0.00  0.00    +0.000 HD
ENDBRANCH  15  17
ENDBRANCH  14  15
ENDBRANCH   8  14
BRANCH  11  19
ATOM     19  C   UNL     1       1.015  11.699  19.406  0.00  0.00    +0.000 C 
BRANCH  19  20
ATOM     20  O   UNL     1       1.123  12.440  18.195  0.00  0.00    +0.000 OA
ATOM     21  H   UNL     1       0.609  11.966  17.515  0.00  0.00    +0.000 HD
ENDBRANCH  19  20
ENDBRANCH  11  19
TORSDOF 5
ENDMDL
MODEL 6
REMARK VINA RESULT:      -6.4      1.689      2.976
REMARK  Name = 
REMARK  8 active torsions:
REMARK  status: ('A' for Active; 'I' for Inactive)
REMARK    1  A    between atoms: C_1  and  C_2
REMARK    2  A    between atoms: C_6  and  C_7
REMARK    3  A    between atoms: C_8  and  C_9
REMARK    4  A    between atoms: C_9  and  C_10
REMARK    5  A    between atoms: C_10  and  O_12
REMARK    6  A    between atoms: C_15  and  C_16
REMARK    7  A    between atoms: C_15  and  C_17
REMARK    8  A    between atoms: C_17  and  O_18
REMARK                            x       y       z     vdW  Elec       q    Type
REMARK                         _______ _______ _______ _____ _____    ______ ____
ROOT
ATOM      1  C   UNL     1       3.349   8.476  17.648  0.00  0.00    +0.000 C 
ATOM      2  C   UNL     1       3.340   6.973  17.777  0.00  0.00    +0.000 A 
ATOM      3  C   UNL     1       2.363   6.412  18.610  0.00  0.00    +0.000 A 
ATOM      4  C   UNL     1       2.310   5.042  18.769  0.00  0.00    +0.000 A 
ATOM      5  C   UNL     1       3.201   4.209  18.095  0.00  0.00    +0.000 A 
ATOM      6  C   UNL     1       4.197   4.714  17.250  0.00  0.00    +0.000 A 
ATOM      7  C   UNL     1       5.169   3.806  16.546  0.00  0.00    +0.000 C 
ATOM      8  C   UNL     1       4.260   6.132  17.077  0.00  0.00    +0.000 A 
ATOM      9  C   UNL     1       2.854   2.832  18.497  0.00  0.00    +0.000 C 
ATOM     10  O   UNL     1       3.275   1.817  17.975  0.00  0.00    +0.000 OA
ATOM     11  C   UNL     1       1.903   2.881  19.689  0.00  0.00    +0.000 C 
ATOM     12  C   UNL     1       2.753   2.733  20.962  0.00  0.00    +0.000 C 
ATOM     13  C   UNL     1       1.301   4.297  19.587  0.00  0.00    +0.000 C 
ENDROOT
BRANCH   8  14
ATOM     14  C   UNL     1       5.286   6.752  16.126  0.00  0.00    +0.000 C 
BRANCH  14  15
ATOM     15  C   UNL     1       6.713   6.908  16.621  0.00  0.00    +0.000 C 
ATOM     16  O   UNL     1       7.617   6.193  16.211  0.00  0.00    +0.000 OA
BRANCH  15  17
ATOM     17  O   UNL     1       6.948   7.885  17.519  0.00  0.00    +0.000 OA
ATOM     18  H   UNL     1       7.767   7.781  18.038  0.00  0.00    +0.000 HD
ENDBRANCH  15  17
ENDBRANCH  14  15
ENDBRANCH   8  14
BRANCH  11  19
ATOM     19  C   UNL     1       0.843   1.780  19.640  0.00  0.00    +0.000 C 
BRANCH  19  20
ATOM     20  O   UNL     1       0.256   1.657  18.349  0.00  0.00    +0.000 OA
ATOM     21  H   UNL     1      -0.587   1.177  18.455  0.00  0.00    +0.000 HD
ENDBRANCH  19  20
ENDBRANCH  11  19
TORSDOF 5
ENDMDL
MODEL 7
REMARK VINA RESULT:      -6.3      1.291      5.820
REMARK  Name = 
REMARK  8 active torsions:
REMARK  status: ('A' for Active; 'I' for Inactive)
REMARK    1  A    between atoms: C_1  and  C_2
REMARK    2  A    between atoms: C_6  and  C_7
REMARK    3  A    between atoms: C_8  and  C_9
REMARK    4  A    between atoms: C_9  and  C_10
REMARK    5  A    between atoms: C_10  and  O_12
REMARK    6  A    between atoms: C_15  and  C_16
REMARK    7  A    between atoms: C_15  and  C_17
REMARK    8  A    between atoms: C_17  and  O_18
REMARK                            x       y       z     vdW  Elec       q    Type
REMARK                         _______ _______ _______ _____ _____    ______ ____
ROOT
ATOM      1  C   UNL     1       1.745   1.527  18.775  0.00  0.00    +0.000 C 
ATOM      2  C   UNL     1       2.579   2.729  18.410  0.00  0.00    +0.000 A 
ATOM      3  C   UNL     1       3.498   2.570  17.363  0.00  0.00    +0.000 A 
ATOM      4  C   UNL     1       4.292   3.636  16.989  0.00  0.00    +0.000 A 
ATOM      5  C   UNL     1       4.175   4.872  17.621  0.00  0.00    +0.000 A 
ATOM      6  C   UNL     1       3.275   5.088  18.672  0.00  0.00    +0.000 A 
ATOM      7  C   UNL     1       3.175   6.421  19.363  0.00  0.00    +0.000 C 
ATOM      8  C   UNL     1       2.447   3.992  19.068  0.00  0.00    +0.000 A 
ATOM      9  C   UNL     1       5.161   5.757  16.970  0.00  0.00    +0.000 C 
ATOM     10  O   UNL     1       5.227   6.963  17.110  0.00  0.00    +0.000 OA
ATOM     11  C   UNL     1       6.102   4.916  16.113  0.00  0.00    +0.000 C 
ATOM     12  C   UNL     1       7.353   4.620  16.957  0.00  0.00    +0.000 C 
ATOM     13  C   UNL     1       5.284   3.632  15.867  0.00  0.00    +0.000 C 
ENDROOT
BRANCH   8  14
ATOM     14  C   UNL     1       1.400   4.169  20.169  0.00  0.00    +0.000 C 
BRANCH  14  15
ATOM     15  C   UNL     1       1.638   3.470  21.497  0.00  0.00    +0.000 C 
ATOM     16  O   UNL     1       2.600   3.741  22.203  0.00  0.00    +0.000 OA
BRANCH  15  17
ATOM     17  O   UNL     1       0.731   2.549  21.876  0.00  0.00    +0.000 OA
ATOM     18  H   UNL     1       0.630   2.441  22.840  0.00  0.00    +0.000 HD
ENDBRANCH  15  17
ENDBRANCH  14  15
ENDBRANCH   8  14
BRANCH  11  19
ATOM     19  C   UNL     1       6.504   5.621  14.817  0.00  0.00    +0.000 C 
BRANCH  19  20
ATOM     20  O   UNL     1       7.905   5.544  14.574  0.00  0.00    +0.000 OA
ATOM     21  H   UNL     1       8.147   6.303  14.012  0.00  0.00    +0.000 HD
ENDBRANCH  19  20
ENDBRANCH  11  19
TORSDOF 5
ENDMDL
MODEL 8
REMARK VINA RESULT:      -6.3      2.164      5.696
REMARK  Name = 
REMARK  8 active torsions:
REMARK  status: ('A' for Active; 'I' for Inactive)
REMARK    1  A    between atoms: C_1  and  C_2
REMARK    2  A    between atoms: C_6  and  C_7
REMARK    3  A    between atoms: C_8  and  C_9
REMARK    4  A    between atoms: C_9  and  C_10
REMARK    5  A    between atoms: C_10  and  O_12
REMARK    6  A    between atoms: C_15  and  C_16
REMARK    7  A    between atoms: C_15  and  C_17
REMARK    8  A    between atoms: C_17  and  O_18
REMARK                            x       y       z     vdW  Elec       q    Type
REMARK                         _______ _______ _______ _____ _____    ______ ____
ROOT
ATOM      1  C   UNL     1       2.006   4.708  21.239  0.00  0.00    +0.000 C 
ATOM      2  C   UNL     1       2.762   5.228  20.042  0.00  0.00    +0.000 A 
ATOM      3  C   UNL     1       3.857   4.471  19.604  0.00  0.00    +0.000 A 
ATOM      4  C   UNL     1       4.588   4.901  18.515  0.00  0.00    +0.000 A 
ATOM      5  C   UNL     1       4.239   6.065  17.833  0.00  0.00    +0.000 A 
ATOM      6  C   UNL     1       3.155   6.860  18.226  0.00  0.00    +0.000 A 
ATOM      7  C   UNL     1       2.801   8.128  17.496  0.00  0.00    +0.000 C 
ATOM      8  C   UNL     1       2.389   6.424  19.352  0.00  0.00    +0.000 A 
ATOM      9  C   UNL     1       5.224   6.210  16.744  0.00  0.00    +0.000 C 
ATOM     10  O   UNL     1       5.140   6.992  15.816  0.00  0.00    +0.000 OA
ATOM     11  C   UNL     1       6.379   5.242  16.979  0.00  0.00    +0.000 C 
ATOM     12  C   UNL     1       7.491   6.019  17.702  0.00  0.00    +0.000 C 
ATOM     13  C   UNL     1       5.752   4.182  17.907  0.00  0.00    +0.000 C 
ENDROOT
BRANCH   8  14
ATOM     14  C   UNL     1       1.158   7.210  19.804  0.00  0.00    +0.000 C 
BRANCH  14  15
ATOM     15  C   UNL     1       1.374   8.424  20.691  0.00  0.00    +0.000 C 
ATOM     16  O   UNL     1       1.097   9.554  20.312  0.00  0.00    +0.000 OA
BRANCH  15  17
ATOM     17  O   UNL     1       1.866   8.202  21.926  0.00  0.00    +0.000 OA
ATOM     18  H   UNL     1       1.928   7.264  22.183  0.00  0.00    +0.000 HD
ENDBRANCH  15  17
ENDBRANCH  14  15
ENDBRANCH   8  14
BRANCH  11  19
ATOM     19  C   UNL     1       6.921   4.647  15.678  0.00  0.00    +0.000 C 
BRANCH  19  20
ATOM     20  O   UNL     1       7.599   5.616  14.885  0.00  0.00    +0.000 OA
ATOM     21  H   UNL     1       7.637   5.272  13.973  0.00  0.00    +0.000 HD
ENDBRANCH  19  20
ENDBRANCH  11  19
TORSDOF 5
ENDMDL
MODEL 9
REMARK VINA RESULT:      -6.2      1.784      5.999
REMARK  Name = 
REMARK  8 active torsions:
REMARK  status: ('A' for Active; 'I' for Inactive)
REMARK    1  A    between atoms: C_1  and  C_2
REMARK    2  A    between atoms: C_6  and  C_7
REMARK    3  A    between atoms: C_8  and  C_9
REMARK    4  A    between atoms: C_9  and  C_10
REMARK    5  A    between atoms: C_10  and  O_12
REMARK    6  A    between atoms: C_15  and  C_16
REMARK    7  A    between atoms: C_15  and  C_17
REMARK    8  A    between atoms: C_17  and  O_18
REMARK                            x       y       z     vdW  Elec       q    Type
REMARK                         _______ _______ _______ _____ _____    ______ ____
ROOT
ATOM      1  C   UNL     1       1.029   4.149  17.730  0.00  0.00    +0.000 C 
ATOM      2  C   UNL     1       2.490   4.334  18.053  0.00  0.00    +0.000 A 
ATOM      3  C   UNL     1       3.144   5.414  17.442  0.00  0.00    +0.000 A 
ATOM      4  C   UNL     1       4.482   5.630  17.698  0.00  0.00    +0.000 A 
ATOM      5  C   UNL     1       5.186   4.805  18.572  0.00  0.00    +0.000 A 
ATOM      6  C   UNL     1       4.585   3.712  19.210  0.00  0.00    +0.000 A 
ATOM      7  C   UNL     1       5.362   2.813  20.133  0.00  0.00    +0.000 C 
ATOM      8  C   UNL     1       3.198   3.479  18.953  0.00  0.00    +0.000 A 
ATOM      9  C   UNL     1       6.566   5.327  18.603  0.00  0.00    +0.000 C 
ATOM     10  O   UNL     1       7.429   4.996  19.395  0.00  0.00    +0.000 OA
ATOM     11  C   UNL     1       6.750   6.330  17.469  0.00  0.00    +0.000 C 
ATOM     12  C   UNL     1       7.368   5.574  16.281  0.00  0.00    +0.000 C 
ATOM     13  C   UNL     1       5.302   6.761  17.157  0.00  0.00    +0.000 C 
ENDROOT
BRANCH   8  14
ATOM     14  C   UNL     1       2.460   2.339  19.658  0.00  0.00    +0.000 C 
BRANCH  14  15
ATOM     15  C   UNL     1       1.870   2.613  21.030  0.00  0.00    +0.000 C 
ATOM     16  O   UNL     1       2.543   2.529  22.048  0.00  0.00    +0.000 OA
BRANCH  15  17
ATOM     17  O   UNL     1       0.573   2.975  21.078  0.00  0.00    +0.000 OA
ATOM     18  H   UNL     1       0.053   2.760  20.282  0.00  0.00    +0.000 HD
ENDBRANCH  15  17
ENDBRANCH  14  15
ENDBRANCH   8  14
BRANCH  11  19
ATOM     19  C   UNL     1       7.647   7.505  17.862  0.00  0.00    +0.000 C 
BRANCH  19  20
ATOM     20  O   UNL     1       8.508   7.182  18.949  0.00  0.00    +0.000 OA
ATOM     21  H   UNL     1       8.082   7.503  19.766  0.00  0.00    +0.000 HD
ENDBRANCH  19  20
ENDBRANCH  11  19
TORSDOF 5
ENDMDL
