MODEL 1
REMARK VINA RESULT:      -7.9      0.000      0.000
REMARK  Name = 
REMARK  8 active torsions:
REMARK  status: ('A' for Active; 'I' for Inactive)
REMARK    1  A    between atoms: C_1  and  C_2
REMARK    2  A    between atoms: C_6  and  C_8
REMARK    3  A    between atoms: C_8  and  O_9
REMARK    4  A    between atoms: O_9  and  C_10
REMARK    5  A    between atoms: C_13  and  C_14
REMARK    6  A    between atoms: C_14  and  C_15
REMARK    7  A    between atoms: C_14  and  C_16
REMARK    8  A    between atoms: C_14  and  C_17
REMARK                            x       y       z     vdW  Elec       q    Type
REMARK                         _______ _______ _______ _____ _____    ______ ____
ROOT
ATOM      1  C   UNL     1       7.080   6.053  18.581  0.00  0.00    +0.000 C 
ENDROOT
BRANCH   1   7
ATOM      2  C   UNL     1       6.142   3.015  11.885  0.00  0.00    +0.000 C 
ATOM      3  C   UNL     1       6.426   3.773  13.116  0.00  0.00    +0.000 A 
ATOM      4  C   UNL     1       6.092   3.644  14.441  0.00  0.00    +0.000 A 
ATOM      5  C   UNL     1       6.730   4.740  15.078  0.00  0.00    +0.000 A 
ATOM      6  N   UNL     1       6.667   4.991  16.435  0.00  0.00    +0.000 N 
ATOM      7  C   UNL     1       7.290   6.054  17.067  0.00  0.00    +0.000 C 
ATOM      8  O   UNL     1       7.962   6.939  16.544  0.00  0.00    +0.000 OA
ATOM      9  N   UNL     1       7.394   5.475  14.185  0.00  0.00    +0.000 NA
ATOM     10  O   UNL     1       7.206   4.873  12.961  0.00  0.00    +0.000 OA
ATOM     11  H   UNL     1       6.141   4.354  17.014  0.00  0.00    +0.000 HD
ENDBRANCH   1   7
BRANCH   1  12
ATOM     12  O   UNL     1       6.707   4.746  19.002  0.00  0.00    +0.000 OA
BRANCH  12  13
ATOM     13  C   UNL     1       5.381   4.521  19.207  0.00  0.00    +0.000 A 
ATOM     14  C   UNL     1       5.065   3.191  19.455  0.00  0.00    +0.000 A 
ATOM     15  C   UNL     1       3.758   2.816  19.761  0.00  0.00    +0.000 A 
ATOM     16  C   UNL     1       2.728   3.762  19.853  0.00  0.00    +0.000 A 
ATOM     17  C   UNL     1       3.062   5.103  19.570  0.00  0.00    +0.000 A 
ATOM     18  C   UNL     1       4.374   5.483  19.251  0.00  0.00    +0.000 A 
BRANCH  16  19
ATOM     19  C   UNL     1       1.304   3.375  20.290  0.00  0.00    +0.000 C 
ATOM     20  C   UNL     1       1.273   2.611  21.635  0.00  0.00    +0.000 C 
ATOM     21  C   UNL     1       0.456   4.653  20.470  0.00  0.00    +0.000 C 
ATOM     22  C   UNL     1       0.633   2.472  19.236  0.00  0.00    +0.000 C 
ENDBRANCH  16  19
ENDBRANCH  12  13
ENDBRANCH   1  12
TORSDOF 4
ENDMDL
MODEL 2
REMARK VINA RESULT:      -7.8      0.249      1.429
REMARK  Name = 
REMARK  8 active torsions:
REMARK  status: ('A' for Active; 'I' for Inactive)
REMARK    1  A    between atoms: C_1  and  C_2
REMARK    2  A    between atoms: C_6  and  C_8
REMARK    3  A    between atoms: C_8  and  O_9
REMARK    4  A    between atoms: O_9  and  C_10
REMARK    5  A    between atoms: C_13  and  C_14
REMARK    6  A    between atoms: C_14  and  C_15
REMARK    7  A    between atoms: C_14  and  C_16
REMARK    8  A    between atoms: C_14  and  C_17
REMARK                            x       y       z     vdW  Elec       q    Type
REMARK                         _______ _______ _______ _____ _____    ______ ____
ROOT
ATOM      1  C   UNL     1       6.774   6.210  18.346  0.00  0.00    +0.000 C 
ENDROOT
BRANCH   1   7
ATOM      2  C   UNL     1       6.430   3.073  11.639  0.00  0.00    +0.000 C 
ATOM      3  C   UNL     1       6.622   3.838  12.883  0.00  0.00    +0.000 A 
ATOM      4  C   UNL     1       6.111   3.777  14.155  0.00  0.00    +0.000 A 
ATOM      5  C   UNL     1       6.758   4.832  14.850  0.00  0.00    +0.000 A 
ATOM      6  N   UNL     1       6.544   5.127  16.183  0.00  0.00    +0.000 N 
ATOM      7  C   UNL     1       7.174   6.149  16.871  0.00  0.00    +0.000 C 
ATOM      8  O   UNL     1       7.985   6.957  16.425  0.00  0.00    +0.000 OA
ATOM      9  N   UNL     1       7.593   5.481  14.038  0.00  0.00    +0.000 NA
ATOM     10  O   UNL     1       7.510   4.863  12.811  0.00  0.00    +0.000 OA
ATOM     11  H   UNL     1       5.894   4.554  16.700  0.00  0.00    +0.000 HD
ENDBRANCH   1   7
BRANCH   1  12
ATOM     12  O   UNL     1       6.734   4.890  18.876  0.00  0.00    +0.000 OA
BRANCH  12  13
ATOM     13  C   UNL     1       5.523   4.433  19.296  0.00  0.00    +0.000 A 
ATOM     14  C   UNL     1       4.572   5.431  19.472  0.00  0.00    +0.000 A 
ATOM     15  C   UNL     1       3.262   5.111  19.824  0.00  0.00    +0.000 A 
ATOM     16  C   UNL     1       2.853   3.780  19.989  0.00  0.00    +0.000 A 
ATOM     17  C   UNL     1       3.839   2.784  19.834  0.00  0.00    +0.000 A 
ATOM     18  C   UNL     1       5.161   3.102  19.490  0.00  0.00    +0.000 A 
BRANCH  16  19
ATOM     19  C   UNL     1       1.388   3.410  20.276  0.00  0.00    +0.000 C 
ATOM     20  C   UNL     1       0.762   2.525  19.173  0.00  0.00    +0.000 C 
ATOM     21  C   UNL     1       1.307   2.617  21.599  0.00  0.00    +0.000 C 
ATOM     22  C   UNL     1       0.516   4.675  20.397  0.00  0.00    +0.000 C 
ENDBRANCH  16  19
ENDBRANCH  12  13
ENDBRANCH   1  12
TORSDOF 4
ENDMDL
MODEL 3
REMARK VINA RESULT:      -7.7      3.523      4.488
REMARK  Name = 
REMARK  8 active torsions:
REMARK  status: ('A' for Active; 'I' for Inactive)
REMARK    1  A    between atoms: C_1  and  C_2
REMARK    2  A    between atoms: C_6  and  C_8
REMARK    3  A    between atoms: C_8  and  O_9
REMARK    4  A    between atoms: O_9  and  C_10
REMARK    5  A    between atoms: C_13  and  C_14
REMARK    6  A    between atoms: C_14  and  C_15
REMARK    7  A    between atoms: C_14  and  C_16
REMARK    8  A    between atoms: C_14  and  C_17
REMARK                            x       y       z     vdW  Elec       q    Type
REMARK                         _______ _______ _______ _____ _____    ______ ____
ROOT
ATOM      1  C   UNL     1       4.548   5.414  19.079  0.00  0.00    +0.000 C 
ENDROOT
BRANCH   1   7
ATOM      2  C   UNL     1       7.090   4.105  12.240  0.00  0.00    +0.000 C 
ATOM      3  C   UNL     1       6.746   4.495  13.618  0.00  0.00    +0.000 A 
ATOM      4  C   UNL     1       5.704   4.240  14.473  0.00  0.00    +0.000 A 
ATOM      5  C   UNL     1       6.037   4.942  15.661  0.00  0.00    +0.000 A 
ATOM      6  N   UNL     1       5.258   4.948  16.802  0.00  0.00    +0.000 N 
ATOM      7  C   UNL     1       5.577   5.624  17.967  0.00  0.00    +0.000 C 
ATOM      8  O   UNL     1       6.561   6.329  18.172  0.00  0.00    +0.000 OA
ATOM      9  N   UNL     1       7.200   5.577  15.515  0.00  0.00    +0.000 NA
ATOM     10  O   UNL     1       7.644   5.300  14.242  0.00  0.00    +0.000 OA
ATOM     11  H   UNL     1       4.400   4.416  16.796  0.00  0.00    +0.000 HD
ENDBRANCH   1   7
BRANCH   1  12
ATOM     12  O   UNL     1       3.244   5.654  18.562  0.00  0.00    +0.000 OA
BRANCH  12  13
ATOM     13  C   UNL     1       2.640   6.815  18.935  0.00  0.00    +0.000 A 
ATOM     14  C   UNL     1       2.571   7.766  17.925  0.00  0.00    +0.000 A 
ATOM     15  C   UNL     1       1.911   8.977  18.132  0.00  0.00    +0.000 A 
ATOM     16  C   UNL     1       1.277   9.265  19.348  0.00  0.00    +0.000 A 
ATOM     17  C   UNL     1       1.381   8.300  20.370  0.00  0.00    +0.000 A 
ATOM     18  C   UNL     1       2.054   7.085  20.170  0.00  0.00    +0.000 A 
BRANCH  16  19
ATOM     19  C   UNL     1       0.458  10.552  19.552  0.00  0.00    +0.000 C 
ATOM     20  C   UNL     1       0.337  10.960  21.039  0.00  0.00    +0.000 C 
ATOM     21  C   UNL     1       1.145  11.722  18.812  0.00  0.00    +0.000 C 
ATOM     22  C   UNL     1      -0.973  10.385  19.006  0.00  0.00    +0.000 C 
ENDBRANCH  16  19
ENDBRANCH  12  13
ENDBRANCH   1  12
TORSDOF 4
ENDMDL
MODEL 4
REMARK VINA RESULT:      -7.7      3.418      4.358
REMARK  Name = 
REMARK  8 active torsions:
REMARK  status: ('A' for Active; 'I' for Inactive)
REMARK    1  A    between atoms: C_1  and  C_2
REMARK    2  A    between atoms: C_6  and  C_8
REMARK    3  A    between atoms: C_8  and  O_9
REMARK    4  A    between atoms: O_9  and  C_10
REMARK    5  A    between atoms: C_13  and  C_14
REMARK    6  A    between atoms: C_14  and  C_15
REMARK    7  A    between atoms: C_14  and  C_16
REMARK    8  A    between atoms: C_14  and  C_17
REMARK                            x       y       z     vdW  Elec       q    Type
REMARK                         _______ _______ _______ _____ _____    ______ ____
ROOT
ATOM      1  C   UNL     1       4.714   5.457  19.228  0.00  0.00    +0.000 C 
ENDROOT
BRANCH   1   7
ATOM      2  C   UNL     1       7.038   4.065  12.328  0.00  0.00    +0.000 C 
ATOM      3  C   UNL     1       6.740   4.469  13.713  0.00  0.00    +0.000 A 
ATOM      4  C   UNL     1       5.717   4.238  14.599  0.00  0.00    +0.000 A 
ATOM      5  C   UNL     1       6.097   4.939  15.773  0.00  0.00    +0.000 A 
ATOM      6  N   UNL     1       5.350   4.966  16.935  0.00  0.00    +0.000 N 
ATOM      7  C   UNL     1       5.715   5.642  18.087  0.00  0.00    +0.000 C 
ATOM      8  O   UNL     1       6.718   6.329  18.260  0.00  0.00    +0.000 OA
ATOM      9  N   UNL     1       7.267   5.552  15.591  0.00  0.00    +0.000 NA
ATOM     10  O   UNL     1       7.670   5.260  14.308  0.00  0.00    +0.000 OA
ATOM     11  H   UNL     1       4.483   4.451  16.957  0.00  0.00    +0.000 HD
ENDBRANCH   1   7
BRANCH   1  12
ATOM     12  O   UNL     1       3.393   5.459  18.699  0.00  0.00    +0.000 OA
BRANCH  12  13
ATOM     13  C   UNL     1       2.703   6.629  18.776  0.00  0.00    +0.000 A 
ATOM     14  C   UNL     1       2.231   6.924  20.049  0.00  0.00    +0.000 A 
ATOM     15  C   UNL     1       1.572   8.126  20.302  0.00  0.00    +0.000 A 
ATOM     16  C   UNL     1       1.386   9.084  19.297  0.00  0.00    +0.000 A 
ATOM     17  C   UNL     1       1.847   8.755  18.005  0.00  0.00    +0.000 A 
ATOM     18  C   UNL     1       2.500   7.542  17.743  0.00  0.00    +0.000 A 
BRANCH  16  19
ATOM     19  C   UNL     1       0.753  10.456  19.588  0.00  0.00    +0.000 C 
ATOM     20  C   UNL     1       0.831  10.851  21.081  0.00  0.00    +0.000 C 
ATOM     21  C   UNL     1       1.498  11.547  18.786  0.00  0.00    +0.000 C 
ATOM     22  C   UNL     1      -0.735  10.470  19.188  0.00  0.00    +0.000 C 
ENDBRANCH  16  19
ENDBRANCH  12  13
ENDBRANCH   1  12
TORSDOF 4
ENDMDL
MODEL 5
REMARK VINA RESULT:      -7.7      2.559      3.709
REMARK  Name = 
REMARK  8 active torsions:
REMARK  status: ('A' for Active; 'I' for Inactive)
REMARK    1  A    between atoms: C_1  and  C_2
REMARK    2  A    between atoms: C_6  and  C_8
REMARK    3  A    between atoms: C_8  and  O_9
REMARK    4  A    between atoms: O_9  and  C_10
REMARK    5  A    between atoms: C_13  and  C_14
REMARK    6  A    between atoms: C_14  and  C_15
REMARK    7  A    between atoms: C_14  and  C_16
REMARK    8  A    between atoms: C_14  and  C_17
REMARK                            x       y       z     vdW  Elec       q    Type
REMARK                         _______ _______ _______ _____ _____    ______ ____
ROOT
ATOM      1  C   UNL     1       4.302   3.415  18.872  0.00  0.00    +0.000 C 
ENDROOT
BRANCH   1   7
ATOM      2  C   UNL     1       7.566   4.968  12.401  0.00  0.00    +0.000 C 
ATOM      3  C   UNL     1       7.069   4.772  13.774  0.00  0.00    +0.000 A 
ATOM      4  C   UNL     1       5.962   4.189  14.337  0.00  0.00    +0.000 A 
ATOM      5  C   UNL     1       6.142   4.359  15.735  0.00  0.00    +0.000 A 
ATOM      6  N   UNL     1       5.254   3.904  16.691  0.00  0.00    +0.000 N 
ATOM      7  C   UNL     1       5.423   4.059  18.056  0.00  0.00    +0.000 C 
ATOM      8  O   UNL     1       6.347   4.629  18.631  0.00  0.00    +0.000 OA
ATOM      9  N   UNL     1       7.280   5.007  15.982  0.00  0.00    +0.000 NA
ATOM     10  O   UNL     1       7.861   5.265  14.761  0.00  0.00    +0.000 OA
ATOM     11  H   UNL     1       4.428   3.413  16.380  0.00  0.00    +0.000 HD
ENDBRANCH   1   7
BRANCH   1  12
ATOM     12  O   UNL     1       3.054   3.976  18.480  0.00  0.00    +0.000 OA
BRANCH  12  13
ATOM     13  C   UNL     1       2.596   5.027  19.212  0.00  0.00    +0.000 A 
ATOM     14  C   UNL     1       2.751   6.260  18.589  0.00  0.00    +0.000 A 
ATOM     15  C   UNL     1       2.258   7.422  19.181  0.00  0.00    +0.000 A 
ATOM     16  C   UNL     1       1.572   7.386  20.403  0.00  0.00    +0.000 A 
ATOM     17  C   UNL     1       1.449   6.131  21.032  0.00  0.00    +0.000 A 
ATOM     18  C   UNL     1       1.953   4.960  20.446  0.00  0.00    +0.000 A 
BRANCH  16  19
ATOM     19  C   UNL     1       0.935   8.647  21.014  0.00  0.00    +0.000 C 
ATOM     20  C   UNL     1      -0.497   8.401  21.546  0.00  0.00    +0.000 C 
ATOM     21  C   UNL     1       1.790   9.129  22.207  0.00  0.00    +0.000 C 
ATOM     22  C   UNL     1       0.847   9.778  19.972  0.00  0.00    +0.000 C 
ENDBRANCH  16  19
ENDBRANCH  12  13
ENDBRANCH   1  12
TORSDOF 4
ENDMDL
MODEL 6
REMARK VINA RESULT:      -7.6      6.164      8.071
REMARK  Name = 
REMARK  8 active torsions:
REMARK  status: ('A' for Active; 'I' for Inactive)
REMARK    1  A    between atoms: C_1  and  C_2
REMARK    2  A    between atoms: C_6  and  C_8
REMARK    3  A    between atoms: C_8  and  O_9
REMARK    4  A    between atoms: O_9  and  C_10
REMARK    5  A    between atoms: C_13  and  C_14
REMARK    6  A    between atoms: C_14  and  C_15
REMARK    7  A    between atoms: C_14  and  C_16
REMARK    8  A    between atoms: C_14  and  C_17
REMARK                            x       y       z     vdW  Elec       q    Type
REMARK                         _______ _______ _______ _____ _____    ______ ____
ROOT
ATOM      1  C   UNL     1       1.756   9.189  17.769  0.00  0.00    +0.000 C 
ENDROOT
BRANCH   1   7
ATOM      2  C   UNL     1      -5.154  11.803  17.163  0.00  0.00    +0.000 C 
ATOM      3  C   UNL     1      -3.785  11.357  17.477  0.00  0.00    +0.000 A 
ATOM      4  C   UNL     1      -2.827  10.618  16.831  0.00  0.00    +0.000 A 
ATOM      5  C   UNL     1      -1.730  10.592  17.732  0.00  0.00    +0.000 A 
ATOM      6  N   UNL     1      -0.531   9.956  17.473  0.00  0.00    +0.000 N 
ATOM      7  C   UNL     1       0.547   9.930  18.341  0.00  0.00    +0.000 C 
ATOM      8  O   UNL     1       0.612  10.429  19.461  0.00  0.00    +0.000 OA
ATOM      9  N   UNL     1      -2.024  11.267  18.842  0.00  0.00    +0.000 NA
ATOM     10  O   UNL     1      -3.305  11.746  18.687  0.00  0.00    +0.000 OA
ATOM     11  H   UNL     1      -0.421   9.486  16.587  0.00  0.00    +0.000 HD
ENDBRANCH   1   7
BRANCH   1  12
ATOM     12  O   UNL     1       2.505   8.620  18.837  0.00  0.00    +0.000 OA
BRANCH  12  13
ATOM     13  C   UNL     1       2.230   7.327  19.160  0.00  0.00    +0.000 A 
ATOM     14  C   UNL     1       2.403   6.433  18.110  0.00  0.00    +0.000 A 
ATOM     15  C   UNL     1       2.235   5.063  18.308  0.00  0.00    +0.000 A 
ATOM     16  C   UNL     1       1.913   4.540  19.568  0.00  0.00    +0.000 A 
ATOM     17  C   UNL     1       1.715   5.465  20.614  0.00  0.00    +0.000 A 
ATOM     18  C   UNL     1       1.872   6.845  20.417  0.00  0.00    +0.000 A 
BRANCH  16  19
ATOM     19  C   UNL     1       1.827   3.025  19.821  0.00  0.00    +0.000 C 
ATOM     20  C   UNL     1       0.826   2.312  18.882  0.00  0.00    +0.000 C 
ATOM     21  C   UNL     1       3.213   2.384  19.583  0.00  0.00    +0.000 C 
ATOM     22  C   UNL     1       1.384   2.735  21.268  0.00  0.00    +0.000 C 
ENDBRANCH  16  19
ENDBRANCH  12  13
ENDBRANCH   1  12
TORSDOF 4
ENDMDL
MODEL 7
REMARK VINA RESULT:      -7.6      6.311      8.195
REMARK  Name = 
REMARK  8 active torsions:
REMARK  status: ('A' for Active; 'I' for Inactive)
REMARK    1  A    between atoms: C_1  and  C_2
REMARK    2  A    between atoms: C_6  and  C_8
REMARK    3  A    between atoms: C_8  and  O_9
REMARK    4  A    between atoms: O_9  and  C_10
REMARK    5  A    between atoms: C_13  and  C_14
REMARK    6  A    between atoms: C_14  and  C_15
REMARK    7  A    between atoms: C_14  and  C_16
REMARK    8  A    between atoms: C_14  and  C_17
REMARK                            x       y       z     vdW  Elec       q    Type
REMARK                         _______ _______ _______ _____ _____    ______ ____
ROOT
ATOM      1  C   UNL     1       1.492   9.207  17.811  0.00  0.00    +0.000 C 
ENDROOT
BRANCH   1   7
ATOM      2  C   UNL     1      -5.341  11.990  17.095  0.00  0.00    +0.000 C 
ATOM      3  C   UNL     1      -3.993  11.502  17.435  0.00  0.00    +0.000 A 
ATOM      4  C   UNL     1      -3.028  10.771  16.789  0.00  0.00    +0.000 A 
ATOM      5  C   UNL     1      -1.962  10.684  17.722  0.00  0.00    +0.000 A 
ATOM      6  N   UNL     1      -0.768  10.035  17.475  0.00  0.00    +0.000 N 
ATOM      7  C   UNL     1       0.280   9.949  18.375  0.00  0.00    +0.000 C 
ATOM      8  O   UNL     1       0.317  10.399  19.517  0.00  0.00    +0.000 OA
ATOM      9  N   UNL     1      -2.279  11.318  18.850  0.00  0.00    +0.000 NA
ATOM     10  O   UNL     1      -3.545  11.829  18.674  0.00  0.00    +0.000 OA
ATOM     11  H   UNL     1      -0.639   9.600  16.573  0.00  0.00    +0.000 HD
ENDBRANCH   1   7
BRANCH   1  12
ATOM     12  O   UNL     1       2.264   8.684  18.886  0.00  0.00    +0.000 OA
BRANCH  12  13
ATOM     13  C   UNL     1       2.284   7.331  19.026  0.00  0.00    +0.000 A 
ATOM     14  C   UNL     1       1.936   6.889  20.296  0.00  0.00    +0.000 A 
ATOM     15  C   UNL     1       1.835   5.526  20.572  0.00  0.00    +0.000 A 
ATOM     16  C   UNL     1       2.056   4.561  19.580  0.00  0.00    +0.000 A 
ATOM     17  C   UNL     1       2.435   5.028  18.305  0.00  0.00    +0.000 A 
ATOM     18  C   UNL     1       2.548   6.398  18.026  0.00  0.00    +0.000 A 
BRANCH  16  19
ATOM     19  C   UNL     1       1.847   3.059  19.846  0.00  0.00    +0.000 C 
ATOM     20  C   UNL     1       1.428   2.757  21.304  0.00  0.00    +0.000 C 
ATOM     21  C   UNL     1       0.725   2.525  18.928  0.00  0.00    +0.000 C 
ATOM     22  C   UNL     1       3.140   2.268  19.568  0.00  0.00    +0.000 C 
ENDBRANCH  16  19
ENDBRANCH  12  13
ENDBRANCH   1  12
TORSDOF 4
ENDMDL
MODEL 8
REMARK VINA RESULT:      -7.6      2.378      4.326
REMARK  Name = 
REMARK  8 active torsions:
REMARK  status: ('A' for Active; 'I' for Inactive)
REMARK    1  A    between atoms: C_1  and  C_2
REMARK    2  A    between atoms: C_6  and  C_8
REMARK    3  A    between atoms: C_8  and  O_9
REMARK    4  A    between atoms: O_9  and  C_10
REMARK    5  A    between atoms: C_13  and  C_14
REMARK    6  A    between atoms: C_14  and  C_15
REMARK    7  A    between atoms: C_14  and  C_16
REMARK    8  A    between atoms: C_14  and  C_17
REMARK                            x       y       z     vdW  Elec       q    Type
REMARK                         _______ _______ _______ _____ _____    ______ ____
ROOT
ATOM      1  C   UNL     1       6.679   4.324  15.836  0.00  0.00    +0.000 C 
ENDROOT
BRANCH   1   7
ATOM      2  C   UNL     1       8.866  10.748  18.818  0.00  0.00    +0.000 C 
ATOM      3  C   UNL     1       8.493   9.384  18.403  0.00  0.00    +0.000 A 
ATOM      4  C   UNL     1       7.855   8.833  17.321  0.00  0.00    +0.000 A 
ATOM      5  C   UNL     1       7.851   7.438  17.582  0.00  0.00    +0.000 A 
ATOM      6  N   UNL     1       7.311   6.492  16.731  0.00  0.00    +0.000 N 
ATOM      7  C   UNL     1       7.307   5.130  16.974  0.00  0.00    +0.000 C 
ATOM      8  O   UNL     1       7.746   4.549  17.963  0.00  0.00    +0.000 OA
ATOM      9  N   UNL     1       8.443   7.181  18.748  0.00  0.00    +0.000 NA
ATOM     10  O   UNL     1       8.845   8.393  19.262  0.00  0.00    +0.000 OA
ATOM     11  H   UNL     1       6.898   6.809  15.866  0.00  0.00    +0.000 HD
ENDBRANCH   1   7
BRANCH   1  12
ATOM     12  O   UNL     1       5.362   4.806  15.591  0.00  0.00    +0.000 OA
BRANCH  12  13
ATOM     13  C   UNL     1       4.441   4.601  16.570  0.00  0.00    +0.000 A 
ATOM     14  C   UNL     1       4.116   3.265  16.771  0.00  0.00    +0.000 A 
ATOM     15  C   UNL     1       3.245   2.891  17.793  0.00  0.00    +0.000 A 
ATOM     16  C   UNL     1       2.689   3.838  18.664  0.00  0.00    +0.000 A 
ATOM     17  C   UNL     1       3.009   5.191  18.428  0.00  0.00    +0.000 A 
ATOM     18  C   UNL     1       3.877   5.573  17.394  0.00  0.00    +0.000 A 
BRANCH  16  19
ATOM     19  C   UNL     1       1.810   3.427  19.858  0.00  0.00    +0.000 C 
ATOM     20  C   UNL     1       1.064   4.621  20.497  0.00  0.00    +0.000 C 
ATOM     21  C   UNL     1       0.739   2.419  19.385  0.00  0.00    +0.000 C 
ATOM     22  C   UNL     1       2.659   2.772  20.965  0.00  0.00    +0.000 C 
ENDBRANCH  16  19
ENDBRANCH  12  13
ENDBRANCH   1  12
TORSDOF 4
ENDMDL
MODEL 9
REMARK VINA RESULT:      -7.6      3.275      5.246
REMARK  Name = 
REMARK  8 active torsions:
REMARK  status: ('A' for Active; 'I' for Inactive)
REMARK    1  A    between atoms: C_1  and  C_2
REMARK    2  A    between atoms: C_6  and  C_8
REMARK    3  A    between atoms: C_8  and  O_9
REMARK    4  A    between atoms: O_9  and  C_10
REMARK    5  A    between atoms: C_13  and  C_14
REMARK    6  A    between atoms: C_14  and  C_15
REMARK    7  A    between atoms: C_14  and  C_16
REMARK    8  A    between atoms: C_14  and  C_17
REMARK                            x       y       z     vdW  Elec       q    Type
REMARK                         _______ _______ _______ _____ _____    ______ ____
ROOT
ATOM      1  C   UNL     1       7.018   6.266  16.811  0.00  0.00    +0.000 C 
ENDROOT
BRANCH   1   7
ATOM      2  C   UNL     1       9.716  12.837  18.933  0.00  0.00    +0.000 C 
ATOM      3  C   UNL     1       9.240  11.462  18.698  0.00  0.00    +0.000 A 
ATOM      4  C   UNL     1       8.540  10.828  17.702  0.00  0.00    +0.000 A 
ATOM      5  C   UNL     1       8.444   9.481  18.136  0.00  0.00    +0.000 A 
ATOM      6  N   UNL     1       7.820   8.478  17.418  0.00  0.00    +0.000 N 
ATOM      7  C   UNL     1       7.727   7.160  17.830  0.00  0.00    +0.000 C 
ATOM      8  O   UNL     1       8.147   6.676  18.878  0.00  0.00    +0.000 OA
ATOM      9  N   UNL     1       9.044   9.329  19.317  0.00  0.00    +0.000 NA
ATOM     10  O   UNL     1       9.541  10.563  19.669  0.00  0.00    +0.000 OA
ATOM     11  H   UNL     1       7.412   8.714  16.526  0.00  0.00    +0.000 HD
ENDBRANCH   1   7
BRANCH   1  12
ATOM     12  O   UNL     1       5.616   6.499  16.879  0.00  0.00    +0.000 OA
BRANCH  12  13
ATOM     13  C   UNL     1       4.894   5.671  17.681  0.00  0.00    +0.000 A 
ATOM     14  C   UNL     1       3.709   6.227  18.147  0.00  0.00    +0.000 A 
ATOM     15  C   UNL     1       2.824   5.473  18.916  0.00  0.00    +0.000 A 
ATOM     16  C   UNL     1       3.083   4.130  19.225  0.00  0.00    +0.000 A 
ATOM     17  C   UNL     1       4.304   3.592  18.767  0.00  0.00    +0.000 A 
ATOM     18  C   UNL     1       5.202   4.350  18.002  0.00  0.00    +0.000 A 
BRANCH  16  19
ATOM     19  C   UNL     1       2.067   3.260  19.985  0.00  0.00    +0.000 C 
ATOM     20  C   UNL     1       0.774   4.024  20.352  0.00  0.00    +0.000 C 
ATOM     21  C   UNL     1       1.655   2.061  19.101  0.00  0.00    +0.000 C 
ATOM     22  C   UNL     1       2.674   2.728  21.298  0.00  0.00    +0.000 C 
ENDBRANCH  16  19
ENDBRANCH  12  13
ENDBRANCH   1  12
TORSDOF 4
ENDMDL
