MODEL 1
REMARK VINA RESULT:      -8.9      0.000      0.000
REMARK  Name = 
REMARK  10 active torsions:
REMARK  status: ('A' for Active; 'I' for Inactive)
REMARK    1  A    between atoms: C_1  and  C_2
REMARK    2  A    between atoms: C_2  and  O_3
REMARK    3  A    between atoms: O_3  and  C_4
REMARK    4  A    between atoms: C_4  and  C_6
REMARK    5  A    between atoms: C_10  and  N_11
REMARK    6  A    between atoms: C_12  and  C_14
REMARK    7  A    between atoms: C_17  and  C_18
REMARK    8  A    between atoms: C_22  and  O_23
REMARK    9  A    between atoms: O_23  and  C_24
REMARK   10  A    between atoms: N_27  and  C_28
REMARK                            x       y       z     vdW  Elec       q    Type
REMARK                         _______ _______ _______ _____ _____    ______ ____
ROOT
ATOM      1  C   UNL     1       4.567   4.775  17.899  0.00  0.00    +0.000 A 
ATOM      2  C   UNL     1       3.866   5.960  18.172  0.00  0.00    +0.000 A 
ATOM      3  C   UNL     1       3.035   5.768  19.277  0.00  0.00    +0.000 A 
ATOM      4  C   UNL     1       2.151   6.521  20.067  0.00  0.00    +0.000 A 
ATOM      5  N   UNL     1       1.713   5.724  21.082  0.00  0.00    +0.000 NA
ATOM      6  N   UNL     1       2.322   4.524  20.881  0.00  0.00    +0.000 N 
ATOM      7  C   UNL     1       2.166   3.441  21.816  0.00  0.00    +0.000 C 
ATOM      8  C   UNL     1       3.112   4.539  19.792  0.00  0.00    +0.000 A 
ATOM      9  S   UNL     1       4.135   3.499  19.011  0.00  0.00    +0.000 S 
ENDROOT
BRANCH   4  10
ATOM     10  C   UNL     1       1.713   7.919  19.970  0.00  0.00    +0.000 A 
ATOM     11  C   UNL     1       1.773   8.588  18.734  0.00  0.00    +0.000 A 
ATOM     12  C   UNL     1       1.354   9.913  18.614  0.00  0.00    +0.000 A 
ATOM     13  C   UNL     1       0.874  10.591  19.732  0.00  0.00    +0.000 A 
ATOM     14  C   UNL     1       0.822   9.956  20.974  0.00  0.00    +0.000 A 
ATOM     15  C   UNL     1       1.243   8.625  21.090  0.00  0.00    +0.000 A 
BRANCH  14  16
ATOM     16  O   UNL     1       0.347  10.741  21.991  0.00  0.00    +0.000 OA
ATOM     17  C   UNL     1       0.002  12.081  21.664  0.00  0.00    +0.000 C 
ENDBRANCH  14  16
ENDBRANCH   4  10
BRANCH   1  19
ATOM     18  N   UNL     1       5.176   4.833  15.570  0.00  0.00    +0.000 N 
ATOM     19  C   UNL     1       5.588   4.576  16.871  0.00  0.00    +0.000 C 
ATOM     20  O   UNL     1       6.723   4.229  17.178  0.00  0.00    +0.000 OA
ATOM     21  H   UNL     1       4.259   5.255  15.468  0.00  0.00    +0.000 HD
BRANCH  18  26
ATOM     22  C   UNL     1       6.134   3.349  12.307  0.00  0.00    +0.000 A 
ATOM     23  C   UNL     1       7.316   4.042  12.020  0.00  0.00    +0.000 A 
ATOM     24  C   UNL     1       7.801   4.988  12.915  0.00  0.00    +0.000 A 
ATOM     25  C   UNL     1       7.102   5.262  14.090  0.00  0.00    +0.000 A 
ATOM     26  C   UNL     1       5.905   4.600  14.386  0.00  0.00    +0.000 A 
ATOM     27  C   UNL     1       5.431   3.630  13.492  0.00  0.00    +0.000 A 
BRANCH  22  28
ATOM     28  C   UNL     1       5.648   2.247  11.432  0.00  0.00    +0.000 C 
ATOM     29  O   UNL     1       6.366   1.367  10.987  0.00  0.00    +0.000 OA
BRANCH  28  30
ATOM     30  O   UNL     1       4.351   2.470  11.106  0.00  0.00    +0.000 OA
BRANCH  30  32
ATOM     31  C   UNL     1       2.883   3.709   9.693  0.00  0.00    +0.000 C 
ATOM     32  C   UNL     1       4.031   3.802  10.684  0.00  0.00    +0.000 C 
ENDBRANCH  30  32
ENDBRANCH  28  30
ENDBRANCH  22  28
ENDBRANCH  18  26
ENDBRANCH   1  19
TORSDOF 7
ENDMDL
MODEL 2
REMARK VINA RESULT:      -8.8      2.793      9.489
REMARK  Name = 
REMARK  10 active torsions:
REMARK  status: ('A' for Active; 'I' for Inactive)
REMARK    1  A    between atoms: C_1  and  C_2
REMARK    2  A    between atoms: C_2  and  O_3
REMARK    3  A    between atoms: O_3  and  C_4
REMARK    4  A    between atoms: C_4  and  C_6
REMARK    5  A    between atoms: C_10  and  N_11
REMARK    6  A    between atoms: C_12  and  C_14
REMARK    7  A    between atoms: C_17  and  C_18
REMARK    8  A    between atoms: C_22  and  O_23
REMARK    9  A    between atoms: O_23  and  C_24
REMARK   10  A    between atoms: N_27  and  C_28
REMARK                            x       y       z     vdW  Elec       q    Type
REMARK                         _______ _______ _______ _____ _____    ______ ____
ROOT
ATOM      1  C   UNL     1       2.727   7.432  18.259  0.00  0.00    +0.000 A 
ATOM      2  C   UNL     1       3.623   6.972  17.281  0.00  0.00    +0.000 A 
ATOM      3  C   UNL     1       3.979   5.651  17.557  0.00  0.00    +0.000 A 
ATOM      4  C   UNL     1       4.756   4.632  16.982  0.00  0.00    +0.000 A 
ATOM      5  N   UNL     1       4.608   3.511  17.742  0.00  0.00    +0.000 NA
ATOM      6  N   UNL     1       3.768   3.873  18.749  0.00  0.00    +0.000 N 
ATOM      7  C   UNL     1       3.305   2.912  19.718  0.00  0.00    +0.000 C 
ATOM      8  C   UNL     1       3.393   5.160  18.652  0.00  0.00    +0.000 A 
ATOM      9  S   UNL     1       2.404   6.210  19.464  0.00  0.00    +0.000 S 
ENDROOT
BRANCH   4  10
ATOM     10  C   UNL     1       5.591   4.613  15.773  0.00  0.00    +0.000 A 
ATOM     11  C   UNL     1       6.762   5.389  15.719  0.00  0.00    +0.000 A 
ATOM     12  C   UNL     1       7.577   5.381  14.586  0.00  0.00    +0.000 A 
ATOM     13  C   UNL     1       7.225   4.600  13.487  0.00  0.00    +0.000 A 
ATOM     14  C   UNL     1       6.058   3.836  13.509  0.00  0.00    +0.000 A 
ATOM     15  C   UNL     1       5.244   3.847  14.648  0.00  0.00    +0.000 A 
BRANCH  14  16
ATOM     16  O   UNL     1       5.822   3.131  12.359  0.00  0.00    +0.000 OA
ATOM     17  C   UNL     1       4.548   3.296  11.750  0.00  0.00    +0.000 C 
ENDBRANCH  14  16
ENDBRANCH   4  10
BRANCH   1  19
ATOM     18  N   UNL     1       1.314   8.984  19.439  0.00  0.00    +0.000 N 
ATOM     19  C   UNL     1       2.061   8.733  18.296  0.00  0.00    +0.000 C 
ATOM     20  O   UNL     1       2.196   9.529  17.373  0.00  0.00    +0.000 OA
ATOM     21  H   UNL     1       1.405   8.306  20.189  0.00  0.00    +0.000 HD
BRANCH  18  26
ATOM     22  C   UNL     1      -1.521  11.347  19.059  0.00  0.00    +0.000 A 
ATOM     23  C   UNL     1      -1.240  12.286  20.060  0.00  0.00    +0.000 A 
ATOM     24  C   UNL     1      -0.104  12.141  20.848  0.00  0.00    +0.000 A 
ATOM     25  C   UNL     1       0.746  11.053  20.655  0.00  0.00    +0.000 A 
ATOM     26  C   UNL     1       0.472  10.090  19.679  0.00  0.00    +0.000 A 
ATOM     27  C   UNL     1      -0.662  10.250  18.871  0.00  0.00    +0.000 A 
BRANCH  22  28
ATOM     28  C   UNL     1      -2.661  11.532  18.120  0.00  0.00    +0.000 C 
ATOM     29  O   UNL     1      -3.823  11.637  18.476  0.00  0.00    +0.000 OA
BRANCH  28  30
ATOM     30  O   UNL     1      -2.217  11.415  16.845  0.00  0.00    +0.000 OA
BRANCH  30  32
ATOM     31  C   UNL     1      -2.955   9.735  15.322  0.00  0.00    +0.000 C 
ATOM     32  C   UNL     1      -3.215  11.133  15.856  0.00  0.00    +0.000 C 
ENDBRANCH  30  32
ENDBRANCH  28  30
ENDBRANCH  22  28
ENDBRANCH  18  26
ENDBRANCH   1  19
TORSDOF 7
ENDMDL
MODEL 3
REMARK VINA RESULT:      -8.6      0.915      1.343
REMARK  Name = 
REMARK  10 active torsions:
REMARK  status: ('A' for Active; 'I' for Inactive)
REMARK    1  A    between atoms: C_1  and  C_2
REMARK    2  A    between atoms: C_2  and  O_3
REMARK    3  A    between atoms: O_3  and  C_4
REMARK    4  A    between atoms: C_4  and  C_6
REMARK    5  A    between atoms: C_10  and  N_11
REMARK    6  A    between atoms: C_12  and  C_14
REMARK    7  A    between atoms: C_17  and  C_18
REMARK    8  A    between atoms: C_22  and  O_23
REMARK    9  A    between atoms: O_23  and  C_24
REMARK   10  A    between atoms: N_27  and  C_28
REMARK                            x       y       z     vdW  Elec       q    Type
REMARK                         _______ _______ _______ _____ _____    ______ ____
ROOT
ATOM      1  C   UNL     1       4.580   4.593  17.958  0.00  0.00    +0.000 A 
ATOM      2  C   UNL     1       3.865   5.752  18.298  0.00  0.00    +0.000 A 
ATOM      3  C   UNL     1       3.046   5.491  19.397  0.00  0.00    +0.000 A 
ATOM      4  C   UNL     1       2.157   6.188  20.232  0.00  0.00    +0.000 A 
ATOM      5  N   UNL     1       1.737   5.332  21.206  0.00  0.00    +0.000 NA
ATOM      6  N   UNL     1       2.362   4.154  20.937  0.00  0.00    +0.000 N 
ATOM      7  C   UNL     1       2.227   3.020  21.815  0.00  0.00    +0.000 C 
ATOM      8  C   UNL     1       3.143   4.237  19.846  0.00  0.00    +0.000 A 
ATOM      9  S   UNL     1       4.173   3.254  19.003  0.00  0.00    +0.000 S 
ENDROOT
BRANCH   4  10
ATOM     10  C   UNL     1       1.699   7.584  20.212  0.00  0.00    +0.000 A 
ATOM     11  C   UNL     1       1.004   8.109  21.316  0.00  0.00    +0.000 A 
ATOM     12  C   UNL     1       0.567   9.434  21.325  0.00  0.00    +0.000 A 
ATOM     13  C   UNL     1       0.813  10.250  20.223  0.00  0.00    +0.000 A 
ATOM     14  C   UNL     1       1.483   9.748  19.107  0.00  0.00    +0.000 A 
ATOM     15  C   UNL     1       1.921   8.417  19.103  0.00  0.00    +0.000 A 
BRANCH  14  16
ATOM     16  O   UNL     1       1.642  10.649  18.089  0.00  0.00    +0.000 OA
ATOM     17  C   UNL     1       1.712  12.023  18.450  0.00  0.00    +0.000 C 
ENDBRANCH  14  16
ENDBRANCH   4  10
BRANCH   1  19
ATOM     18  N   UNL     1       5.152   4.712  15.622  0.00  0.00    +0.000 N 
ATOM     19  C   UNL     1       5.596   4.464  16.914  0.00  0.00    +0.000 C 
ATOM     20  O   UNL     1       6.753   4.177  17.202  0.00  0.00    +0.000 OA
ATOM     21  H   UNL     1       4.211   5.083  15.537  0.00  0.00    +0.000 HD
BRANCH  18  26
ATOM     22  C   UNL     1       6.117   3.353  12.307  0.00  0.00    +0.000 A 
ATOM     23  C   UNL     1       7.280   4.083  12.032  0.00  0.00    +0.000 A 
ATOM     24  C   UNL     1       7.749   5.013  12.952  0.00  0.00    +0.000 A 
ATOM     25  C   UNL     1       7.054   5.233  14.141  0.00  0.00    +0.000 A 
ATOM     26  C   UNL     1       5.877   4.533  14.425  0.00  0.00    +0.000 A 
ATOM     27  C   UNL     1       5.418   3.580  13.505  0.00  0.00    +0.000 A 
BRANCH  22  28
ATOM     28  C   UNL     1       5.651   2.267  11.402  0.00  0.00    +0.000 C 
ATOM     29  O   UNL     1       6.390   1.438  10.900  0.00  0.00    +0.000 OA
BRANCH  28  30
ATOM     30  O   UNL     1       4.336   2.447  11.124  0.00  0.00    +0.000 OA
BRANCH  30  32
ATOM     31  C   UNL     1       2.999   3.746   9.637  0.00  0.00    +0.000 C 
ATOM     32  C   UNL     1       3.935   3.792  10.832  0.00  0.00    +0.000 C 
ENDBRANCH  30  32
ENDBRANCH  28  30
ENDBRANCH  22  28
ENDBRANCH  18  26
ENDBRANCH   1  19
TORSDOF 7
ENDMDL
MODEL 4
REMARK VINA RESULT:      -8.5      2.711      9.200
REMARK  Name = 
REMARK  10 active torsions:
REMARK  status: ('A' for Active; 'I' for Inactive)
REMARK    1  A    between atoms: C_1  and  C_2
REMARK    2  A    between atoms: C_2  and  O_3
REMARK    3  A    between atoms: O_3  and  C_4
REMARK    4  A    between atoms: C_4  and  C_6
REMARK    5  A    between atoms: C_10  and  N_11
REMARK    6  A    between atoms: C_12  and  C_14
REMARK    7  A    between atoms: C_17  and  C_18
REMARK    8  A    between atoms: C_22  and  O_23
REMARK    9  A    between atoms: O_23  and  C_24
REMARK   10  A    between atoms: N_27  and  C_28
REMARK                            x       y       z     vdW  Elec       q    Type
REMARK                         _______ _______ _______ _____ _____    ______ ____
ROOT
ATOM      1  C   UNL     1       2.318   6.910  19.828  0.00  0.00    +0.000 A 
ATOM      2  C   UNL     1       3.228   6.618  18.800  0.00  0.00    +0.000 A 
ATOM      3  C   UNL     1       3.643   5.290  18.907  0.00  0.00    +0.000 A 
ATOM      4  C   UNL     1       4.461   4.388  18.206  0.00  0.00    +0.000 A 
ATOM      5  N   UNL     1       4.368   3.175  18.819  0.00  0.00    +0.000 NA
ATOM      6  N   UNL     1       3.519   3.368  19.865  0.00  0.00    +0.000 N 
ATOM      7  C   UNL     1       3.105   2.274  20.704  0.00  0.00    +0.000 C 
ATOM      8  C   UNL     1       3.086   4.639  19.931  0.00  0.00    +0.000 A 
ATOM      9  S   UNL     1       2.057   5.533  20.869  0.00  0.00    +0.000 S 
ENDROOT
BRANCH   4  10
ATOM     10  C   UNL     1       5.289   4.559  17.005  0.00  0.00    +0.000 A 
ATOM     11  C   UNL     1       6.540   5.194  17.100  0.00  0.00    +0.000 A 
ATOM     12  C   UNL     1       7.348   5.360  15.976  0.00  0.00    +0.000 A 
ATOM     13  C   UNL     1       6.912   4.899  14.736  0.00  0.00    +0.000 A 
ATOM     14  C   UNL     1       5.666   4.283  14.611  0.00  0.00    +0.000 A 
ATOM     15  C   UNL     1       4.858   4.118  15.743  0.00  0.00    +0.000 A 
BRANCH  14  16
ATOM     16  O   UNL     1       5.353   3.894  13.336  0.00  0.00    +0.000 OA
ATOM     17  C   UNL     1       6.437   3.560  12.479  0.00  0.00    +0.000 C 
ENDBRANCH  14  16
ENDBRANCH   4  10
BRANCH   1  19
ATOM     18  N   UNL     1       1.324   8.886  18.874  0.00  0.00    +0.000 N 
ATOM     19  C   UNL     1       1.596   8.165  20.030  0.00  0.00    +0.000 C 
ATOM     20  O   UNL     1       1.251   8.513  21.154  0.00  0.00    +0.000 OA
ATOM     21  H   UNL     1       1.533   8.417  17.997  0.00  0.00    +0.000 HD
BRANCH  18  26
ATOM     22  C   UNL     1      -1.236  11.563  18.679  0.00  0.00    +0.000 A 
ATOM     23  C   UNL     1      -0.437  12.709  18.580  0.00  0.00    +0.000 A 
ATOM     24  C   UNL     1       0.948  12.590  18.563  0.00  0.00    +0.000 A 
ATOM     25  C   UNL     1       1.542  11.333  18.663  0.00  0.00    +0.000 A 
ATOM     26  C   UNL     1       0.765  10.177  18.788  0.00  0.00    +0.000 A 
ATOM     27  C   UNL     1      -0.632  10.299  18.782  0.00  0.00    +0.000 A 
BRANCH  22  28
ATOM     28  C   UNL     1      -2.719  11.641  18.582  0.00  0.00    +0.000 C 
ATOM     29  O   UNL     1      -3.409  12.355  19.290  0.00  0.00    +0.000 OA
BRANCH  28  30
ATOM     30  O   UNL     1      -3.163  10.705  17.707  0.00  0.00    +0.000 OA
BRANCH  30  32
ATOM     31  C   UNL     1      -3.026  10.752  15.327  0.00  0.00    +0.000 C 
ATOM     32  C   UNL     1      -3.825  11.202  16.538  0.00  0.00    +0.000 C 
ENDBRANCH  30  32
ENDBRANCH  28  30
ENDBRANCH  22  28
ENDBRANCH  18  26
ENDBRANCH   1  19
TORSDOF 7
ENDMDL
MODEL 5
REMARK VINA RESULT:      -8.5      3.024      9.468
REMARK  Name = 
REMARK  10 active torsions:
REMARK  status: ('A' for Active; 'I' for Inactive)
REMARK    1  A    between atoms: C_1  and  C_2
REMARK    2  A    between atoms: C_2  and  O_3
REMARK    3  A    between atoms: O_3  and  C_4
REMARK    4  A    between atoms: C_4  and  C_6
REMARK    5  A    between atoms: C_10  and  N_11
REMARK    6  A    between atoms: C_12  and  C_14
REMARK    7  A    between atoms: C_17  and  C_18
REMARK    8  A    between atoms: C_22  and  O_23
REMARK    9  A    between atoms: O_23  and  C_24
REMARK   10  A    between atoms: N_27  and  C_28
REMARK                            x       y       z     vdW  Elec       q    Type
REMARK                         _______ _______ _______ _____ _____    ______ ____
ROOT
ATOM      1  C   UNL     1       2.184   7.775  19.055  0.00  0.00    +0.000 A 
ATOM      2  C   UNL     1       3.146   7.206  18.205  0.00  0.00    +0.000 A 
ATOM      3  C   UNL     1       3.456   5.919  18.645  0.00  0.00    +0.000 A 
ATOM      4  C   UNL     1       4.258   4.838  18.242  0.00  0.00    +0.000 A 
ATOM      5  N   UNL     1       4.032   3.805  19.101  0.00  0.00    +0.000 NA
ATOM      6  N   UNL     1       3.122   4.278  19.996  0.00  0.00    +0.000 N 
ATOM      7  C   UNL     1       2.569   3.429  21.019  0.00  0.00    +0.000 C 
ATOM      8  C   UNL     1       2.778   5.551  19.735  0.00  0.00    +0.000 A 
ATOM      9  S   UNL     1       1.747   6.690  20.352  0.00  0.00    +0.000 S 
ENDROOT
BRANCH   4  10
ATOM     10  C   UNL     1       5.184   4.684  17.113  0.00  0.00    +0.000 A 
ATOM     11  C   UNL     1       6.570   4.801  17.322  0.00  0.00    +0.000 A 
ATOM     12  C   UNL     1       7.470   4.649  16.267  0.00  0.00    +0.000 A 
ATOM     13  C   UNL     1       6.995   4.387  14.984  0.00  0.00    +0.000 A 
ATOM     14  C   UNL     1       5.623   4.286  14.746  0.00  0.00    +0.000 A 
ATOM     15  C   UNL     1       4.723   4.438  15.809  0.00  0.00    +0.000 A 
BRANCH  14  16
ATOM     16  O   UNL     1       5.293   4.044  13.440  0.00  0.00    +0.000 OA
ATOM     17  C   UNL     1       6.270   3.398  12.636  0.00  0.00    +0.000 C 
ENDBRANCH  14  16
ENDBRANCH   4  10
BRANCH   1  19
ATOM     18  N   UNL     1       0.530   9.351  19.816  0.00  0.00    +0.000 N 
ATOM     19  C   UNL     1       1.541   9.079  18.903  0.00  0.00    +0.000 C 
ATOM     20  O   UNL     1       1.910   9.859  18.033  0.00  0.00    +0.000 OA
ATOM     21  H   UNL     1       0.423   8.684  20.574  0.00  0.00    +0.000 HD
BRANCH  18  26
ATOM     22  C   UNL     1      -2.283  11.573  18.860  0.00  0.00    +0.000 A 
ATOM     23  C   UNL     1      -2.092  12.656  19.727  0.00  0.00    +0.000 A 
ATOM     24  C   UNL     1      -1.023  12.654  20.615  0.00  0.00    +0.000 A 
ATOM     25  C   UNL     1      -0.151  11.566  20.657  0.00  0.00    +0.000 A 
ATOM     26  C   UNL     1      -0.337  10.462  19.819  0.00  0.00    +0.000 A 
ATOM     27  C   UNL     1      -1.404  10.477  18.909  0.00  0.00    +0.000 A 
BRANCH  22  28
ATOM     28  C   UNL     1      -3.344  11.592  17.817  0.00  0.00    +0.000 C 
ATOM     29  O   UNL     1      -4.530  11.746  18.058  0.00  0.00    +0.000 OA
BRANCH  28  30
ATOM     30  O   UNL     1      -2.802  11.269  16.617  0.00  0.00    +0.000 OA
BRANCH  30  32
ATOM     31  C   UNL     1      -3.318  10.233  14.532  0.00  0.00    +0.000 C 
ATOM     32  C   UNL     1      -3.250  10.037  16.037  0.00  0.00    +0.000 C 
ENDBRANCH  30  32
ENDBRANCH  28  30
ENDBRANCH  22  28
ENDBRANCH  18  26
ENDBRANCH   1  19
TORSDOF 7
ENDMDL
MODEL 6
REMARK VINA RESULT:      -8.4      4.364      7.056
REMARK  Name = 
REMARK  10 active torsions:
REMARK  status: ('A' for Active; 'I' for Inactive)
REMARK    1  A    between atoms: C_1  and  C_2
REMARK    2  A    between atoms: C_2  and  O_3
REMARK    3  A    between atoms: O_3  and  C_4
REMARK    4  A    between atoms: C_4  and  C_6
REMARK    5  A    between atoms: C_10  and  N_11
REMARK    6  A    between atoms: C_12  and  C_14
REMARK    7  A    between atoms: C_17  and  C_18
REMARK    8  A    between atoms: C_22  and  O_23
REMARK    9  A    between atoms: O_23  and  C_24
REMARK   10  A    between atoms: N_27  and  C_28
REMARK                            x       y       z     vdW  Elec       q    Type
REMARK                         _______ _______ _______ _____ _____    ______ ____
ROOT
ATOM      1  C   UNL     1       0.882   9.210  20.087  0.00  0.00    +0.000 A 
ATOM      2  C   UNL     1      -0.205   9.569  19.275  0.00  0.00    +0.000 A 
ATOM      3  C   UNL     1      -0.814  10.715  19.790  0.00  0.00    +0.000 A 
ATOM      4  C   UNL     1      -1.864  11.585  19.454  0.00  0.00    +0.000 A 
ATOM      5  N   UNL     1      -1.883  12.593  20.370  0.00  0.00    +0.000 NA
ATOM      6  N   UNL     1      -0.868  12.310  21.232  0.00  0.00    +0.000 N 
ATOM      7  C   UNL     1      -0.522  13.212  22.300  0.00  0.00    +0.000 C 
ATOM      8  C   UNL     1      -0.226  11.177  20.897  0.00  0.00    +0.000 A 
ATOM      9  S   UNL     1       1.063  10.296  21.442  0.00  0.00    +0.000 S 
ENDROOT
BRANCH   4  10
ATOM     10  C   UNL     1      -2.820  11.568  18.339  0.00  0.00    +0.000 A 
ATOM     11  C   UNL     1      -4.176  11.857  18.574  0.00  0.00    +0.000 A 
ATOM     12  C   UNL     1      -5.101  11.857  17.530  0.00  0.00    +0.000 A 
ATOM     13  C   UNL     1      -4.684  11.557  16.236  0.00  0.00    +0.000 A 
ATOM     14  C   UNL     1      -3.347  11.247  15.979  0.00  0.00    +0.000 A 
ATOM     15  C   UNL     1      -2.421  11.250  17.030  0.00  0.00    +0.000 A 
BRANCH  14  16
ATOM     16  O   UNL     1      -3.076  10.955  14.669  0.00  0.00    +0.000 OA
ATOM     17  C   UNL     1      -3.914   9.998  14.034  0.00  0.00    +0.000 C 
ENDBRANCH  14  16
ENDBRANCH   4  10
BRANCH   1  19
ATOM     18  N   UNL     1       2.194   7.919  18.533  0.00  0.00    +0.000 N 
ATOM     19  C   UNL     1       1.824   8.115  19.857  0.00  0.00    +0.000 C 
ATOM     20  O   UNL     1       2.252   7.453  20.796  0.00  0.00    +0.000 OA
ATOM     21  H   UNL     1       1.885   8.627  17.875  0.00  0.00    +0.000 HD
BRANCH  18  26
ATOM     22  C   UNL     1       3.216   4.477  17.600  0.00  0.00    +0.000 A 
ATOM     23  C   UNL     1       4.481   4.701  17.043  0.00  0.00    +0.000 A 
ATOM     24  C   UNL     1       4.998   5.990  16.992  0.00  0.00    +0.000 A 
ATOM     25  C   UNL     1       4.251   7.063  17.477  0.00  0.00    +0.000 A 
ATOM     26  C   UNL     1       2.975   6.866  18.015  0.00  0.00    +0.000 A 
ATOM     27  C   UNL     1       2.466   5.562  18.086  0.00  0.00    +0.000 A 
BRANCH  22  28
ATOM     28  C   UNL     1       2.680   3.100  17.780  0.00  0.00    +0.000 C 
ATOM     29  O   UNL     1       3.360   2.090  17.694  0.00  0.00    +0.000 OA
BRANCH  28  30
ATOM     30  O   UNL     1       1.331   3.154  17.901  0.00  0.00    +0.000 OA
BRANCH  30  32
ATOM     31  C   UNL     1       0.975   3.053  20.256  0.00  0.00    +0.000 C 
ATOM     32  C   UNL     1       0.760   2.340  18.932  0.00  0.00    +0.000 C 
ENDBRANCH  30  32
ENDBRANCH  28  30
ENDBRANCH  22  28
ENDBRANCH  18  26
ENDBRANCH   1  19
TORSDOF 7
ENDMDL
MODEL 7
REMARK VINA RESULT:      -8.3      3.288      9.842
REMARK  Name = 
REMARK  10 active torsions:
REMARK  status: ('A' for Active; 'I' for Inactive)
REMARK    1  A    between atoms: C_1  and  C_2
REMARK    2  A    between atoms: C_2  and  O_3
REMARK    3  A    between atoms: O_3  and  C_4
REMARK    4  A    between atoms: C_4  and  C_6
REMARK    5  A    between atoms: C_10  and  N_11
REMARK    6  A    between atoms: C_12  and  C_14
REMARK    7  A    between atoms: C_17  and  C_18
REMARK    8  A    between atoms: C_22  and  O_23
REMARK    9  A    between atoms: O_23  and  C_24
REMARK   10  A    between atoms: N_27  and  C_28
REMARK                            x       y       z     vdW  Elec       q    Type
REMARK                         _______ _______ _______ _____ _____    ______ ____
ROOT
ATOM      1  C   UNL     1       2.403   7.935  18.709  0.00  0.00    +0.000 A 
ATOM      2  C   UNL     1       3.332   7.363  17.825  0.00  0.00    +0.000 A 
ATOM      3  C   UNL     1       3.699   6.099  18.289  0.00  0.00    +0.000 A 
ATOM      4  C   UNL     1       4.506   5.025  17.877  0.00  0.00    +0.000 A 
ATOM      5  N   UNL     1       4.355   4.016  18.780  0.00  0.00    +0.000 NA
ATOM      6  N   UNL     1       3.484   4.497  19.708  0.00  0.00    +0.000 N 
ATOM      7  C   UNL     1       3.010   3.669  20.787  0.00  0.00    +0.000 C 
ATOM      8  C   UNL     1       3.092   5.752  19.426  0.00  0.00    +0.000 A 
ATOM      9  S   UNL     1       2.067   6.884  20.062  0.00  0.00    +0.000 S 
ENDROOT
BRANCH   4  10
ATOM     10  C   UNL     1       5.373   4.857  16.703  0.00  0.00    +0.000 A 
ATOM     11  C   UNL     1       6.730   5.217  16.777  0.00  0.00    +0.000 A 
ATOM     12  C   UNL     1       7.576   5.057  15.678  0.00  0.00    +0.000 A 
ATOM     13  C   UNL     1       7.072   4.542  14.487  0.00  0.00    +0.000 A 
ATOM     14  C   UNL     1       5.724   4.196  14.381  0.00  0.00    +0.000 A 
ATOM     15  C   UNL     1       4.879   4.357  15.487  0.00  0.00    +0.000 A 
BRANCH  14  16
ATOM     16  O   UNL     1       5.357   3.719  13.151  0.00  0.00    +0.000 OA
ATOM     17  C   UNL     1       6.400   3.481  12.215  0.00  0.00    +0.000 C 
ENDBRANCH  14  16
ENDBRANCH   4  10
BRANCH   1  19
ATOM     18  N   UNL     1       0.712   9.470  19.476  0.00  0.00    +0.000 N 
ATOM     19  C   UNL     1       1.717   9.217  18.551  0.00  0.00    +0.000 C 
ATOM     20  O   UNL     1       2.050   9.998  17.666  0.00  0.00    +0.000 OA
ATOM     21  H   UNL     1       0.637   8.810  20.244  0.00  0.00    +0.000 HD
BRANCH  18  26
ATOM     22  C   UNL     1      -2.279  11.512  18.671  0.00  0.00    +0.000 A 
ATOM     23  C   UNL     1      -2.021  12.684  19.393  0.00  0.00    +0.000 A 
ATOM     24  C   UNL     1      -0.849  12.800  20.132  0.00  0.00    +0.000 A 
ATOM     25  C   UNL     1       0.061  11.744  20.171  0.00  0.00    +0.000 A 
ATOM     26  C   UNL     1      -0.188  10.555  19.478  0.00  0.00    +0.000 A 
ATOM     27  C   UNL     1      -1.360  10.449  18.716  0.00  0.00    +0.000 A 
BRANCH  22  28
ATOM     28  C   UNL     1      -3.462  11.397  17.776  0.00  0.00    +0.000 C 
ATOM     29  O   UNL     1      -3.387  11.206  16.574  0.00  0.00    +0.000 OA
BRANCH  28  30
ATOM     30  O   UNL     1      -4.587  11.681  18.478  0.00  0.00    +0.000 OA
BRANCH  30  32
ATOM     31  C   UNL     1      -6.279  12.968  17.398  0.00  0.00    +0.000 C 
ATOM     32  C   UNL     1      -5.821  11.565  17.759  0.00  0.00    +0.000 C 
ENDBRANCH  30  32
ENDBRANCH  28  30
ENDBRANCH  22  28
ENDBRANCH  18  26
ENDBRANCH   1  19
TORSDOF 7
ENDMDL
MODEL 8
REMARK VINA RESULT:      -8.3      2.289      9.782
REMARK  Name = 
REMARK  10 active torsions:
REMARK  status: ('A' for Active; 'I' for Inactive)
REMARK    1  A    between atoms: C_1  and  C_2
REMARK    2  A    between atoms: C_2  and  O_3
REMARK    3  A    between atoms: O_3  and  C_4
REMARK    4  A    between atoms: C_4  and  C_6
REMARK    5  A    between atoms: C_10  and  N_11
REMARK    6  A    between atoms: C_12  and  C_14
REMARK    7  A    between atoms: C_17  and  C_18
REMARK    8  A    between atoms: C_22  and  O_23
REMARK    9  A    between atoms: O_23  and  C_24
REMARK   10  A    between atoms: N_27  and  C_28
REMARK                            x       y       z     vdW  Elec       q    Type
REMARK                         _______ _______ _______ _____ _____    ______ ____
ROOT
ATOM      1  C   UNL     1       2.300   6.887  19.607  0.00  0.00    +0.000 A 
ATOM      2  C   UNL     1       3.258   6.587  18.626  0.00  0.00    +0.000 A 
ATOM      3  C   UNL     1       3.540   5.221  18.651  0.00  0.00    +0.000 A 
ATOM      4  C   UNL     1       4.324   4.299  17.938  0.00  0.00    +0.000 A 
ATOM      5  N   UNL     1       4.072   3.057  18.439  0.00  0.00    +0.000 NA
ATOM      6  N   UNL     1       3.164   3.252  19.433  0.00  0.00    +0.000 N 
ATOM      7  C   UNL     1       2.587   2.142  20.146  0.00  0.00    +0.000 C 
ATOM      8  C   UNL     1       2.846   4.551  19.574  0.00  0.00    +0.000 A 
ATOM      9  S   UNL     1       1.832   5.466  20.508  0.00  0.00    +0.000 S 
ENDROOT
BRANCH   4  10
ATOM     10  C   UNL     1       5.257   4.480  16.817  0.00  0.00    +0.000 A 
ATOM     11  C   UNL     1       6.430   5.234  16.997  0.00  0.00    +0.000 A 
ATOM     12  C   UNL     1       7.337   5.412  15.951  0.00  0.00    +0.000 A 
ATOM     13  C   UNL     1       7.076   4.844  14.706  0.00  0.00    +0.000 A 
ATOM     14  C   UNL     1       5.909   4.108  14.496  0.00  0.00    +0.000 A 
ATOM     15  C   UNL     1       5.003   3.931  15.550  0.00  0.00    +0.000 A 
BRANCH  14  16
ATOM     16  O   UNL     1       5.768   3.621  13.225  0.00  0.00    +0.000 OA
ATOM     17  C   UNL     1       6.830   3.879  12.314  0.00  0.00    +0.000 C 
ENDBRANCH  14  16
ENDBRANCH   4  10
BRANCH   1  19
ATOM     18  N   UNL     1       0.938   8.273  21.031  0.00  0.00    +0.000 N 
ATOM     19  C   UNL     1       1.682   8.188  19.861  0.00  0.00    +0.000 C 
ATOM     20  O   UNL     1       1.850   9.121  19.083  0.00  0.00    +0.000 OA
ATOM     21  H   UNL     1       1.001   7.477  21.658  0.00  0.00    +0.000 HD
BRANCH  18  26
ATOM     22  C   UNL     1      -1.173  11.318  20.850  0.00  0.00    +0.000 A 
ATOM     23  C   UNL     1      -1.440  11.556  22.204  0.00  0.00    +0.000 A 
ATOM     24  C   UNL     1      -0.907  10.715  23.174  0.00  0.00    +0.000 A 
ATOM     25  C   UNL     1      -0.122   9.625  22.799  0.00  0.00    +0.000 A 
ATOM     26  C   UNL     1       0.137   9.353  21.452  0.00  0.00    +0.000 A 
ATOM     27  C   UNL     1      -0.384  10.216  20.477  0.00  0.00    +0.000 A 
BRANCH  22  28
ATOM     28  C   UNL     1      -1.627  12.262  19.792  0.00  0.00    +0.000 C 
ATOM     29  O   UNL     1      -1.406  13.461  19.813  0.00  0.00    +0.000 OA
BRANCH  28  30
ATOM     30  O   UNL     1      -2.427  11.605  18.916  0.00  0.00    +0.000 OA
BRANCH  30  32
ATOM     31  C   UNL     1      -2.704  10.522  16.810  0.00  0.00    +0.000 C 
ATOM     32  C   UNL     1      -2.041  11.678  17.538  0.00  0.00    +0.000 C 
ENDBRANCH  30  32
ENDBRANCH  28  30
ENDBRANCH  22  28
ENDBRANCH  18  26
ENDBRANCH   1  19
TORSDOF 7
ENDMDL
MODEL 9
REMARK VINA RESULT:      -8.2      3.232      9.419
REMARK  Name = 
REMARK  10 active torsions:
REMARK  status: ('A' for Active; 'I' for Inactive)
REMARK    1  A    between atoms: C_1  and  C_2
REMARK    2  A    between atoms: C_2  and  O_3
REMARK    3  A    between atoms: O_3  and  C_4
REMARK    4  A    between atoms: C_4  and  C_6
REMARK    5  A    between atoms: C_10  and  N_11
REMARK    6  A    between atoms: C_12  and  C_14
REMARK    7  A    between atoms: C_17  and  C_18
REMARK    8  A    between atoms: C_22  and  O_23
REMARK    9  A    between atoms: O_23  and  C_24
REMARK   10  A    between atoms: N_27  and  C_28
REMARK                            x       y       z     vdW  Elec       q    Type
REMARK                         _______ _______ _______ _____ _____    ______ ____
ROOT
ATOM      1  C   UNL     1       1.956   7.136  20.074  0.00  0.00    +0.000 A 
ATOM      2  C   UNL     1       2.980   6.831  19.163  0.00  0.00    +0.000 A 
ATOM      3  C   UNL     1       3.164   5.449  19.112  0.00  0.00    +0.000 A 
ATOM      4  C   UNL     1       3.948   4.521  18.407  0.00  0.00    +0.000 A 
ATOM      5  N   UNL     1       3.565   3.271  18.790  0.00  0.00    +0.000 NA
ATOM      6  N   UNL     1       2.583   3.466  19.711  0.00  0.00    +0.000 N 
ATOM      7  C   UNL     1       1.866   2.358  20.285  0.00  0.00    +0.000 C 
ATOM      8  C   UNL     1       2.342   4.773  19.918  0.00  0.00    +0.000 A 
ATOM      9  S   UNL     1       1.309   5.697  20.822  0.00  0.00    +0.000 S 
ENDROOT
BRANCH   4  10
ATOM     10  C   UNL     1       4.992   4.707  17.390  0.00  0.00    +0.000 A 
ATOM     11  C   UNL     1       5.098   3.801  16.320  0.00  0.00    +0.000 A 
ATOM     12  C   UNL     1       6.075   3.961  15.337  0.00  0.00    +0.000 A 
ATOM     13  C   UNL     1       6.967   5.028  15.417  0.00  0.00    +0.000 A 
ATOM     14  C   UNL     1       6.896   5.930  16.480  0.00  0.00    +0.000 A 
ATOM     15  C   UNL     1       5.913   5.765  17.463  0.00  0.00    +0.000 A 
BRANCH  14  16
ATOM     16  O   UNL     1       7.842   6.919  16.445  0.00  0.00    +0.000 OA
ATOM     17  C   UNL     1       7.781   7.906  17.467  0.00  0.00    +0.000 C 
ENDBRANCH  14  16
ENDBRANCH   4  10
BRANCH   1  19
ATOM     18  N   UNL     1       1.003   9.192  19.258  0.00  0.00    +0.000 N 
ATOM     19  C   UNL     1       1.407   8.459  20.366  0.00  0.00    +0.000 C 
ATOM     20  O   UNL     1       1.305   8.850  21.524  0.00  0.00    +0.000 OA
ATOM     21  H   UNL     1       1.004   8.697  18.372  0.00  0.00    +0.000 HD
BRANCH  18  26
ATOM     22  C   UNL     1      -1.273  12.113  19.475  0.00  0.00    +0.000 A 
ATOM     23  C   UNL     1      -0.403  13.170  19.180  0.00  0.00    +0.000 A 
ATOM     24  C   UNL     1       0.932  12.910  18.895  0.00  0.00    +0.000 A 
ATOM     25  C   UNL     1       1.411  11.600  18.920  0.00  0.00    +0.000 A 
ATOM     26  C   UNL     1       0.566  10.532  19.237  0.00  0.00    +0.000 A 
ATOM     27  C   UNL     1      -0.786  10.795  19.503  0.00  0.00    +0.000 A 
BRANCH  22  28
ATOM     28  C   UNL     1      -2.731  12.340  19.670  0.00  0.00    +0.000 C 
ATOM     29  O   UNL     1      -3.199  13.010  20.576  0.00  0.00    +0.000 OA
BRANCH  28  30
ATOM     30  O   UNL     1      -3.426  11.579  18.789  0.00  0.00    +0.000 OA
BRANCH  30  32
ATOM     31  C   UNL     1      -5.055  11.767  17.058  0.00  0.00    +0.000 C 
ATOM     32  C   UNL     1      -4.776  11.989  18.534  0.00  0.00    +0.000 C 
ENDBRANCH  30  32
ENDBRANCH  28  30
ENDBRANCH  22  28
ENDBRANCH  18  26
ENDBRANCH   1  19
TORSDOF 7
ENDMDL
