MODEL 1
REMARK VINA RESULT:      -8.7      0.000      0.000
REMARK  Name = 
REMARK  8 active torsions:
REMARK  status: ('A' for Active; 'I' for Inactive)
REMARK    1  A    between atoms: C_1  and  C_2
REMARK    2  A    between atoms: C_2  and  O_3
REMARK    3  A    between atoms: O_3  and  C_4
REMARK    4  A    between atoms: C_4  and  C_6
REMARK    5  A    between atoms: C_9  and  C_10
REMARK    6  A    between atoms: C_15  and  O_16
REMARK    7  A    between atoms: O_16  and  C_17
REMARK    8  A    between atoms: C_17  and  C_18
REMARK                            x       y       z     vdW  Elec       q    Type
REMARK                         _______ _______ _______ _____ _____    ______ ____
ROOT
ATOM      1  C   UNL     1       3.381   3.727  19.447  0.00  0.00    +0.000 A 
ATOM      2  C   UNL     1       3.672   2.646  20.309  0.00  0.00    +0.000 A 
ATOM      3  C   UNL     1       2.861   2.353  21.404  0.00  0.00    +0.000 A 
ATOM      4  C   UNL     1       1.744   3.131  21.659  0.00  0.00    +0.000 A 
ATOM      5  C   UNL     1       1.457   4.219  20.838  0.00  0.00    +0.000 A 
ATOM      6  C   UNL     1       2.285   4.561  19.747  0.00  0.00    +0.000 A 
ENDROOT
BRANCH   1  10
ATOM      7  C   UNL     1       6.121   4.411  16.249  0.00  0.00    +0.000 A 
ATOM      8  C   UNL     1       4.793   4.291  16.074  0.00  0.00    +0.000 A 
ATOM      9  N   UNL     1       3.858   4.091  17.064  0.00  0.00    +0.000 NA
ATOM     10  C   UNL     1       4.294   3.937  18.274  0.00  0.00    +0.000 A 
ATOM     11  N   UNL     1       5.648   3.985  18.558  0.00  0.00    +0.000 N 
ATOM     12  C   UNL     1       6.609   4.293  17.631  0.00  0.00    +0.000 A 
ATOM     13  O   UNL     1       7.772   4.477  17.976  0.00  0.00    +0.000 OA
ATOM     14  H   UNL     1       6.003   3.861  19.493  0.00  0.00    +0.000 HD
BRANCH   7  15
ATOM     15  C   UNL     1       6.963   4.555  15.052  0.00  0.00    +0.000 C 
ATOM     16  O   UNL     1       7.728   5.494  14.868  0.00  0.00    +0.000 OA
BRANCH  15  17
ATOM     17  O   UNL     1       6.656   3.607  14.133  0.00  0.00    +0.000 OA
BRANCH  17  19
ATOM     18  C   UNL     1       5.535   3.227  12.065  0.00  0.00    +0.000 C 
ATOM     19  C   UNL     1       6.588   4.059  12.774  0.00  0.00    +0.000 C 
ENDBRANCH  17  19
ENDBRANCH  15  17
ENDBRANCH   7  15
ENDBRANCH   1  10
BRANCH   6  20
ATOM     20  O   UNL     1       2.026   5.662  18.965  0.00  0.00    +0.000 OA
BRANCH  20  21
ATOM     21  C   UNL     1       2.726   6.859  19.345  0.00  0.00    +0.000 C 
BRANCH  21  22
ATOM     22  C   UNL     1       1.815   7.975  19.800  0.00  0.00    +0.000 A 
ATOM     23  C   UNL     1       1.497   9.007  18.900  0.00  0.00    +0.000 A 
ATOM     24  C   UNL     1       0.641  10.042  19.276  0.00  0.00    +0.000 A 
ATOM     25  C   UNL     1       0.079  10.046  20.551  0.00  0.00    +0.000 A 
ATOM     26  C   UNL     1       0.359   9.007  21.439  0.00  0.00    +0.000 A 
ATOM     27  C   UNL     1       1.217   7.972  21.063  0.00  0.00    +0.000 A 
ENDBRANCH  21  22
ENDBRANCH  20  21
ENDBRANCH   6  20
TORSDOF 7
ENDMDL
MODEL 2
REMARK VINA RESULT:      -8.6      0.745      1.216
REMARK  Name = 
REMARK  8 active torsions:
REMARK  status: ('A' for Active; 'I' for Inactive)
REMARK    1  A    between atoms: C_1  and  C_2
REMARK    2  A    between atoms: C_2  and  O_3
REMARK    3  A    between atoms: O_3  and  C_4
REMARK    4  A    between atoms: C_4  and  C_6
REMARK    5  A    between atoms: C_9  and  C_10
REMARK    6  A    between atoms: C_15  and  O_16
REMARK    7  A    between atoms: O_16  and  C_17
REMARK    8  A    between atoms: C_17  and  C_18
REMARK                            x       y       z     vdW  Elec       q    Type
REMARK                         _______ _______ _______ _____ _____    ______ ____
ROOT
ATOM      1  C   UNL     1       3.468   3.881  19.069  0.00  0.00    +0.000 A 
ATOM      2  C   UNL     1       3.074   2.568  19.413  0.00  0.00    +0.000 A 
ATOM      3  C   UNL     1       2.222   2.326  20.489  0.00  0.00    +0.000 A 
ATOM      4  C   UNL     1       1.745   3.386  21.241  0.00  0.00    +0.000 A 
ATOM      5  C   UNL     1       2.146   4.685  20.936  0.00  0.00    +0.000 A 
ATOM      6  C   UNL     1       3.040   4.954  19.876  0.00  0.00    +0.000 A 
ENDROOT
BRANCH   1  10
ATOM      7  C   UNL     1       6.142   4.434  15.790  0.00  0.00    +0.000 A 
ATOM      8  C   UNL     1       4.816   4.261  15.645  0.00  0.00    +0.000 A 
ATOM      9  N   UNL     1       3.902   4.099  16.661  0.00  0.00    +0.000 NA
ATOM     10  C   UNL     1       4.358   4.040  17.871  0.00  0.00    +0.000 A 
ATOM     11  N   UNL     1       5.714   4.149  18.130  0.00  0.00    +0.000 N 
ATOM     12  C   UNL     1       6.652   4.424  17.170  0.00  0.00    +0.000 A 
ATOM     13  O   UNL     1       7.813   4.667  17.483  0.00  0.00    +0.000 OA
ATOM     14  H   UNL     1       6.085   4.099  19.065  0.00  0.00    +0.000 HD
BRANCH   7  15
ATOM     15  C   UNL     1       6.963   4.523  14.573  0.00  0.00    +0.000 C 
ATOM     16  O   UNL     1       7.675   5.483  14.303  0.00  0.00    +0.000 OA
BRANCH  15  17
ATOM     17  O   UNL     1       6.696   3.489  13.739  0.00  0.00    +0.000 OA
BRANCH  17  19
ATOM     18  C   UNL     1       5.134   3.240  11.956  0.00  0.00    +0.000 C 
ATOM     19  C   UNL     1       6.465   3.842  12.368  0.00  0.00    +0.000 C 
ENDBRANCH  17  19
ENDBRANCH  15  17
ENDBRANCH   7  15
ENDBRANCH   1  10
BRANCH   6  20
ATOM     20  O   UNL     1       3.471   6.231  19.606  0.00  0.00    +0.000 OA
BRANCH  20  21
ATOM     21  C   UNL     1       2.791   6.888  18.522  0.00  0.00    +0.000 C 
BRANCH  21  22
ATOM     22  C   UNL     1       1.998   8.100  18.951  0.00  0.00    +0.000 A 
ATOM     23  C   UNL     1       1.599   8.215  20.295  0.00  0.00    +0.000 A 
ATOM     24  C   UNL     1       0.886   9.331  20.733  0.00  0.00    +0.000 A 
ATOM     25  C   UNL     1       0.581  10.353  19.836  0.00  0.00    +0.000 A 
ATOM     26  C   UNL     1       1.004  10.265  18.510  0.00  0.00    +0.000 A 
ATOM     27  C   UNL     1       1.717   9.148  18.070  0.00  0.00    +0.000 A 
ENDBRANCH  21  22
ENDBRANCH  20  21
ENDBRANCH   6  20
TORSDOF 7
ENDMDL
MODEL 3
REMARK VINA RESULT:      -8.5      1.575      4.527
REMARK  Name = 
REMARK  8 active torsions:
REMARK  status: ('A' for Active; 'I' for Inactive)
REMARK    1  A    between atoms: C_1  and  C_2
REMARK    2  A    between atoms: C_2  and  O_3
REMARK    3  A    between atoms: O_3  and  C_4
REMARK    4  A    between atoms: C_4  and  C_6
REMARK    5  A    between atoms: C_9  and  C_10
REMARK    6  A    between atoms: C_15  and  O_16
REMARK    7  A    between atoms: O_16  and  C_17
REMARK    8  A    between atoms: C_17  and  C_18
REMARK                            x       y       z     vdW  Elec       q    Type
REMARK                         _______ _______ _______ _____ _____    ______ ____
ROOT
ATOM      1  C   UNL     1       2.679   7.670  18.430  0.00  0.00    +0.000 A 
ATOM      2  C   UNL     1       2.153   8.722  17.647  0.00  0.00    +0.000 A 
ATOM      3  C   UNL     1       1.217   9.615  18.167  0.00  0.00    +0.000 A 
ATOM      4  C   UNL     1       0.789   9.477  19.476  0.00  0.00    +0.000 A 
ATOM      5  C   UNL     1       1.274   8.429  20.255  0.00  0.00    +0.000 A 
ATOM      6  C   UNL     1       2.192   7.488  19.740  0.00  0.00    +0.000 A 
ENDROOT
BRANCH   1  10
ATOM      7  C   UNL     1       5.709   5.334  16.543  0.00  0.00    +0.000 A 
ATOM      8  C   UNL     1       4.476   4.871  16.811  0.00  0.00    +0.000 A 
ATOM      9  N   UNL     1       3.451   5.579  17.396  0.00  0.00    +0.000 NA
ATOM     10  C   UNL     1       3.709   6.785  17.791  0.00  0.00    +0.000 A 
ATOM     11  N   UNL     1       4.965   7.342  17.616  0.00  0.00    +0.000 N 
ATOM     12  C   UNL     1       5.983   6.723  16.940  0.00  0.00    +0.000 A 
ATOM     13  O   UNL     1       7.018   7.329  16.680  0.00  0.00    +0.000 OA
ATOM     14  H   UNL     1       5.183   8.276  17.923  0.00  0.00    +0.000 HD
BRANCH   7  15
ATOM     15  C   UNL     1       6.688   4.397  15.972  0.00  0.00    +0.000 C 
ATOM     16  O   UNL     1       7.859   4.335  16.329  0.00  0.00    +0.000 OA
BRANCH  15  17
ATOM     17  O   UNL     1       6.161   3.744  14.907  0.00  0.00    +0.000 OA
BRANCH  17  19
ATOM     18  C   UNL     1       5.863   3.408  12.567  0.00  0.00    +0.000 C 
ATOM     19  C   UNL     1       6.674   4.133  13.625  0.00  0.00    +0.000 C 
ENDBRANCH  17  19
ENDBRANCH  15  17
ENDBRANCH   7  15
ENDBRANCH   1  10
BRANCH   6  20
ATOM     20  O   UNL     1       2.634   6.427  20.495  0.00  0.00    +0.000 OA
BRANCH  20  21
ATOM     21  C   UNL     1       1.681   5.365  20.674  0.00  0.00    +0.000 C 
BRANCH  21  22
ATOM     22  C   UNL     1       2.078   4.075  19.996  0.00  0.00    +0.000 A 
ATOM     23  C   UNL     1       1.167   3.454  19.123  0.00  0.00    +0.000 A 
ATOM     24  C   UNL     1       1.506   2.273  18.461  0.00  0.00    +0.000 A 
ATOM     25  C   UNL     1       2.767   1.712  18.650  0.00  0.00    +0.000 A 
ATOM     26  C   UNL     1       3.691   2.340  19.486  0.00  0.00    +0.000 A 
ATOM     27  C   UNL     1       3.352   3.521  20.149  0.00  0.00    +0.000 A 
ENDBRANCH  21  22
ENDBRANCH  20  21
ENDBRANCH   6  20
TORSDOF 7
ENDMDL
MODEL 4
REMARK VINA RESULT:      -8.5      1.532      4.565
REMARK  Name = 
REMARK  8 active torsions:
REMARK  status: ('A' for Active; 'I' for Inactive)
REMARK    1  A    between atoms: C_1  and  C_2
REMARK    2  A    between atoms: C_2  and  O_3
REMARK    3  A    between atoms: O_3  and  C_4
REMARK    4  A    between atoms: C_4  and  C_6
REMARK    5  A    between atoms: C_9  and  C_10
REMARK    6  A    between atoms: C_15  and  O_16
REMARK    7  A    between atoms: O_16  and  C_17
REMARK    8  A    between atoms: C_17  and  C_18
REMARK                            x       y       z     vdW  Elec       q    Type
REMARK                         _______ _______ _______ _____ _____    ______ ____
ROOT
ATOM      1  C   UNL     1       2.458   7.432  19.256  0.00  0.00    +0.000 A 
ATOM      2  C   UNL     1       2.073   8.653  18.659  0.00  0.00    +0.000 A 
ATOM      3  C   UNL     1       1.100   9.467  19.236  0.00  0.00    +0.000 A 
ATOM      4  C   UNL     1       0.494   9.080  20.419  0.00  0.00    +0.000 A 
ATOM      5  C   UNL     1       0.838   7.865  21.008  0.00  0.00    +0.000 A 
ATOM      6  C   UNL     1       1.791   7.004  20.422  0.00  0.00    +0.000 A 
ENDROOT
BRANCH   1  10
ATOM      7  C   UNL     1       5.659   5.221  17.504  0.00  0.00    +0.000 A 
ATOM      8  C   UNL     1       4.715   5.854  16.785  0.00  0.00    +0.000 A 
ATOM      9  N   UNL     1       3.672   6.598  17.290  0.00  0.00    +0.000 NA
ATOM     10  C   UNL     1       3.541   6.645  18.577  0.00  0.00    +0.000 A 
ATOM     11  N   UNL     1       4.425   5.983  19.411  0.00  0.00    +0.000 N 
ATOM     12  C   UNL     1       5.542   5.324  18.966  0.00  0.00    +0.000 A 
ATOM     13  O   UNL     1       6.371   4.894  19.762  0.00  0.00    +0.000 OA
ATOM     14  H   UNL     1       4.334   6.005  20.414  0.00  0.00    +0.000 HD
BRANCH   7  15
ATOM     15  C   UNL     1       6.656   4.420  16.778  0.00  0.00    +0.000 C 
ATOM     16  O   UNL     1       7.864   4.510  16.961  0.00  0.00    +0.000 OA
BRANCH  15  17
ATOM     17  O   UNL     1       6.067   3.705  15.789  0.00  0.00    +0.000 OA
BRANCH  17  19
ATOM     18  C   UNL     1       5.405   4.011  13.520  0.00  0.00    +0.000 C 
ATOM     19  C   UNL     1       6.586   3.926  14.470  0.00  0.00    +0.000 C 
ENDBRANCH  17  19
ENDBRANCH  15  17
ENDBRANCH   7  15
ENDBRANCH   1  10
BRANCH   6  20
ATOM     20  O   UNL     1       2.097   5.785  20.979  0.00  0.00    +0.000 OA
BRANCH  20  21
ATOM     21  C   UNL     1       1.286   4.687  20.528  0.00  0.00    +0.000 C 
BRANCH  21  22
ATOM     22  C   UNL     1       2.012   3.738  19.603  0.00  0.00    +0.000 A 
ATOM     23  C   UNL     1       2.978   2.867  20.138  0.00  0.00    +0.000 A 
ATOM     24  C   UNL     1       3.652   1.961  19.319  0.00  0.00    +0.000 A 
ATOM     25  C   UNL     1       3.354   1.904  17.959  0.00  0.00    +0.000 A 
ATOM     26  C   UNL     1       2.372   2.738  17.425  0.00  0.00    +0.000 A 
ATOM     27  C   UNL     1       1.697   3.646  18.244  0.00  0.00    +0.000 A 
ENDBRANCH  21  22
ENDBRANCH  20  21
ENDBRANCH   6  20
TORSDOF 7
ENDMDL
MODEL 5
REMARK VINA RESULT:      -8.5      2.363      7.097
REMARK  Name = 
REMARK  8 active torsions:
REMARK  status: ('A' for Active; 'I' for Inactive)
REMARK    1  A    between atoms: C_1  and  C_2
REMARK    2  A    between atoms: C_2  and  O_3
REMARK    3  A    between atoms: O_3  and  C_4
REMARK    4  A    between atoms: C_4  and  C_6
REMARK    5  A    between atoms: C_9  and  C_10
REMARK    6  A    between atoms: C_15  and  O_16
REMARK    7  A    between atoms: O_16  and  C_17
REMARK    8  A    between atoms: C_17  and  C_18
REMARK                            x       y       z     vdW  Elec       q    Type
REMARK                         _______ _______ _______ _____ _____    ______ ____
ROOT
ATOM      1  C   UNL     1       4.803   5.715  17.320  0.00  0.00    +0.000 A 
ATOM      2  C   UNL     1       6.100   6.269  17.246  0.00  0.00    +0.000 A 
ATOM      3  C   UNL     1       7.121   5.634  16.541  0.00  0.00    +0.000 A 
ATOM      4  C   UNL     1       6.868   4.435  15.896  0.00  0.00    +0.000 A 
ATOM      5  C   UNL     1       5.603   3.857  15.983  0.00  0.00    +0.000 A 
ATOM      6  C   UNL     1       4.564   4.461  16.724  0.00  0.00    +0.000 A 
ENDROOT
BRANCH   1  10
ATOM      7  C   UNL     1       1.908   8.108  19.344  0.00  0.00    +0.000 A 
ATOM      8  C   UNL     1       2.413   6.969  19.850  0.00  0.00    +0.000 A 
ATOM      9  N   UNL     1       3.361   6.167  19.258  0.00  0.00    +0.000 NA
ATOM     10  C   UNL     1       3.763   6.495  18.072  0.00  0.00    +0.000 A 
ATOM     11  N   UNL     1       3.266   7.617  17.433  0.00  0.00    +0.000 N 
ATOM     12  C   UNL     1       2.409   8.510  18.021  0.00  0.00    +0.000 A 
ATOM     13  O   UNL     1       2.129   9.567  17.464  0.00  0.00    +0.000 OA
ATOM     14  H   UNL     1       3.564   7.883  16.508  0.00  0.00    +0.000 HD
BRANCH   7  15
ATOM     15  C   UNL     1       0.849   8.790  20.104  0.00  0.00    +0.000 C 
ATOM     16  O   UNL     1       0.211   9.743  19.673  0.00  0.00    +0.000 OA
BRANCH  15  17
ATOM     17  O   UNL     1       0.799   8.327  21.376  0.00  0.00    +0.000 OA
BRANCH  17  19
ATOM     18  C   UNL     1      -0.181   9.518  23.194  0.00  0.00    +0.000 C 
ATOM     19  C   UNL     1       1.092   9.290  22.399  0.00  0.00    +0.000 C 
ENDBRANCH  17  19
ENDBRANCH  15  17
ENDBRANCH   7  15
ENDBRANCH   1  10
BRANCH   6  20
ATOM     20  O   UNL     1       3.330   3.866  16.846  0.00  0.00    +0.000 OA
BRANCH  20  21
ATOM     21  C   UNL     1       3.308   2.658  17.624  0.00  0.00    +0.000 C 
BRANCH  21  22
ATOM     22  C   UNL     1       2.679   2.826  18.987  0.00  0.00    +0.000 A 
ATOM     23  C   UNL     1       1.317   3.166  19.073  0.00  0.00    +0.000 A 
ATOM     24  C   UNL     1       0.695   3.307  20.314  0.00  0.00    +0.000 A 
ATOM     25  C   UNL     1       1.424   3.090  21.481  0.00  0.00    +0.000 A 
ATOM     26  C   UNL     1       2.766   2.717  21.406  0.00  0.00    +0.000 A 
ATOM     27  C   UNL     1       3.389   2.577  20.165  0.00  0.00    +0.000 A 
ENDBRANCH  21  22
ENDBRANCH  20  21
ENDBRANCH   6  20
TORSDOF 7
ENDMDL
MODEL 6
REMARK VINA RESULT:      -8.4      2.382      7.179
REMARK  Name = 
REMARK  8 active torsions:
REMARK  status: ('A' for Active; 'I' for Inactive)
REMARK    1  A    between atoms: C_1  and  C_2
REMARK    2  A    between atoms: C_2  and  O_3
REMARK    3  A    between atoms: O_3  and  C_4
REMARK    4  A    between atoms: C_4  and  C_6
REMARK    5  A    between atoms: C_9  and  C_10
REMARK    6  A    between atoms: C_15  and  O_16
REMARK    7  A    between atoms: O_16  and  C_17
REMARK    8  A    between atoms: C_17  and  C_18
REMARK                            x       y       z     vdW  Elec       q    Type
REMARK                         _______ _______ _______ _____ _____    ______ ____
ROOT
ATOM      1  C   UNL     1       4.733   5.842  17.351  0.00  0.00    +0.000 A 
ATOM      2  C   UNL     1       6.031   6.395  17.276  0.00  0.00    +0.000 A 
ATOM      3  C   UNL     1       7.058   5.745  16.593  0.00  0.00    +0.000 A 
ATOM      4  C   UNL     1       6.810   4.533  15.972  0.00  0.00    +0.000 A 
ATOM      5  C   UNL     1       5.544   3.957  16.060  0.00  0.00    +0.000 A 
ATOM      6  C   UNL     1       4.498   4.576  16.779  0.00  0.00    +0.000 A 
ENDROOT
BRANCH   1  10
ATOM      7  C   UNL     1       1.829   8.280  19.308  0.00  0.00    +0.000 A 
ATOM      8  C   UNL     1       2.282   7.118  19.811  0.00  0.00    +0.000 A 
ATOM      9  N   UNL     1       3.229   6.299  19.240  0.00  0.00    +0.000 NA
ATOM     10  C   UNL     1       3.687   6.638  18.077  0.00  0.00    +0.000 A 
ATOM     11  N   UNL     1       3.247   7.786  17.441  0.00  0.00    +0.000 N 
ATOM     12  C   UNL     1       2.393   8.692  18.014  0.00  0.00    +0.000 A 
ATOM     13  O   UNL     1       2.165   9.767  17.467  0.00  0.00    +0.000 OA
ATOM     14  H   UNL     1       3.588   8.060  16.534  0.00  0.00    +0.000 HD
BRANCH   7  15
ATOM     15  C   UNL     1       0.761   8.978  20.039  0.00  0.00    +0.000 C 
ATOM     16  O   UNL     1      -0.046   9.732  19.508  0.00  0.00    +0.000 OA
BRANCH  15  17
ATOM     17  O   UNL     1       0.900   8.799  21.375  0.00  0.00    +0.000 OA
BRANCH  17  19
ATOM     18  C   UNL     1      -0.372   9.806  23.122  0.00  0.00    +0.000 C 
ATOM     19  C   UNL     1      -0.323   8.671  22.114  0.00  0.00    +0.000 C 
ENDBRANCH  17  19
ENDBRANCH  15  17
ENDBRANCH   7  15
ENDBRANCH   1  10
BRANCH   6  20
ATOM     20  O   UNL     1       3.264   3.984  16.903  0.00  0.00    +0.000 OA
BRANCH  20  21
ATOM     21  C   UNL     1       3.250   2.746  17.634  0.00  0.00    +0.000 C 
BRANCH  21  22
ATOM     22  C   UNL     1       2.577   2.845  18.983  0.00  0.00    +0.000 A 
ATOM     23  C   UNL     1       3.327   2.575  20.142  0.00  0.00    +0.000 A 
ATOM     24  C   UNL     1       2.747   2.679  21.406  0.00  0.00    +0.000 A 
ATOM     25  C   UNL     1       1.416   3.074  21.526  0.00  0.00    +0.000 A 
ATOM     26  C   UNL     1       0.675   3.379  20.385  0.00  0.00    +0.000 A 
ATOM     27  C   UNL     1       1.254   3.274  19.119  0.00  0.00    +0.000 A 
ENDBRANCH  21  22
ENDBRANCH  20  21
ENDBRANCH   6  20
TORSDOF 7
ENDMDL
MODEL 7
REMARK VINA RESULT:      -8.4      1.666      4.596
REMARK  Name = 
REMARK  8 active torsions:
REMARK  status: ('A' for Active; 'I' for Inactive)
REMARK    1  A    between atoms: C_1  and  C_2
REMARK    2  A    between atoms: C_2  and  O_3
REMARK    3  A    between atoms: O_3  and  C_4
REMARK    4  A    between atoms: C_4  and  C_6
REMARK    5  A    between atoms: C_9  and  C_10
REMARK    6  A    between atoms: C_15  and  O_16
REMARK    7  A    between atoms: O_16  and  C_17
REMARK    8  A    between atoms: C_17  and  C_18
REMARK                            x       y       z     vdW  Elec       q    Type
REMARK                         _______ _______ _______ _____ _____    ______ ____
ROOT
ATOM      1  C   UNL     1       2.722   7.734  18.360  0.00  0.00    +0.000 A 
ATOM      2  C   UNL     1       2.203   8.782  17.568  0.00  0.00    +0.000 A 
ATOM      3  C   UNL     1       1.243   9.662  18.068  0.00  0.00    +0.000 A 
ATOM      4  C   UNL     1       0.784   9.513  19.366  0.00  0.00    +0.000 A 
ATOM      5  C   UNL     1       1.263   8.468  20.153  0.00  0.00    +0.000 A 
ATOM      6  C   UNL     1       2.205   7.541  19.657  0.00  0.00    +0.000 A 
ENDROOT
BRANCH   1  10
ATOM      7  C   UNL     1       5.630   5.092  16.698  0.00  0.00    +0.000 A 
ATOM      8  C   UNL     1       5.858   6.397  16.924  0.00  0.00    +0.000 A 
ATOM      9  N   UNL     1       4.972   7.294  17.475  0.00  0.00    +0.000 NA
ATOM     10  C   UNL     1       3.780   6.865  17.744  0.00  0.00    +0.000 A 
ATOM     11  N   UNL     1       3.419   5.552  17.497  0.00  0.00    +0.000 N 
ATOM     12  C   UNL     1       4.294   4.593  17.057  0.00  0.00    +0.000 A 
ATOM     13  O   UNL     1       3.956   3.414  17.009  0.00  0.00    +0.000 OA
ATOM     14  H   UNL     1       2.494   5.204  17.695  0.00  0.00    +0.000 HD
BRANCH   7  15
ATOM     15  C   UNL     1       6.687   4.312  16.036  0.00  0.00    +0.000 C 
ATOM     16  O   UNL     1       7.867   4.352  16.363  0.00  0.00    +0.000 OA
BRANCH  15  17
ATOM     17  O   UNL     1       6.202   3.684  14.937  0.00  0.00    +0.000 OA
BRANCH  17  19
ATOM     18  C   UNL     1       6.009   3.408  12.577  0.00  0.00    +0.000 C 
ATOM     19  C   UNL     1       6.441   4.348  13.688  0.00  0.00    +0.000 C 
ENDBRANCH  17  19
ENDBRANCH  15  17
ENDBRANCH   7  15
ENDBRANCH   1  10
BRANCH   6  20
ATOM     20  O   UNL     1       2.642   6.483  20.419  0.00  0.00    +0.000 OA
BRANCH  20  21
ATOM     21  C   UNL     1       1.618   5.559  20.825  0.00  0.00    +0.000 C 
BRANCH  21  22
ATOM     22  C   UNL     1       1.752   4.192  20.197  0.00  0.00    +0.000 A 
ATOM     23  C   UNL     1       2.894   3.420  20.478  0.00  0.00    +0.000 A 
ATOM     24  C   UNL     1       3.042   2.143  19.935  0.00  0.00    +0.000 A 
ATOM     25  C   UNL     1       2.041   1.618  19.121  0.00  0.00    +0.000 A 
ATOM     26  C   UNL     1       0.888   2.361  18.866  0.00  0.00    +0.000 A 
ATOM     27  C   UNL     1       0.739   3.638  19.408  0.00  0.00    +0.000 A 
ENDBRANCH  21  22
ENDBRANCH  20  21
ENDBRANCH   6  20
TORSDOF 7
ENDMDL
MODEL 8
REMARK VINA RESULT:      -8.3      2.437      7.134
REMARK  Name = 
REMARK  8 active torsions:
REMARK  status: ('A' for Active; 'I' for Inactive)
REMARK    1  A    between atoms: C_1  and  C_2
REMARK    2  A    between atoms: C_2  and  O_3
REMARK    3  A    between atoms: O_3  and  C_4
REMARK    4  A    between atoms: C_4  and  C_6
REMARK    5  A    between atoms: C_9  and  C_10
REMARK    6  A    between atoms: C_15  and  O_16
REMARK    7  A    between atoms: O_16  and  C_17
REMARK    8  A    between atoms: C_17  and  C_18
REMARK                            x       y       z     vdW  Elec       q    Type
REMARK                         _______ _______ _______ _____ _____    ______ ____
ROOT
ATOM      1  C   UNL     1       4.677   6.009  17.429  0.00  0.00    +0.000 A 
ATOM      2  C   UNL     1       6.022   6.439  17.445  0.00  0.00    +0.000 A 
ATOM      3  C   UNL     1       7.039   5.661  16.894  0.00  0.00    +0.000 A 
ATOM      4  C   UNL     1       6.733   4.441  16.314  0.00  0.00    +0.000 A 
ATOM      5  C   UNL     1       5.417   3.986  16.315  0.00  0.00    +0.000 A 
ATOM      6  C   UNL     1       4.375   4.737  16.903  0.00  0.00    +0.000 A 
ENDROOT
BRANCH   1  10
ATOM      7  C   UNL     1       1.676   8.472  19.199  0.00  0.00    +0.000 A 
ATOM      8  C   UNL     1       2.308   8.781  18.052  0.00  0.00    +0.000 A 
ATOM      9  N   UNL     1       3.266   8.020  17.422  0.00  0.00    +0.000 NA
ATOM     10  C   UNL     1       3.651   6.935  18.014  0.00  0.00    +0.000 A 
ATOM     11  N   UNL     1       3.107   6.551  19.228  0.00  0.00    +0.000 N 
ATOM     12  C   UNL     1       2.074   7.210  19.841  0.00  0.00    +0.000 A 
ATOM     13  O   UNL     1       1.529   6.733  20.832  0.00  0.00    +0.000 OA
ATOM     14  H   UNL     1       3.400   5.714  19.705  0.00  0.00    +0.000 HD
BRANCH   7  15
ATOM     15  C   UNL     1       0.727   9.452  19.748  0.00  0.00    +0.000 C 
ATOM     16  O   UNL     1      -0.232   9.892  19.125  0.00  0.00    +0.000 OA
BRANCH  15  17
ATOM     17  O   UNL     1       1.151   9.906  20.953  0.00  0.00    +0.000 OA
BRANCH  17  19
ATOM     18  C   UNL     1      -0.108   9.415  22.916  0.00  0.00    +0.000 C 
ATOM     19  C   UNL     1       0.129  10.430  21.812  0.00  0.00    +0.000 C 
ENDBRANCH  17  19
ENDBRANCH  15  17
ENDBRANCH   7  15
ENDBRANCH   1  10
BRANCH   6  20
ATOM     20  O   UNL     1       3.084   4.265  16.943  0.00  0.00    +0.000 OA
BRANCH  20  21
ATOM     21  C   UNL     1       2.934   2.941  17.481  0.00  0.00    +0.000 C 
BRANCH  21  22
ATOM     22  C   UNL     1       2.480   2.920  18.922  0.00  0.00    +0.000 A 
ATOM     23  C   UNL     1       3.403   2.566  19.923  0.00  0.00    +0.000 A 
ATOM     24  C   UNL     1       3.027   2.558  21.267  0.00  0.00    +0.000 A 
ATOM     25  C   UNL     1       1.731   2.923  21.625  0.00  0.00    +0.000 A 
ATOM     26  C   UNL     1       0.820   3.310  20.643  0.00  0.00    +0.000 A 
ATOM     27  C   UNL     1       1.194   3.317  19.298  0.00  0.00    +0.000 A 
ENDBRANCH  21  22
ENDBRANCH  20  21
ENDBRANCH   6  20
TORSDOF 7
ENDMDL
MODEL 9
REMARK VINA RESULT:      -8.3      2.309      6.870
REMARK  Name = 
REMARK  8 active torsions:
REMARK  status: ('A' for Active; 'I' for Inactive)
REMARK    1  A    between atoms: C_1  and  C_2
REMARK    2  A    between atoms: C_2  and  O_3
REMARK    3  A    between atoms: O_3  and  C_4
REMARK    4  A    between atoms: C_4  and  C_6
REMARK    5  A    between atoms: C_9  and  C_10
REMARK    6  A    between atoms: C_15  and  O_16
REMARK    7  A    between atoms: O_16  and  C_17
REMARK    8  A    between atoms: C_17  and  C_18
REMARK                            x       y       z     vdW  Elec       q    Type
REMARK                         _______ _______ _______ _____ _____    ______ ____
ROOT
ATOM      1  C   UNL     1       4.889   5.837  17.072  0.00  0.00    +0.000 A 
ATOM      2  C   UNL     1       6.171   6.382  16.838  0.00  0.00    +0.000 A 
ATOM      3  C   UNL     1       7.160   5.653  16.179  0.00  0.00    +0.000 A 
ATOM      4  C   UNL     1       6.889   4.369  15.740  0.00  0.00    +0.000 A 
ATOM      5  C   UNL     1       5.641   3.803  15.988  0.00  0.00    +0.000 A 
ATOM      6  C   UNL     1       4.636   4.505  16.688  0.00  0.00    +0.000 A 
ENDROOT
BRANCH   1  10
ATOM      7  C   UNL     1       1.945   8.156  19.111  0.00  0.00    +0.000 A 
ATOM      8  C   UNL     1       2.544   8.552  17.974  0.00  0.00    +0.000 A 
ATOM      9  N   UNL     1       3.482   7.842  17.260  0.00  0.00    +0.000 NA
ATOM     10  C   UNL     1       3.882   6.715  17.756  0.00  0.00    +0.000 A 
ATOM     11  N   UNL     1       3.373   6.239  18.952  0.00  0.00    +0.000 N 
ATOM     12  C   UNL     1       2.358   6.848  19.643  0.00  0.00    +0.000 A 
ATOM     13  O   UNL     1       1.842   6.297  20.610  0.00  0.00    +0.000 OA
ATOM     14  H   UNL     1       3.678   5.367  19.355  0.00  0.00    +0.000 HD
BRANCH   7  15
ATOM     15  C   UNL     1       1.013   9.090  19.761  0.00  0.00    +0.000 C 
ATOM     16  O   UNL     1       0.696   9.020  20.943  0.00  0.00    +0.000 OA
BRANCH  15  17
ATOM     17  O   UNL     1       0.447   9.915  18.847  0.00  0.00    +0.000 OA
BRANCH  17  19
ATOM     18  C   UNL     1      -1.713  10.159  17.870  0.00  0.00    +0.000 C 
ATOM     19  C   UNL     1      -0.894  10.334  19.136  0.00  0.00    +0.000 C 
ENDBRANCH  17  19
ENDBRANCH  15  17
ENDBRANCH   7  15
ENDBRANCH   1  10
BRANCH   6  20
ATOM     20  O   UNL     1       3.421   3.928  16.972  0.00  0.00    +0.000 OA
BRANCH  20  21
ATOM     21  C   UNL     1       3.485   2.711  17.735  0.00  0.00    +0.000 C 
BRANCH  21  22
ATOM     22  C   UNL     1       2.690   2.757  19.018  0.00  0.00    +0.000 A 
ATOM     23  C   UNL     1       3.366   2.645  20.246  0.00  0.00    +0.000 A 
ATOM     24  C   UNL     1       2.668   2.706  21.452  0.00  0.00    +0.000 A 
ATOM     25  C   UNL     1       1.289   2.900  21.443  0.00  0.00    +0.000 A 
ATOM     26  C   UNL     1       0.613   3.048  20.232  0.00  0.00    +0.000 A 
ATOM     27  C   UNL     1       1.311   2.986  19.025  0.00  0.00    +0.000 A 
ENDBRANCH  21  22
ENDBRANCH  20  21
ENDBRANCH   6  20
TORSDOF 7
ENDMDL
