MODEL 1
REMARK VINA RESULT:      -6.4      0.000      0.000
REMARK  Name = 
REMARK  5 active torsions:
REMARK  status: ('A' for Active; 'I' for Inactive)
REMARK    1  A    between atoms: C_2  and  N_4
REMARK    2  A    between atoms: N_5  and  C_6
REMARK    3  A    between atoms: C_9  and  N_10
REMARK    4  A    between atoms: N_10  and  N_11
REMARK    5  A    between atoms: C_12  and  S_14
REMARK                            x       y       z     vdW  Elec       q    Type
REMARK                         _______ _______ _______ _____ _____    ______ ____
ROOT
ATOM      1  C   UNL     1       3.627   4.629  17.404  0.00  0.00    +0.000 A 
ATOM      2  C   UNL     1       3.782   5.993  17.672  0.00  0.00    +0.000 A 
ATOM      3  C   UNL     1       4.987   6.652  17.394  0.00  0.00    +0.000 A 
ATOM      4  C   UNL     1       6.080   5.953  16.870  0.00  0.00    +0.000 A 
ATOM      5  C   UNL     1       5.921   4.592  16.587  0.00  0.00    +0.000 A 
ATOM      6  C   UNL     1       4.717   3.934  16.867  0.00  0.00    +0.000 A 
ENDROOT
BRANCH   1   8
ATOM      7  N   UNL     1       2.415   3.445  18.819  0.00  0.00    +0.000 NA
ATOM      8  N   UNL     1       2.388   4.026  17.711  0.00  0.00    +0.000 NA
BRANCH   7  10
ATOM      9  N   UNL     1       0.873   1.853  18.336  0.00  0.00    +0.000 NA
ATOM     10  C   UNL     1       1.235   2.809  19.124  0.00  0.00    +0.000 C 
ATOM     11  N   UNL     1       0.444   3.154  20.179  0.00  0.00    +0.000 N 
ATOM     12  H   UNL     1       0.010   1.445  18.700  0.00  0.00    +0.000 HD
ATOM     13  H   UNL     1      -0.547   3.080  19.993  0.00  0.00    +0.000 HD
ATOM     14  H   UNL     1       0.699   4.066  20.541  0.00  0.00    +0.000 HD
ENDBRANCH   7  10
ENDBRANCH   1   8
BRANCH   4  15
ATOM     15  N   UNL     1       7.271   6.645  16.554  0.00  0.00    +0.000 N 
ATOM     16  H   UNL     1       7.588   6.458  15.599  0.00  0.00    +0.000 HD
BRANCH  15  17
ATOM     17  N   UNL     1       7.486   7.932  16.990  0.00  0.00    +0.000 N 
ATOM     18  C   UNL     1       8.204   8.216  18.119  0.00  0.00    +0.000 C 
ATOM     19  N   UNL     1       8.499   7.358  19.034  0.00  0.00    +0.000 NA
ATOM     20  H   UNL     1       7.456   8.657  16.279  0.00  0.00    +0.000 HD
ATOM     21  H   UNL     1       8.048   6.482  18.745  0.00  0.00    +0.000 HD
BRANCH  18  22
ATOM     22  S   UNL     1       8.767   9.854  18.314  0.00  0.00    +0.000 S 
ATOM     23  H   UNL     1       8.810   9.883  19.649  0.00  0.00    +0.000 HD
ENDBRANCH  18  22
ENDBRANCH  15  17
ENDBRANCH   4  15
TORSDOF 5
ENDMDL
MODEL 2
REMARK VINA RESULT:      -6.3      0.189      1.214
REMARK  Name = 
REMARK  5 active torsions:
REMARK  status: ('A' for Active; 'I' for Inactive)
REMARK    1  A    between atoms: C_2  and  N_4
REMARK    2  A    between atoms: N_5  and  C_6
REMARK    3  A    between atoms: C_9  and  N_10
REMARK    4  A    between atoms: N_10  and  N_11
REMARK    5  A    between atoms: C_12  and  S_14
REMARK                            x       y       z     vdW  Elec       q    Type
REMARK                         _______ _______ _______ _____ _____    ______ ____
ROOT
ATOM      1  C   UNL     1       3.561   4.587  17.474  0.00  0.00    +0.000 A 
ATOM      2  C   UNL     1       4.676   3.918  16.958  0.00  0.00    +0.000 A 
ATOM      3  C   UNL     1       5.850   4.612  16.637  0.00  0.00    +0.000 A 
ATOM      4  C   UNL     1       5.925   6.001  16.792  0.00  0.00    +0.000 A 
ATOM      5  C   UNL     1       4.816   6.669  17.322  0.00  0.00    +0.000 A 
ATOM      6  C   UNL     1       3.642   5.974  17.643  0.00  0.00    +0.000 A 
ENDROOT
BRANCH   1   8
ATOM      7  N   UNL     1       2.262   3.672  19.007  0.00  0.00    +0.000 NA
ATOM      8  N   UNL     1       2.409   3.828  17.775  0.00  0.00    +0.000 NA
BRANCH   7  10
ATOM      9  N   UNL     1       0.809   2.021  18.453  0.00  0.00    +0.000 NA
ATOM     10  C   UNL     1       1.174   2.897  19.328  0.00  0.00    +0.000 C 
ATOM     11  N   UNL     1       0.470   3.030  20.487  0.00  0.00    +0.000 N 
ATOM     12  H   UNL     1       0.022   1.493  18.834  0.00  0.00    +0.000 HD
ATOM     13  H   UNL     1      -0.526   2.890  20.384  0.00  0.00    +0.000 HD
ATOM     14  H   UNL     1       0.688   3.907  20.947  0.00  0.00    +0.000 HD
ENDBRANCH   7  10
ENDBRANCH   1   8
BRANCH   4  15
ATOM     15  N   UNL     1       7.133   6.676  16.505  0.00  0.00    +0.000 N 
ATOM     16  H   UNL     1       7.440   6.533  15.540  0.00  0.00    +0.000 HD
BRANCH  15  17
ATOM     17  N   UNL     1       7.388   7.930  17.009  0.00  0.00    +0.000 N 
ATOM     18  C   UNL     1       8.144   8.133  18.131  0.00  0.00    +0.000 C 
ATOM     19  N   UNL     1       8.447   7.216  18.985  0.00  0.00    +0.000 NA
ATOM     20  H   UNL     1       7.352   8.697  16.343  0.00  0.00    +0.000 HD
ATOM     21  H   UNL     1       7.970   6.368  18.658  0.00  0.00    +0.000 HD
BRANCH  18  22
ATOM     22  S   UNL     1       8.747   9.745  18.406  0.00  0.00    +0.000 S 
ATOM     23  H   UNL     1       9.614   9.800  17.390  0.00  0.00    +0.000 HD
ENDBRANCH  18  22
ENDBRANCH  15  17
ENDBRANCH   4  15
TORSDOF 5
ENDMDL
MODEL 3
REMARK VINA RESULT:      -6.3      3.449      7.401
REMARK  Name = 
REMARK  5 active torsions:
REMARK  status: ('A' for Active; 'I' for Inactive)
REMARK    1  A    between atoms: C_2  and  N_4
REMARK    2  A    between atoms: N_5  and  C_6
REMARK    3  A    between atoms: C_9  and  N_10
REMARK    4  A    between atoms: N_10  and  N_11
REMARK    5  A    between atoms: C_12  and  S_14
REMARK                            x       y       z     vdW  Elec       q    Type
REMARK                         _______ _______ _______ _____ _____    ______ ____
ROOT
ATOM      1  C   UNL     1       7.593   7.761  17.870  0.00  0.00    +0.000 A 
ATOM      2  C   UNL     1       8.183   6.867  18.770  0.00  0.00    +0.000 A 
ATOM      3  C   UNL     1       7.693   5.562  18.918  0.00  0.00    +0.000 A 
ATOM      4  C   UNL     1       6.576   5.131  18.194  0.00  0.00    +0.000 A 
ATOM      5  C   UNL     1       5.994   6.019  17.283  0.00  0.00    +0.000 A 
ATOM      6  C   UNL     1       6.485   7.323  17.135  0.00  0.00    +0.000 A 
ENDROOT
BRANCH   1   8
ATOM      7  N   UNL     1       8.815   9.360  18.778  0.00  0.00    +0.000 NA
ATOM      8  N   UNL     1       8.135   9.061  17.771  0.00  0.00    +0.000 NA
BRANCH   7  10
ATOM      9  N   UNL     1       8.825  11.419  17.829  0.00  0.00    +0.000 NA
ATOM     10  C   UNL     1       9.317  10.638  18.731  0.00  0.00    +0.000 C 
ATOM     11  N   UNL     1      10.302  11.091  19.556  0.00  0.00    +0.000 N 
ATOM     12  H   UNL     1       9.254  12.341  17.932  0.00  0.00    +0.000 HD
ATOM     13  H   UNL     1      10.952  11.727  19.113  0.00  0.00    +0.000 HD
ATOM     14  H   UNL     1      10.773  10.321  20.018  0.00  0.00    +0.000 HD
ENDBRANCH   7  10
ENDBRANCH   1   8
BRANCH   4  15
ATOM     15  N   UNL     1       6.126   3.797  18.325  0.00  0.00    +0.000 N 
ATOM     16  H   UNL     1       6.745   3.233  18.911  0.00  0.00    +0.000 HD
BRANCH  15  17
ATOM     17  N   UNL     1       4.788   3.505  18.454  0.00  0.00    +0.000 N 
ATOM     18  C   UNL     1       4.301   2.716  19.460  0.00  0.00    +0.000 C 
ATOM     19  N   UNL     1       5.022   1.942  20.197  0.00  0.00    +0.000 NA
ATOM     20  H   UNL     1       4.141   4.179  18.055  0.00  0.00    +0.000 HD
ATOM     21  H   UNL     1       5.977   2.026  19.831  0.00  0.00    +0.000 HD
BRANCH  18  22
ATOM     22  S   UNL     1       2.586   2.783  19.767  0.00  0.00    +0.000 S 
ATOM     23  H   UNL     1       2.610   3.636  20.795  0.00  0.00    +0.000 HD
ENDBRANCH  18  22
ENDBRANCH  15  17
ENDBRANCH   4  15
TORSDOF 5
ENDMDL
MODEL 4
REMARK VINA RESULT:      -6.3      1.116      1.291
REMARK  Name = 
REMARK  5 active torsions:
REMARK  status: ('A' for Active; 'I' for Inactive)
REMARK    1  A    between atoms: C_2  and  N_4
REMARK    2  A    between atoms: N_5  and  C_6
REMARK    3  A    between atoms: C_9  and  N_10
REMARK    4  A    between atoms: N_10  and  N_11
REMARK    5  A    between atoms: C_12  and  S_14
REMARK                            x       y       z     vdW  Elec       q    Type
REMARK                         _______ _______ _______ _____ _____    ______ ____
ROOT
ATOM      1  C   UNL     1       3.726   4.529  18.513  0.00  0.00    +0.000 A 
ATOM      2  C   UNL     1       3.495   5.681  17.754  0.00  0.00    +0.000 A 
ATOM      3  C   UNL     1       4.557   6.392  17.178  0.00  0.00    +0.000 A 
ATOM      4  C   UNL     1       5.881   5.985  17.378  0.00  0.00    +0.000 A 
ATOM      5  C   UNL     1       6.112   4.824  18.124  0.00  0.00    +0.000 A 
ATOM      6  C   UNL     1       5.050   4.115  18.699  0.00  0.00    +0.000 A 
ENDROOT
BRANCH   1   8
ATOM      7  N   UNL     1       2.672   3.811  20.315  0.00  0.00    +0.000 NA
ATOM      8  N   UNL     1       2.611   3.862  19.067  0.00  0.00    +0.000 NA
BRANCH   7  10
ATOM      9  N   UNL     1       0.530   3.078  20.196  0.00  0.00    +0.000 NA
ATOM     10  C   UNL     1       1.623   3.126  20.881  0.00  0.00    +0.000 C 
ATOM     11  N   UNL     1       1.682   2.538  22.108  0.00  0.00    +0.000 N 
ATOM     12  H   UNL     1      -0.146   2.509  20.710  0.00  0.00    +0.000 HD
ATOM     13  H   UNL     1       0.822   2.598  22.636  0.00  0.00    +0.000 HD
ATOM     14  H   UNL     1       2.480   2.874  22.635  0.00  0.00    +0.000 HD
ENDBRANCH   7  10
ENDBRANCH   1   8
BRANCH   4  15
ATOM     15  N   UNL     1       6.934   6.689  16.750  0.00  0.00    +0.000 N 
ATOM     16  H   UNL     1       6.981   6.505  15.745  0.00  0.00    +0.000 HD
BRANCH  15  17
ATOM     17  N   UNL     1       7.247   7.978  17.114  0.00  0.00    +0.000 N 
ATOM     18  C   UNL     1       8.131   8.265  18.119  0.00  0.00    +0.000 C 
ATOM     19  N   UNL     1       8.531   7.420  19.005  0.00  0.00    +0.000 NA
ATOM     20  H   UNL     1       7.134   8.687  16.395  0.00  0.00    +0.000 HD
ATOM     21  H   UNL     1       8.018   6.552  18.809  0.00  0.00    +0.000 HD
BRANCH  18  22
ATOM     22  S   UNL     1       8.763   9.888  18.184  0.00  0.00    +0.000 S 
ATOM     23  H   UNL     1       7.600  10.546  18.181  0.00  0.00    +0.000 HD
ENDBRANCH  18  22
ENDBRANCH  15  17
ENDBRANCH   4  15
TORSDOF 5
ENDMDL
MODEL 5
REMARK VINA RESULT:      -6.3      3.600      6.561
REMARK  Name = 
REMARK  5 active torsions:
REMARK  status: ('A' for Active; 'I' for Inactive)
REMARK    1  A    between atoms: C_2  and  N_4
REMARK    2  A    between atoms: N_5  and  C_6
REMARK    3  A    between atoms: C_9  and  N_10
REMARK    4  A    between atoms: N_10  and  N_11
REMARK    5  A    between atoms: C_12  and  S_14
REMARK                            x       y       z     vdW  Elec       q    Type
REMARK                         _______ _______ _______ _____ _____    ______ ____
ROOT
ATOM      1  C   UNL     1       6.739   5.536  16.389  0.00  0.00    +0.000 A 
ATOM      2  C   UNL     1       5.498   6.180  16.363  0.00  0.00    +0.000 A 
ATOM      3  C   UNL     1       4.652   6.165  17.480  0.00  0.00    +0.000 A 
ATOM      4  C   UNL     1       5.014   5.473  18.642  0.00  0.00    +0.000 A 
ATOM      5  C   UNL     1       6.262   4.841  18.674  0.00  0.00    +0.000 A 
ATOM      6  C   UNL     1       7.106   4.857  17.557  0.00  0.00    +0.000 A 
ENDROOT
BRANCH   1   8
ATOM      7  N   UNL     1       6.930   5.167  14.221  0.00  0.00    +0.000 NA
ATOM      8  N   UNL     1       7.541   5.588  15.228  0.00  0.00    +0.000 NA
BRANCH   7  10
ATOM      9  N   UNL     1       8.746   5.920  13.091  0.00  0.00    +0.000 NA
ATOM     10  C   UNL     1       7.701   5.162  13.083  0.00  0.00    +0.000 C 
ATOM     11  N   UNL     1       7.401   4.432  11.973  0.00  0.00    +0.000 N 
ATOM     12  H   UNL     1       9.244   5.790  12.209  0.00  0.00    +0.000 HD
ATOM     13  H   UNL     1       7.623   4.896  11.102  0.00  0.00    +0.000 HD
ATOM     14  H   UNL     1       6.441   4.106  12.000  0.00  0.00    +0.000 HD
ENDBRANCH   7  10
ENDBRANCH   1   8
BRANCH   4  15
ATOM     15  N   UNL     1       4.168   5.508  19.773  0.00  0.00    +0.000 N 
ATOM     16  H   UNL     1       4.196   6.411  20.253  0.00  0.00    +0.000 HD
BRANCH  15  17
ATOM     17  N   UNL     1       2.932   4.903  19.760  0.00  0.00    +0.000 N 
ATOM     18  C   UNL     1       2.742   3.610  20.164  0.00  0.00    +0.000 C 
ATOM     19  N   UNL     1       3.684   2.744  20.315  0.00  0.00    +0.000 NA
ATOM     20  H   UNL     1       2.129   5.522  19.830  0.00  0.00    +0.000 HD
ATOM     21  H   UNL     1       4.546   3.223  20.028  0.00  0.00    +0.000 HD
BRANCH  18  22
ATOM     22  S   UNL     1       1.106   3.116  20.512  0.00  0.00    +0.000 S 
ATOM     23  H   UNL     1       0.947   3.780  21.660  0.00  0.00    +0.000 HD
ENDBRANCH  18  22
ENDBRANCH  15  17
ENDBRANCH   4  15
TORSDOF 5
ENDMDL
MODEL 6
REMARK VINA RESULT:      -6.2      1.173      1.741
REMARK  Name = 
REMARK  5 active torsions:
REMARK  status: ('A' for Active; 'I' for Inactive)
REMARK    1  A    between atoms: C_2  and  N_4
REMARK    2  A    between atoms: N_5  and  C_6
REMARK    3  A    between atoms: C_9  and  N_10
REMARK    4  A    between atoms: N_10  and  N_11
REMARK    5  A    between atoms: C_12  and  S_14
REMARK                            x       y       z     vdW  Elec       q    Type
REMARK                         _______ _______ _______ _____ _____    ______ ____
ROOT
ATOM      1  C   UNL     1       4.097   4.455  18.677  0.00  0.00    +0.000 A 
ATOM      2  C   UNL     1       5.419   4.021  18.537  0.00  0.00    +0.000 A 
ATOM      3  C   UNL     1       6.371   4.805  17.872  0.00  0.00    +0.000 A 
ATOM      4  C   UNL     1       6.014   6.031  17.300  0.00  0.00    +0.000 A 
ATOM      5  C   UNL     1       4.695   6.474  17.453  0.00  0.00    +0.000 A 
ATOM      6  C   UNL     1       3.744   5.689  18.117  0.00  0.00    +0.000 A 
ENDROOT
BRANCH   1   8
ATOM      7  N   UNL     1       2.502   4.248  20.190  0.00  0.00    +0.000 NA
ATOM      8  N   UNL     1       3.187   3.615  19.356  0.00  0.00    +0.000 NA
BRANCH   7  10
ATOM      9  N   UNL     1       0.486   3.224  20.364  0.00  0.00    +0.000 NA
ATOM     10  C   UNL     1       1.639   3.447  20.899  0.00  0.00    +0.000 C 
ATOM     11  N   UNL     1       1.934   2.918  22.119  0.00  0.00    +0.000 N 
ATOM     12  H   UNL     1      -0.033   2.588  20.972  0.00  0.00    +0.000 HD
ATOM     13  H   UNL     1       1.148   2.879  22.754  0.00  0.00    +0.000 HD
ATOM     14  H   UNL     1       2.737   3.380  22.532  0.00  0.00    +0.000 HD
ENDBRANCH   7  10
ENDBRANCH   1   8
BRANCH   4  15
ATOM     15  N   UNL     1       6.999   6.828  16.674  0.00  0.00    +0.000 N 
ATOM     16  H   UNL     1       6.988   6.733  15.656  0.00  0.00    +0.000 HD
BRANCH  15  17
ATOM     17  N   UNL     1       7.290   8.093  17.130  0.00  0.00    +0.000 N 
ATOM     18  C   UNL     1       8.157   8.321  18.164  0.00  0.00    +0.000 C 
ATOM     19  N   UNL     1       8.557   7.421  18.995  0.00  0.00    +0.000 NA
ATOM     20  H   UNL     1       7.178   8.848  16.460  0.00  0.00    +0.000 HD
ATOM     21  H   UNL     1       8.058   6.563  18.733  0.00  0.00    +0.000 HD
BRANCH  18  22
ATOM     22  S   UNL     1       8.767   9.943  18.350  0.00  0.00    +0.000 S 
ATOM     23  H   UNL     1       9.551   9.977  17.269  0.00  0.00    +0.000 HD
ENDBRANCH  18  22
ENDBRANCH  15  17
ENDBRANCH   4  15
TORSDOF 5
ENDMDL
MODEL 7
REMARK VINA RESULT:      -6.1      3.498      6.348
REMARK  Name = 
REMARK  5 active torsions:
REMARK  status: ('A' for Active; 'I' for Inactive)
REMARK    1  A    between atoms: C_2  and  N_4
REMARK    2  A    between atoms: N_5  and  C_6
REMARK    3  A    between atoms: C_9  and  N_10
REMARK    4  A    between atoms: N_10  and  N_11
REMARK    5  A    between atoms: C_12  and  S_14
REMARK                            x       y       z     vdW  Elec       q    Type
REMARK                         _______ _______ _______ _____ _____    ______ ____
ROOT
ATOM      1  C   UNL     1       5.639   5.630  17.002  0.00  0.00    +0.000 A 
ATOM      2  C   UNL     1       4.477   6.392  16.841  0.00  0.00    +0.000 A 
ATOM      3  C   UNL     1       3.571   6.562  17.896  0.00  0.00    +0.000 A 
ATOM      4  C   UNL     1       3.790   5.943  19.133  0.00  0.00    +0.000 A 
ATOM      5  C   UNL     1       4.959   5.194  19.300  0.00  0.00    +0.000 A 
ATOM      6  C   UNL     1       5.863   5.024  18.244  0.00  0.00    +0.000 A 
ENDROOT
BRANCH   1   8
ATOM      7  N   UNL     1       5.986   4.835  14.972  0.00  0.00    +0.000 NA
ATOM      8  N   UNL     1       6.507   5.497  15.897  0.00  0.00    +0.000 NA
BRANCH   7  10
ATOM      9  N   UNL     1       7.782   5.506  13.761  0.00  0.00    +0.000 NA
ATOM     10  C   UNL     1       6.826   4.650  13.901  0.00  0.00    +0.000 C 
ATOM     11  N   UNL     1       6.678   3.645  12.993  0.00  0.00    +0.000 N 
ATOM     12  H   UNL     1       8.348   5.228  12.957  0.00  0.00    +0.000 HD
ATOM     13  H   UNL     1       6.906   3.909  12.044  0.00  0.00    +0.000 HD
ATOM     14  H   UNL     1       5.758   3.223  13.063  0.00  0.00    +0.000 HD
ENDBRANCH   7  10
ENDBRANCH   1   8
BRANCH   4  15
ATOM     15  N   UNL     1       2.888   6.165  20.198  0.00  0.00    +0.000 N 
ATOM     16  H   UNL     1       2.127   6.798  19.940  0.00  0.00    +0.000 HD
BRANCH  15  17
ATOM     17  N   UNL     1       2.524   5.147  21.049  0.00  0.00    +0.000 N 
ATOM     18  C   UNL     1       1.739   4.100  20.649  0.00  0.00    +0.000 C 
ATOM     19  N   UNL     1       1.030   4.085  19.573  0.00  0.00    +0.000 NA
ATOM     20  H   UNL     1       3.148   4.972  21.831  0.00  0.00    +0.000 HD
ATOM     21  H   UNL     1       1.157   5.011  19.148  0.00  0.00    +0.000 HD
BRANCH  18  22
ATOM     22  S   UNL     1       1.717   2.686  21.669  0.00  0.00    +0.000 S 
ATOM     23  H   UNL     1       1.252   3.260  22.781  0.00  0.00    +0.000 HD
ENDBRANCH  18  22
ENDBRANCH  15  17
ENDBRANCH   4  15
TORSDOF 5
ENDMDL
MODEL 8
REMARK VINA RESULT:      -6.1      3.601      6.580
REMARK  Name = 
REMARK  5 active torsions:
REMARK  status: ('A' for Active; 'I' for Inactive)
REMARK    1  A    between atoms: C_2  and  N_4
REMARK    2  A    between atoms: N_5  and  C_6
REMARK    3  A    between atoms: C_9  and  N_10
REMARK    4  A    between atoms: N_10  and  N_11
REMARK    5  A    between atoms: C_12  and  S_14
REMARK                            x       y       z     vdW  Elec       q    Type
REMARK                         _______ _______ _______ _____ _____    ______ ____
ROOT
ATOM      1  C   UNL     1       6.596   5.519  16.386  0.00  0.00    +0.000 A 
ATOM      2  C   UNL     1       7.126   5.287  17.660  0.00  0.00    +0.000 A 
ATOM      3  C   UNL     1       6.303   5.280  18.794  0.00  0.00    +0.000 A 
ATOM      4  C   UNL     1       4.932   5.540  18.685  0.00  0.00    +0.000 A 
ATOM      5  C   UNL     1       4.399   5.757  17.410  0.00  0.00    +0.000 A 
ATOM      6  C   UNL     1       5.223   5.765  16.277  0.00  0.00    +0.000 A 
ENDROOT
BRANCH   1   8
ATOM      7  N   UNL     1       6.888   5.273  14.212  0.00  0.00    +0.000 NA
ATOM      8  N   UNL     1       7.482   5.515  15.286  0.00  0.00    +0.000 NA
BRANCH   7  10
ATOM      9  N   UNL     1       7.396   4.412  12.176  0.00  0.00    +0.000 NA
ATOM     10  C   UNL     1       7.732   5.216  13.128  0.00  0.00    +0.000 C 
ATOM     11  N   UNL     1       8.886   5.934  13.035  0.00  0.00    +0.000 N 
ATOM     12  H   UNL     1       8.082   4.500  11.424  0.00  0.00    +0.000 HD
ATOM     13  H   UNL     1       9.642   5.441  12.579  0.00  0.00    +0.000 HD
ATOM     14  H   UNL     1       9.159   6.304  13.938  0.00  0.00    +0.000 HD
ENDBRANCH   7  10
ENDBRANCH   1   8
BRANCH   4  15
ATOM     15  N   UNL     1       4.112   5.483  19.835  0.00  0.00    +0.000 N 
ATOM     16  H   UNL     1       4.090   6.372  20.341  0.00  0.00    +0.000 HD
BRANCH  15  17
ATOM     17  N   UNL     1       2.922   4.794  19.830  0.00  0.00    +0.000 N 
ATOM     18  C   UNL     1       2.835   3.473  20.172  0.00  0.00    +0.000 C 
ATOM     19  N   UNL     1       3.840   2.669  20.247  0.00  0.00    +0.000 NA
ATOM     20  H   UNL     1       2.081   5.350  19.958  0.00  0.00    +0.000 HD
ATOM     21  H   UNL     1       4.656   3.221  19.958  0.00  0.00    +0.000 HD
BRANCH  18  22
ATOM     22  S   UNL     1       1.251   2.848  20.546  0.00  0.00    +0.000 S 
ATOM     23  H   UNL     1       1.193   1.901  19.605  0.00  0.00    +0.000 HD
ENDBRANCH  18  22
ENDBRANCH  15  17
ENDBRANCH   4  15
TORSDOF 5
ENDMDL
MODEL 9
REMARK VINA RESULT:      -6.1      6.090      7.615
REMARK  Name = 
REMARK  5 active torsions:
REMARK  status: ('A' for Active; 'I' for Inactive)
REMARK    1  A    between atoms: C_2  and  N_4
REMARK    2  A    between atoms: N_5  and  C_6
REMARK    3  A    between atoms: C_9  and  N_10
REMARK    4  A    between atoms: N_10  and  N_11
REMARK    5  A    between atoms: C_12  and  S_14
REMARK                            x       y       z     vdW  Elec       q    Type
REMARK                         _______ _______ _______ _____ _____    ______ ____
ROOT
ATOM      1  C   UNL     1       0.840   9.742  19.286  0.00  0.00    +0.000 A 
ATOM      2  C   UNL     1       0.844   9.142  20.550  0.00  0.00    +0.000 A 
ATOM      3  C   UNL     1       1.554   7.957  20.785  0.00  0.00    +0.000 A 
ATOM      4  C   UNL     1       2.252   7.324  19.750  0.00  0.00    +0.000 A 
ATOM      5  C   UNL     1       2.261   7.932  18.489  0.00  0.00    +0.000 A 
ATOM      6  C   UNL     1       1.550   9.115  18.255  0.00  0.00    +0.000 A 
ENDROOT
BRANCH   1   8
ATOM      7  N   UNL     1      -0.886  10.767  18.368  0.00  0.00    +0.000 NA
ATOM      8  N   UNL     1       0.102  10.934  19.117  0.00  0.00    +0.000 NA
BRANCH   7  10
ATOM      9  N   UNL     1      -1.004  12.846  17.471  0.00  0.00    +0.000 NA
ATOM     10  C   UNL     1      -1.599  11.921  18.148  0.00  0.00    +0.000 C 
ATOM     11  N   UNL     1      -2.858  12.132  18.622  0.00  0.00    +0.000 N 
ATOM     12  H   UNL     1      -1.656  13.623  17.348  0.00  0.00    +0.000 HD
ATOM     13  H   UNL     1      -3.036  13.083  18.916  0.00  0.00    +0.000 HD
ATOM     14  H   UNL     1      -3.093  11.458  19.343  0.00  0.00    +0.000 HD
ENDBRANCH   7  10
ENDBRANCH   1   8
BRANCH   4  15
ATOM     15  N   UNL     1       2.999   6.155  20.019  0.00  0.00    +0.000 N 
ATOM     16  H   UNL     1       4.001   6.343  20.101  0.00  0.00    +0.000 HD
BRANCH  15  17
ATOM     17  N   UNL     1       2.525   5.184  20.871  0.00  0.00    +0.000 N 
ATOM     18  C   UNL     1       1.806   4.107  20.431  0.00  0.00    +0.000 C 
ATOM     19  N   UNL     1       1.251   4.021  19.271  0.00  0.00    +0.000 NA
ATOM     20  H   UNL     1       3.036   5.063  21.740  0.00  0.00    +0.000 HD
ATOM     21  H   UNL     1       1.432   4.921  18.813  0.00  0.00    +0.000 HD
BRANCH  18  22
ATOM     22  S   UNL     1       1.649   2.755  21.521  0.00  0.00    +0.000 S 
ATOM     23  H   UNL     1       0.316   2.734  21.608  0.00  0.00    +0.000 HD
ENDBRANCH  18  22
ENDBRANCH  15  17
ENDBRANCH   4  15
TORSDOF 5
ENDMDL
