MODEL 1
REMARK VINA RESULT:      -7.7      0.000      0.000
REMARK  Name = 
REMARK  4 active torsions:
REMARK  status: ('A' for Active; 'I' for Inactive)
REMARK    1  A    between atoms: C_1  and  C_2
REMARK    2  A    between atoms: C_2  and  C_3
REMARK    3  A    between atoms: C_6  and  O_7
REMARK    4  A    between atoms: O_7  and  C_8
REMARK                            x       y       z     vdW  Elec       q    Type
REMARK                         _______ _______ _______ _____ _____    ______ ____
ROOT
ATOM      1  C   UNL     1       5.245   5.762  16.603  0.00  0.00    +0.000 A 
ATOM      2  C   UNL     1       5.462   5.660  15.257  0.00  0.00    +0.000 A 
ATOM      3  C   UNL     1       6.630   5.031  14.924  0.00  0.00    +0.000 A 
ATOM      4  F   UNL     1       6.909   4.865  13.624  0.00  0.00    +0.000 F 
ATOM      5  N   UNL     1       7.520   4.554  15.809  0.00  0.00    +0.000 NA
ATOM      6  C   UNL     1       7.228   4.754  17.090  0.00  0.00    +0.000 A 
ATOM      7  N   UNL     1       8.112   4.288  18.039  0.00  0.00    +0.000 N 
ATOM      8  N   UNL     1       6.119   5.337  17.533  0.00  0.00    +0.000 NA
ATOM      9  H   UNL     1       8.682   3.542  17.666  0.00  0.00    +0.000 HD
ATOM     10  H   UNL     1       7.638   4.127  18.916  0.00  0.00    +0.000 HD
ENDROOT
BRANCH   1  11
ATOM     11  O   UNL     1       4.075   6.393  16.995  0.00  0.00    +0.000 OA
BRANCH  11  15
ATOM     12  C   UNL     1       1.755   4.263  19.739  0.00  0.00    +0.000 A 
ATOM     13  C   UNL     1       2.047   3.751  18.469  0.00  0.00    +0.000 A 
ATOM     14  C   UNL     1       2.800   4.500  17.565  0.00  0.00    +0.000 A 
ATOM     15  C   UNL     1       3.263   5.770  17.916  0.00  0.00    +0.000 A 
ATOM     16  C   UNL     1       2.978   6.282  19.184  0.00  0.00    +0.000 A 
ATOM     17  C   UNL     1       2.213   5.539  20.084  0.00  0.00    +0.000 A 
BRANCH  12  19
ATOM     18  C   UNL     1       2.053   2.692  21.643  0.00  0.00    +0.000 C 
ATOM     19  C   UNL     1       1.044   3.418  20.763  0.00  0.00    +0.000 C 
ENDBRANCH  12  19
ENDBRANCH  11  15
ENDBRANCH   1  11
TORSDOF 3
ENDMDL
MODEL 2
REMARK VINA RESULT:      -7.7      1.447      1.969
REMARK  Name = 
REMARK  4 active torsions:
REMARK  status: ('A' for Active; 'I' for Inactive)
REMARK    1  A    between atoms: C_1  and  C_2
REMARK    2  A    between atoms: C_2  and  C_3
REMARK    3  A    between atoms: C_6  and  O_7
REMARK    4  A    between atoms: O_7  and  C_8
REMARK                            x       y       z     vdW  Elec       q    Type
REMARK                         _______ _______ _______ _____ _____    ______ ____
ROOT
ATOM      1  C   UNL     1       5.467   5.937  16.859  0.00  0.00    +0.000 A 
ATOM      2  C   UNL     1       6.263   5.412  17.839  0.00  0.00    +0.000 A 
ATOM      3  C   UNL     1       7.389   4.791  17.372  0.00  0.00    +0.000 A 
ATOM      4  F   UNL     1       8.239   4.270  18.267  0.00  0.00    +0.000 F 
ATOM      5  N   UNL     1       7.713   4.672  16.074  0.00  0.00    +0.000 NA
ATOM      6  C   UNL     1       6.840   5.176  15.209  0.00  0.00    +0.000 A 
ATOM      7  N   UNL     1       7.123   5.075  13.865  0.00  0.00    +0.000 N 
ATOM      8  N   UNL     1       5.723   5.814  15.545  0.00  0.00    +0.000 NA
ATOM      9  H   UNL     1       8.114   4.959  13.712  0.00  0.00    +0.000 HD
ATOM     10  H   UNL     1       6.646   5.799  13.347  0.00  0.00    +0.000 HD
ENDROOT
BRANCH   1  11
ATOM     11  O   UNL     1       4.311   6.577  17.279  0.00  0.00    +0.000 OA
BRANCH  11  15
ATOM     12  C   UNL     1       1.718   4.226  19.560  0.00  0.00    +0.000 A 
ATOM     13  C   UNL     1       2.054   3.886  18.244  0.00  0.00    +0.000 A 
ATOM     14  C   UNL     1       2.901   4.708  17.499  0.00  0.00    +0.000 A 
ATOM     15  C   UNL     1       3.413   5.881  18.056  0.00  0.00    +0.000 A 
ATOM     16  C   UNL     1       3.084   6.221  19.370  0.00  0.00    +0.000 A 
ATOM     17  C   UNL     1       2.227   5.408  20.112  0.00  0.00    +0.000 A 
BRANCH  12  19
ATOM     18  C   UNL     1       1.718   2.816  21.607  0.00  0.00    +0.000 C 
ATOM     19  C   UNL     1       0.902   3.290  20.411  0.00  0.00    +0.000 C 
ENDBRANCH  12  19
ENDBRANCH  11  15
ENDBRANCH   1  11
TORSDOF 3
ENDMDL
MODEL 3
REMARK VINA RESULT:      -7.6      2.195      2.501
REMARK  Name = 
REMARK  4 active torsions:
REMARK  status: ('A' for Active; 'I' for Inactive)
REMARK    1  A    between atoms: C_1  and  C_2
REMARK    2  A    between atoms: C_2  and  C_3
REMARK    3  A    between atoms: C_6  and  O_7
REMARK    4  A    between atoms: O_7  and  C_8
REMARK                            x       y       z     vdW  Elec       q    Type
REMARK                         _______ _______ _______ _____ _____    ______ ____
ROOT
ATOM      1  C   UNL     1       6.371   5.785  17.306  0.00  0.00    +0.000 A 
ATOM      2  C   UNL     1       6.696   7.056  16.922  0.00  0.00    +0.000 A 
ATOM      3  C   UNL     1       7.641   7.654  17.708  0.00  0.00    +0.000 A 
ATOM      4  F   UNL     1       8.037   8.893  17.387  0.00  0.00    +0.000 F 
ATOM      5  N   UNL     1       8.215   7.084  18.780  0.00  0.00    +0.000 NA
ATOM      6  C   UNL     1       7.785   5.865  19.089  0.00  0.00    +0.000 A 
ATOM      7  N   UNL     1       8.338   5.238  20.184  0.00  0.00    +0.000 N 
ATOM      8  N   UNL     1       6.885   5.180  18.391  0.00  0.00    +0.000 NA
ATOM      9  H   UNL     1       9.246   5.622  20.400  0.00  0.00    +0.000 HD
ATOM     10  H   UNL     1       8.259   4.235  20.095  0.00  0.00    +0.000 HD
ENDROOT
BRANCH   1  11
ATOM     11  O   UNL     1       5.416   5.133  16.542  0.00  0.00    +0.000 OA
BRANCH  11  15
ATOM     12  C   UNL     1       2.056   3.627  18.518  0.00  0.00    +0.000 A 
ATOM     13  C   UNL     1       2.955   2.786  17.849  0.00  0.00    +0.000 A 
ATOM     14  C   UNL     1       4.052   3.323  17.174  0.00  0.00    +0.000 A 
ATOM     15  C   UNL     1       4.258   4.704  17.153  0.00  0.00    +0.000 A 
ATOM     16  C   UNL     1       3.367   5.546  17.823  0.00  0.00    +0.000 A 
ATOM     17  C   UNL     1       2.262   5.011  18.486  0.00  0.00    +0.000 A 
BRANCH  12  19
ATOM     18  C   UNL     1       1.188   3.311  20.825  0.00  0.00    +0.000 C 
ATOM     19  C   UNL     1       0.938   3.052  19.346  0.00  0.00    +0.000 C 
ENDBRANCH  12  19
ENDBRANCH  11  15
ENDBRANCH   1  11
TORSDOF 3
ENDMDL
MODEL 4
REMARK VINA RESULT:      -7.4      0.531      1.205
REMARK  Name = 
REMARK  4 active torsions:
REMARK  status: ('A' for Active; 'I' for Inactive)
REMARK    1  A    between atoms: C_1  and  C_2
REMARK    2  A    between atoms: C_2  and  C_3
REMARK    3  A    between atoms: C_6  and  O_7
REMARK    4  A    between atoms: O_7  and  C_8
REMARK                            x       y       z     vdW  Elec       q    Type
REMARK                         _______ _______ _______ _____ _____    ______ ____
ROOT
ATOM      1  C   UNL     1       5.308   5.497  16.606  0.00  0.00    +0.000 A 
ATOM      2  C   UNL     1       5.515   5.526  15.255  0.00  0.00    +0.000 A 
ATOM      3  C   UNL     1       6.739   5.055  14.866  0.00  0.00    +0.000 A 
ATOM      4  F   UNL     1       7.016   5.024  13.555  0.00  0.00    +0.000 F 
ATOM      5  N   UNL     1       7.688   4.609  15.705  0.00  0.00    +0.000 NA
ATOM      6  C   UNL     1       7.395   4.674  16.999  0.00  0.00    +0.000 A 
ATOM      7  N   UNL     1       8.338   4.233  17.903  0.00  0.00    +0.000 N 
ATOM      8  N   UNL     1       6.236   5.097  17.494  0.00  0.00    +0.000 NA
ATOM      9  H   UNL     1       8.979   3.585  17.468  0.00  0.00    +0.000 HD
ATOM     10  H   UNL     1       7.896   3.953  18.766  0.00  0.00    +0.000 HD
ENDROOT
BRANCH   1  11
ATOM     11  O   UNL     1       4.083   5.964  17.054  0.00  0.00    +0.000 OA
BRANCH  11  15
ATOM     12  C   UNL     1       1.737   3.733  19.696  0.00  0.00    +0.000 A 
ATOM     13  C   UNL     1       2.744   4.594  20.153  0.00  0.00    +0.000 A 
ATOM     14  C   UNL     1       3.529   5.303  19.243  0.00  0.00    +0.000 A 
ATOM     15  C   UNL     1       3.323   5.155  17.870  0.00  0.00    +0.000 A 
ATOM     16  C   UNL     1       2.317   4.302  17.411  0.00  0.00    +0.000 A 
ATOM     17  C   UNL     1       1.540   3.581  18.319  0.00  0.00    +0.000 A 
BRANCH  12  19
ATOM     18  C   UNL     1       1.577   2.589  21.898  0.00  0.00    +0.000 C 
ATOM     19  C   UNL     1       0.808   3.054  20.668  0.00  0.00    +0.000 C 
ENDBRANCH  12  19
ENDBRANCH  11  15
ENDBRANCH   1  11
TORSDOF 3
ENDMDL
MODEL 5
REMARK VINA RESULT:      -7.3      2.132      2.592
REMARK  Name = 
REMARK  4 active torsions:
REMARK  status: ('A' for Active; 'I' for Inactive)
REMARK    1  A    between atoms: C_1  and  C_2
REMARK    2  A    between atoms: C_2  and  C_3
REMARK    3  A    between atoms: C_6  and  O_7
REMARK    4  A    between atoms: O_7  and  C_8
REMARK                            x       y       z     vdW  Elec       q    Type
REMARK                         _______ _______ _______ _____ _____    ______ ____
ROOT
ATOM      1  C   UNL     1       6.149   5.888  17.617  0.00  0.00    +0.000 A 
ATOM      2  C   UNL     1       6.527   7.101  17.112  0.00  0.00    +0.000 A 
ATOM      3  C   UNL     1       7.631   7.638  17.715  0.00  0.00    +0.000 A 
ATOM      4  F   UNL     1       8.086   8.815  17.264  0.00  0.00    +0.000 F 
ATOM      5  N   UNL     1       8.305   7.065  18.725  0.00  0.00    +0.000 NA
ATOM      6  C   UNL     1       7.816   5.912  19.168  0.00  0.00    +0.000 A 
ATOM      7  N   UNL     1       8.468   5.285  20.208  0.00  0.00    +0.000 N 
ATOM      8  N   UNL     1       6.762   5.287  18.652  0.00  0.00    +0.000 NA
ATOM      9  H   UNL     1       9.430   5.587  20.265  0.00  0.00    +0.000 HD
ATOM     10  H   UNL     1       8.284   4.292  20.193  0.00  0.00    +0.000 HD
ENDROOT
BRANCH   1  11
ATOM     11  O   UNL     1       5.033   5.299  17.042  0.00  0.00    +0.000 OA
BRANCH  11  15
ATOM     12  C   UNL     1       1.999   3.715  19.437  0.00  0.00    +0.000 A 
ATOM     13  C   UNL     1       2.218   5.095  19.344  0.00  0.00    +0.000 A 
ATOM     14  C   UNL     1       3.259   5.591  18.558  0.00  0.00    +0.000 A 
ATOM     15  C   UNL     1       4.095   4.715  17.863  0.00  0.00    +0.000 A 
ATOM     16  C   UNL     1       3.876   3.338  17.949  0.00  0.00    +0.000 A 
ATOM     17  C   UNL     1       2.845   2.840  18.745  0.00  0.00    +0.000 A 
BRANCH  12  19
ATOM     18  C   UNL     1       1.234   2.672  21.560  0.00  0.00    +0.000 C 
ATOM     19  C   UNL     1       0.809   3.175  20.186  0.00  0.00    +0.000 C 
ENDBRANCH  12  19
ENDBRANCH  11  15
ENDBRANCH   1  11
TORSDOF 3
ENDMDL
MODEL 6
REMARK VINA RESULT:      -7.3      2.441      2.914
REMARK  Name = 
REMARK  4 active torsions:
REMARK  status: ('A' for Active; 'I' for Inactive)
REMARK    1  A    between atoms: C_1  and  C_2
REMARK    2  A    between atoms: C_2  and  C_3
REMARK    3  A    between atoms: C_6  and  O_7
REMARK    4  A    between atoms: O_7  and  C_8
REMARK                            x       y       z     vdW  Elec       q    Type
REMARK                         _______ _______ _______ _____ _____    ______ ____
ROOT
ATOM      1  C   UNL     1       6.285   5.909  17.181  0.00  0.00    +0.000 A 
ATOM      2  C   UNL     1       6.897   5.163  18.148  0.00  0.00    +0.000 A 
ATOM      3  C   UNL     1       7.850   5.840  18.857  0.00  0.00    +0.000 A 
ATOM      4  F   UNL     1       8.484   5.190  19.844  0.00  0.00    +0.000 F 
ATOM      5  N   UNL     1       8.194   7.121  18.645  0.00  0.00    +0.000 NA
ATOM      6  C   UNL     1       7.568   7.732  17.645  0.00  0.00    +0.000 A 
ATOM      7  N   UNL     1       7.889   9.046  17.383  0.00  0.00    +0.000 N 
ATOM      8  N   UNL     1       6.616   7.182  16.899  0.00  0.00    +0.000 NA
ATOM      9  H   UNL     1       8.287   9.490  18.197  0.00  0.00    +0.000 HD
ATOM     10  H   UNL     1       7.122   9.511  16.918  0.00  0.00    +0.000 HD
ENDROOT
BRANCH   1  11
ATOM     11  O   UNL     1       5.310   5.269  16.431  0.00  0.00    +0.000 OA
BRANCH  11  15
ATOM     12  C   UNL     1       2.008   3.708  18.459  0.00  0.00    +0.000 A 
ATOM     13  C   UNL     1       2.865   2.891  17.711  0.00  0.00    +0.000 A 
ATOM     14  C   UNL     1       3.942   3.448  17.021  0.00  0.00    +0.000 A 
ATOM     15  C   UNL     1       4.171   4.825  17.065  0.00  0.00    +0.000 A 
ATOM     16  C   UNL     1       3.321   5.642  17.814  0.00  0.00    +0.000 A 
ATOM     17  C   UNL     1       2.235   5.089  18.493  0.00  0.00    +0.000 A 
BRANCH  12  19
ATOM     18  C   UNL     1       1.141   3.427  20.772  0.00  0.00    +0.000 C 
ATOM     19  C   UNL     1       0.913   3.106  19.300  0.00  0.00    +0.000 C 
ENDBRANCH  12  19
ENDBRANCH  11  15
ENDBRANCH   1  11
TORSDOF 3
ENDMDL
MODEL 7
REMARK VINA RESULT:      -7.2      1.533      1.831
REMARK  Name = 
REMARK  4 active torsions:
REMARK  status: ('A' for Active; 'I' for Inactive)
REMARK    1  A    between atoms: C_1  and  C_2
REMARK    2  A    between atoms: C_2  and  C_3
REMARK    3  A    between atoms: C_6  and  O_7
REMARK    4  A    between atoms: O_7  and  C_8
REMARK                            x       y       z     vdW  Elec       q    Type
REMARK                         _______ _______ _______ _____ _____    ______ ____
ROOT
ATOM      1  C   UNL     1       4.805   6.189  16.822  0.00  0.00    +0.000 A 
ATOM      2  C   UNL     1       5.811   6.966  17.324  0.00  0.00    +0.000 A 
ATOM      3  C   UNL     1       7.064   6.583  16.930  0.00  0.00    +0.000 A 
ATOM      4  F   UNL     1       8.108   7.306  17.356  0.00  0.00    +0.000 F 
ATOM      5  N   UNL     1       7.326   5.534  16.134  0.00  0.00    +0.000 NA
ATOM      6  C   UNL     1       6.274   4.821  15.747  0.00  0.00    +0.000 A 
ATOM      7  N   UNL     1       6.490   3.731  14.933  0.00  0.00    +0.000 N 
ATOM      8  N   UNL     1       5.012   5.106  16.053  0.00  0.00    +0.000 NA
ATOM      9  H   UNL     1       7.366   3.817  14.438  0.00  0.00    +0.000 HD
ATOM     10  H   UNL     1       5.662   3.522  14.394  0.00  0.00    +0.000 HD
ENDROOT
BRANCH   1  11
ATOM     11  O   UNL     1       3.514   6.535  17.192  0.00  0.00    +0.000 OA
BRANCH  11  15
ATOM     12  C   UNL     1       1.630   3.996  19.923  0.00  0.00    +0.000 A 
ATOM     13  C   UNL     1       1.438   3.864  18.542  0.00  0.00    +0.000 A 
ATOM     14  C   UNL     1       2.059   4.747  17.658  0.00  0.00    +0.000 A 
ATOM     15  C   UNL     1       2.872   5.774  18.142  0.00  0.00    +0.000 A 
ATOM     16  C   UNL     1       3.070   5.905  19.519  0.00  0.00    +0.000 A 
ATOM     17  C   UNL     1       2.438   5.032  20.405  0.00  0.00    +0.000 A 
BRANCH  12  19
ATOM     18  C   UNL     1       2.129   2.526  21.865  0.00  0.00    +0.000 C 
ATOM     19  C   UNL     1       1.061   2.981  20.879  0.00  0.00    +0.000 C 
ENDBRANCH  12  19
ENDBRANCH  11  15
ENDBRANCH   1  11
TORSDOF 3
ENDMDL
MODEL 8
REMARK VINA RESULT:      -7.2      1.641      2.318
REMARK  Name = 
REMARK  4 active torsions:
REMARK  status: ('A' for Active; 'I' for Inactive)
REMARK    1  A    between atoms: C_1  and  C_2
REMARK    2  A    between atoms: C_2  and  C_3
REMARK    3  A    between atoms: C_6  and  O_7
REMARK    4  A    between atoms: O_7  and  C_8
REMARK                            x       y       z     vdW  Elec       q    Type
REMARK                         _______ _______ _______ _____ _____    ______ ____
ROOT
ATOM      1  C   UNL     1       4.996   6.369  16.842  0.00  0.00    +0.000 A 
ATOM      2  C   UNL     1       5.957   6.925  17.640  0.00  0.00    +0.000 A 
ATOM      3  C   UNL     1       7.237   6.690  17.222  0.00  0.00    +0.000 A 
ATOM      4  F   UNL     1       8.241   7.221  17.932  0.00  0.00    +0.000 F 
ATOM      5  N   UNL     1       7.567   5.969  16.137  0.00  0.00    +0.000 NA
ATOM      6  C   UNL     1       6.552   5.434  15.466  0.00  0.00    +0.000 A 
ATOM      7  N   UNL     1       6.837   4.681  14.348  0.00  0.00    +0.000 N 
ATOM      8  N   UNL     1       5.269   5.607  15.768  0.00  0.00    +0.000 NA
ATOM      9  H   UNL     1       7.740   4.924  13.969  0.00  0.00    +0.000 HD
ATOM     10  H   UNL     1       6.047   4.671  13.718  0.00  0.00    +0.000 HD
ENDROOT
BRANCH   1  11
ATOM     11  O   UNL     1       3.680   6.576  17.222  0.00  0.00    +0.000 OA
BRANCH  11  15
ATOM     12  C   UNL     1       1.692   3.954  19.797  0.00  0.00    +0.000 A 
ATOM     13  C   UNL     1       2.329   5.108  20.270  0.00  0.00    +0.000 A 
ATOM     14  C   UNL     1       3.009   5.948  19.387  0.00  0.00    +0.000 A 
ATOM     15  C   UNL     1       3.067   5.641  18.026  0.00  0.00    +0.000 A 
ATOM     16  C   UNL     1       2.429   4.494  17.550  0.00  0.00    +0.000 A 
ATOM     17  C   UNL     1       1.761   3.645  18.433  0.00  0.00    +0.000 A 
BRANCH  12  19
ATOM     18  C   UNL     1       1.708   2.579  21.868  0.00  0.00    +0.000 C 
ATOM     19  C   UNL     1       0.858   3.104  20.719  0.00  0.00    +0.000 C 
ENDBRANCH  12  19
ENDBRANCH  11  15
ENDBRANCH   1  11
TORSDOF 3
ENDMDL
MODEL 9
REMARK VINA RESULT:      -7.1      1.645      1.828
REMARK  Name = 
REMARK  4 active torsions:
REMARK  status: ('A' for Active; 'I' for Inactive)
REMARK    1  A    between atoms: C_1  and  C_2
REMARK    2  A    between atoms: C_2  and  C_3
REMARK    3  A    between atoms: C_6  and  O_7
REMARK    4  A    between atoms: O_7  and  C_8
REMARK                            x       y       z     vdW  Elec       q    Type
REMARK                         _______ _______ _______ _____ _____    ______ ____
ROOT
ATOM      1  C   UNL     1       5.628   4.032  16.091  0.00  0.00    +0.000 A 
ATOM      2  C   UNL     1       6.070   4.070  14.798  0.00  0.00    +0.000 A 
ATOM      3  C   UNL     1       7.044   5.001  14.566  0.00  0.00    +0.000 A 
ATOM      4  F   UNL     1       7.553   5.088  13.330  0.00  0.00    +0.000 F 
ATOM      5  N   UNL     1       7.540   5.835  15.495  0.00  0.00    +0.000 NA
ATOM      6  C   UNL     1       7.000   5.743  16.705  0.00  0.00    +0.000 A 
ATOM      7  N   UNL     1       7.470   6.580  17.693  0.00  0.00    +0.000 N 
ATOM      8  N   UNL     1       6.061   4.868  17.051  0.00  0.00    +0.000 NA
ATOM      9  H   UNL     1       8.402   6.903  17.480  0.00  0.00    +0.000 HD
ATOM     10  H   UNL     1       7.306   6.178  18.605  0.00  0.00    +0.000 HD
ENDROOT
BRANCH   1  11
ATOM     11  O   UNL     1       4.638   3.105  16.379  0.00  0.00    +0.000 OA
BRANCH  11  15
ATOM     12  C   UNL     1       2.036   3.588  19.612  0.00  0.00    +0.000 A 
ATOM     13  C   UNL     1       1.670   3.957  18.311  0.00  0.00    +0.000 A 
ATOM     14  C   UNL     1       2.573   3.810  17.258  0.00  0.00    +0.000 A 
ATOM     15  C   UNL     1       3.852   3.300  17.493  0.00  0.00    +0.000 A 
ATOM     16  C   UNL     1       4.219   2.927  18.788  0.00  0.00    +0.000 A 
ATOM     17  C   UNL     1       3.322   3.086  19.845  0.00  0.00    +0.000 A 
BRANCH  12  19
ATOM     18  C   UNL     1       1.409   2.632  21.820  0.00  0.00    +0.000 C 
ATOM     19  C   UNL     1       1.033   3.632  20.734  0.00  0.00    +0.000 C 
ENDBRANCH  12  19
ENDBRANCH  11  15
ENDBRANCH   1  11
TORSDOF 3
ENDMDL
