MODEL 1
REMARK VINA RESULT:      -7.5      0.000      0.000
REMARK  Name = 
REMARK  8 active torsions:
REMARK  status: ('A' for Active; 'I' for Inactive)
REMARK    1  A    between atoms: C_1  and  C_2
REMARK    2  A    between atoms: C_2  and  C_3
REMARK    3  A    between atoms: C_2  and  C_4
REMARK    4  A    between atoms: C_2  and  S_20
REMARK    5  A    between atoms: N_9  and  C_10
REMARK    6  A    between atoms: C_10  and  C_11
REMARK    7  A    between atoms: S_20  and  C_23
REMARK    8  A    between atoms: C_26  and  C_27
REMARK                            x       y       z     vdW  Elec       q    Type
REMARK                         _______ _______ _______ _____ _____    ______ ____
ROOT
ATOM      1  C   UNL     1       1.216   1.445  18.862  0.00  0.00    +0.000 C 
ATOM      2  C   UNL     1       2.028   2.748  18.784  0.00  0.00    +0.000 C 
ATOM      3  C   UNL     1       2.081   3.304  17.344  0.00  0.00    +0.000 C 
ENDROOT
BRANCH   2   4
ATOM      4  C   UNL     1       1.512   3.826  19.763  0.00  0.00    +0.000 C 
ATOM      5  O   UNL     1       1.023   3.521  20.854  0.00  0.00    +0.000 OA
ATOM      6  N   UNL     1       1.616   5.177  19.421  0.00  0.00    +0.000 N 
ATOM      7  C   UNL     1       1.382   6.212  20.447  0.00  0.00    +0.000 C 
ATOM      8  C   UNL     1       2.345   7.421  20.280  0.00  0.00    +0.000 C 
ATOM      9  N   UNL     1       2.483   7.959  18.898  0.00  0.00    +0.000 NA
ATOM     10  C   UNL     1       2.755   6.829  17.991  0.00  0.00    +0.000 C 
ATOM     11  C   UNL     1       1.693   5.727  18.067  0.00  0.00    +0.000 C 
BRANCH   9  12
ATOM     12  C   UNL     1       1.292   8.737  18.512  0.00  0.00    +0.000 C 
BRANCH  12  13
ATOM     13  C   UNL     1       0.988   9.920  19.415  0.00  0.00    +0.000 A 
ATOM     14  C   UNL     1       1.376  11.222  19.057  0.00  0.00    +0.000 A 
ATOM     15  C   UNL     1       1.125  12.299  19.911  0.00  0.00    +0.000 A 
ATOM     16  C   UNL     1       0.479  12.092  21.129  0.00  0.00    +0.000 A 
ATOM     17  C   UNL     1       0.067  10.809  21.481  0.00  0.00    +0.000 A 
ATOM     18 CL   UNL     1      -0.747  10.552  22.975  0.00  0.00    +0.000 Cl
ATOM     19  C   UNL     1       0.318   9.728  20.634  0.00  0.00    +0.000 A 
ENDBRANCH  12  13
ENDBRANCH   9  12
ENDBRANCH   2   4
BRANCH   2  20
ATOM     20  S   UNL     1       3.780   2.376  19.200  0.00  0.00    +0.000 S 
ATOM     21  O   UNL     1       3.916   2.370  20.652  0.00  0.00    +0.000 OA
ATOM     22  O   UNL     1       4.213   1.192  18.475  0.00  0.00    +0.000 OA
BRANCH  20  23
ATOM     23  C   UNL     1       4.760   3.762  18.621  0.00  0.00    +0.000 A 
ATOM     24  C   UNL     1       5.161   3.851  17.301  0.00  0.00    +0.000 A 
ATOM     25  C   UNL     1       6.012   4.900  16.958  0.00  0.00    +0.000 A 
ATOM     26  C   UNL     1       6.437   5.808  17.937  0.00  0.00    +0.000 A 
ATOM     27  C   UNL     1       5.980   5.620  19.236  0.00  0.00    +0.000 A 
ATOM     28  N   UNL     1       5.152   4.618  19.604  0.00  0.00    +0.000 NA
BRANCH  26  29
ATOM     29  C   UNL     1       7.356   6.954  17.642  0.00  0.00    +0.000 C 
ATOM     30  F   UNL     1       8.001   6.840  16.449  0.00  0.00    +0.000 F 
ATOM     31  F   UNL     1       6.700   8.146  17.600  0.00  0.00    +0.000 F 
ATOM     32  F   UNL     1       8.329   7.098  18.582  0.00  0.00    +0.000 F 
ENDBRANCH  26  29
ENDBRANCH  20  23
ENDBRANCH   2  20
TORSDOF 6
ENDMDL
MODEL 2
REMARK VINA RESULT:      -7.4      1.342      1.740
REMARK  Name = 
REMARK  8 active torsions:
REMARK  status: ('A' for Active; 'I' for Inactive)
REMARK    1  A    between atoms: C_1  and  C_2
REMARK    2  A    between atoms: C_2  and  C_3
REMARK    3  A    between atoms: C_2  and  C_4
REMARK    4  A    between atoms: C_2  and  S_20
REMARK    5  A    between atoms: N_9  and  C_10
REMARK    6  A    between atoms: C_10  and  C_11
REMARK    7  A    between atoms: S_20  and  C_23
REMARK    8  A    between atoms: C_26  and  C_27
REMARK                            x       y       z     vdW  Elec       q    Type
REMARK                         _______ _______ _______ _____ _____    ______ ____
ROOT
ATOM      1  C   UNL     1       1.156   1.670  19.484  0.00  0.00    +0.000 C 
ATOM      2  C   UNL     1       2.027   2.874  19.090  0.00  0.00    +0.000 C 
ATOM      3  C   UNL     1       1.896   3.207  17.587  0.00  0.00    +0.000 C 
ENDROOT
BRANCH   2   4
ATOM      4  C   UNL     1       1.732   4.123  19.950  0.00  0.00    +0.000 C 
ATOM      5  O   UNL     1       1.442   4.025  21.146  0.00  0.00    +0.000 OA
ATOM      6  N   UNL     1       1.812   5.394  19.374  0.00  0.00    +0.000 N 
ATOM      7  C   UNL     1       1.802   6.591  20.238  0.00  0.00    +0.000 C 
ATOM      8  C   UNL     1       2.755   7.698  19.703  0.00  0.00    +0.000 C 
ATOM      9  N   UNL     1       2.653   7.999  18.249  0.00  0.00    +0.000 NA
ATOM     10  C   UNL     1       2.720   6.725  17.510  0.00  0.00    +0.000 C 
ATOM     11  C   UNL     1       1.657   5.715  17.955  0.00  0.00    +0.000 C 
BRANCH   9  12
ATOM     12  C   UNL     1       1.436   8.777  17.954  0.00  0.00    +0.000 C 
BRANCH  12  13
ATOM     13  C   UNL     1       1.372  10.134  18.631  0.00  0.00    +0.000 A 
ATOM     14  C   UNL     1       0.496  10.366  19.705  0.00  0.00    +0.000 A 
ATOM     15  C   UNL     1       0.416  11.628  20.298  0.00  0.00    +0.000 A 
ATOM     16  C   UNL     1       1.211  12.674  19.831  0.00  0.00    +0.000 A 
ATOM     17  C   UNL     1       2.102  12.448  18.785  0.00  0.00    +0.000 A 
ATOM     18 CL   UNL     1       3.099  13.730  18.218  0.00  0.00    +0.000 Cl
ATOM     19  C   UNL     1       2.184  11.189  18.185  0.00  0.00    +0.000 A 
ENDBRANCH  12  13
ENDBRANCH   9  12
ENDBRANCH   2   4
BRANCH   2  20
ATOM     20  S   UNL     1       3.795   2.420  19.311  0.00  0.00    +0.000 S 
ATOM     21  O   UNL     1       4.070   2.330  20.740  0.00  0.00    +0.000 OA
ATOM     22  O   UNL     1       4.108   1.263  18.487  0.00  0.00    +0.000 OA
BRANCH  20  23
ATOM     23  C   UNL     1       4.768   3.801  18.710  0.00  0.00    +0.000 A 
ATOM     24  C   UNL     1       5.019   3.963  17.359  0.00  0.00    +0.000 A 
ATOM     25  C   UNL     1       5.874   4.998  16.985  0.00  0.00    +0.000 A 
ATOM     26  C   UNL     1       6.452   5.819  17.963  0.00  0.00    +0.000 A 
ATOM     27  C   UNL     1       6.138   5.562  19.293  0.00  0.00    +0.000 A 
ATOM     28  N   UNL     1       5.311   4.572  19.692  0.00  0.00    +0.000 NA
BRANCH  26  29
ATOM     29  C   UNL     1       7.385   6.945  17.635  0.00  0.00    +0.000 C 
ATOM     30  F   UNL     1       8.426   7.059  18.504  0.00  0.00    +0.000 F 
ATOM     31  F   UNL     1       7.942   6.811  16.400  0.00  0.00    +0.000 F 
ATOM     32  F   UNL     1       6.762   8.155  17.634  0.00  0.00    +0.000 F 
ENDBRANCH  26  29
ENDBRANCH  20  23
ENDBRANCH   2  20
TORSDOF 6
ENDMDL
MODEL 3
REMARK VINA RESULT:      -7.4      2.805      3.866
REMARK  Name = 
REMARK  8 active torsions:
REMARK  status: ('A' for Active; 'I' for Inactive)
REMARK    1  A    between atoms: C_1  and  C_2
REMARK    2  A    between atoms: C_2  and  C_3
REMARK    3  A    between atoms: C_2  and  C_4
REMARK    4  A    between atoms: C_2  and  S_20
REMARK    5  A    between atoms: N_9  and  C_10
REMARK    6  A    between atoms: C_10  and  C_11
REMARK    7  A    between atoms: S_20  and  C_23
REMARK    8  A    between atoms: C_26  and  C_27
REMARK                            x       y       z     vdW  Elec       q    Type
REMARK                         _______ _______ _______ _____ _____    ______ ____
ROOT
ATOM      1  C   UNL     1       1.807   5.245  20.337  0.00  0.00    +0.000 C 
ATOM      2  C   UNL     1       2.532   5.577  19.022  0.00  0.00    +0.000 C 
ATOM      3  C   UNL     1       1.960   4.771  17.835  0.00  0.00    +0.000 C 
ENDROOT
BRANCH   2   4
ATOM      4  C   UNL     1       2.522   7.089  18.707  0.00  0.00    +0.000 C 
ATOM      5  O   UNL     1       3.143   7.549  17.744  0.00  0.00    +0.000 OA
ATOM      6  N   UNL     1       1.781   7.958  19.512  0.00  0.00    +0.000 N 
ATOM      7  C   UNL     1       1.544   9.345  19.067  0.00  0.00    +0.000 C 
ATOM      8  C   UNL     1       0.119   9.839  19.447  0.00  0.00    +0.000 C 
ATOM      9  N   UNL     1      -0.314   9.570  20.845  0.00  0.00    +0.000 NA
ATOM     10  C   UNL     1      -0.061   8.147  21.138  0.00  0.00    +0.000 C 
ATOM     11  C   UNL     1       1.396   7.735  20.906  0.00  0.00    +0.000 C 
BRANCH   9  12
ATOM     12  C   UNL     1       0.353  10.483  21.791  0.00  0.00    +0.000 C 
BRANCH  12  13
ATOM     13  C   UNL     1      -0.482  11.679  22.213  0.00  0.00    +0.000 A 
ATOM     14  C   UNL     1      -0.089  12.988  21.884  0.00  0.00    +0.000 A 
ATOM     15  C   UNL     1      -0.843  14.084  22.308  0.00  0.00    +0.000 A 
ATOM     16  C   UNL     1      -2.000  13.891  23.060  0.00  0.00    +0.000 A 
ATOM     17  C   UNL     1      -2.413  12.597  23.368  0.00  0.00    +0.000 A 
ATOM     18 CL   UNL     1      -3.852  12.352  24.280  0.00  0.00    +0.000 Cl
ATOM     19  C   UNL     1      -1.662  11.496  22.951  0.00  0.00    +0.000 A 
ENDBRANCH  12  13
ENDBRANCH   9  12
ENDBRANCH   2   4
BRANCH   2  20
ATOM     20  S   UNL     1       4.281   5.023  19.157  0.00  0.00    +0.000 S 
ATOM     21  O   UNL     1       5.065   6.115  19.722  0.00  0.00    +0.000 OA
ATOM     22  O   UNL     1       4.333   3.734  19.827  0.00  0.00    +0.000 OA
BRANCH  20  23
ATOM     23  C   UNL     1       4.887   4.797  17.484  0.00  0.00    +0.000 A 
ATOM     24  C   UNL     1       5.327   5.872  16.733  0.00  0.00    +0.000 A 
ATOM     25  C   UNL     1       5.678   5.627  15.407  0.00  0.00    +0.000 A 
ATOM     26  C   UNL     1       5.567   4.334  14.878  0.00  0.00    +0.000 A 
ATOM     27  C   UNL     1       5.105   3.329  15.719  0.00  0.00    +0.000 A 
ATOM     28  N   UNL     1       4.761   3.527  17.010  0.00  0.00    +0.000 NA
BRANCH  26  29
ATOM     29  C   UNL     1       5.919   4.000  13.461  0.00  0.00    +0.000 C 
ATOM     30  F   UNL     1       4.855   4.040  12.613  0.00  0.00    +0.000 F 
ATOM     31  F   UNL     1       6.844   4.854  12.942  0.00  0.00    +0.000 F 
ATOM     32  F   UNL     1       6.452   2.754  13.336  0.00  0.00    +0.000 F 
ENDBRANCH  26  29
ENDBRANCH  20  23
ENDBRANCH   2  20
TORSDOF 6
ENDMDL
MODEL 4
REMARK VINA RESULT:      -7.4      5.909      9.424
REMARK  Name = 
REMARK  8 active torsions:
REMARK  status: ('A' for Active; 'I' for Inactive)
REMARK    1  A    between atoms: C_1  and  C_2
REMARK    2  A    between atoms: C_2  and  C_3
REMARK    3  A    between atoms: C_2  and  C_4
REMARK    4  A    between atoms: C_2  and  S_20
REMARK    5  A    between atoms: N_9  and  C_10
REMARK    6  A    between atoms: C_10  and  C_11
REMARK    7  A    between atoms: S_20  and  C_23
REMARK    8  A    between atoms: C_26  and  C_27
REMARK                            x       y       z     vdW  Elec       q    Type
REMARK                         _______ _______ _______ _____ _____    ______ ____
ROOT
ATOM      1  C   UNL     1       1.530   9.736  18.370  0.00  0.00    +0.000 C 
ATOM      2  C   UNL     1       0.570   9.767  19.570  0.00  0.00    +0.000 C 
ATOM      3  C   UNL     1      -0.903   9.891  19.122  0.00  0.00    +0.000 C 
ENDROOT
BRANCH   2   4
ATOM      4  C   UNL     1       0.752   8.550  20.505  0.00  0.00    +0.000 C 
ATOM      5  O   UNL     1       0.181   8.488  21.597  0.00  0.00    +0.000 OA
ATOM      6  N   UNL     1       1.564   7.486  20.103  0.00  0.00    +0.000 N 
ATOM      7  C   UNL     1       1.530   6.216  20.853  0.00  0.00    +0.000 C 
ATOM      8  C   UNL     1       1.656   4.984  19.912  0.00  0.00    +0.000 C 
ATOM      9  N   UNL     1       2.734   5.053  18.888  0.00  0.00    +0.000 NA
ATOM     10  C   UNL     1       2.623   6.347  18.191  0.00  0.00    +0.000 C 
ATOM     11  C   UNL     1       2.666   7.549  19.141  0.00  0.00    +0.000 C 
BRANCH   9  12
ATOM     12  C   UNL     1       4.058   4.836  19.498  0.00  0.00    +0.000 C 
BRANCH  12  13
ATOM     13  C   UNL     1       5.220   4.873  18.522  0.00  0.00    +0.000 A 
ATOM     14  C   UNL     1       6.449   5.453  18.881  0.00  0.00    +0.000 A 
ATOM     15  C   UNL     1       7.500   5.516  17.963  0.00  0.00    +0.000 A 
ATOM     16  C   UNL     1       7.343   4.995  16.680  0.00  0.00    +0.000 A 
ATOM     17  C   UNL     1       6.139   4.393  16.323  0.00  0.00    +0.000 A 
ATOM     18 CL   UNL     1       5.947   3.732  14.746  0.00  0.00    +0.000 Cl
ATOM     19  C   UNL     1       5.082   4.331  17.234  0.00  0.00    +0.000 A 
ENDBRANCH  12  13
ENDBRANCH   9  12
ENDBRANCH   2   4
BRANCH   2  20
ATOM     20  S   UNL     1       0.888  11.297  20.540  0.00  0.00    +0.000 S 
ATOM     21  O   UNL     1       1.814  10.972  21.619  0.00  0.00    +0.000 OA
ATOM     22  O   UNL     1       1.252  12.378  19.638  0.00  0.00    +0.000 OA
BRANCH  20  23
ATOM     23  C   UNL     1      -0.657  11.742  21.335  0.00  0.00    +0.000 A 
ATOM     24  C   UNL     1      -1.492  12.698  20.787  0.00  0.00    +0.000 A 
ATOM     25  C   UNL     1      -2.617  13.065  21.523  0.00  0.00    +0.000 A 
ATOM     26  C   UNL     1      -2.860  12.479  22.773  0.00  0.00    +0.000 A 
ATOM     27  C   UNL     1      -1.950  11.535  23.233  0.00  0.00    +0.000 A 
ATOM     28  N   UNL     1      -0.852  11.152  22.546  0.00  0.00    +0.000 NA
BRANCH  26  29
ATOM     29  C   UNL     1      -4.044  12.831  23.621  0.00  0.00    +0.000 C 
ATOM     30  F   UNL     1      -4.261  11.956  24.641  0.00  0.00    +0.000 F 
ATOM     31  F   UNL     1      -3.921  14.057  24.199  0.00  0.00    +0.000 F 
ATOM     32  F   UNL     1      -5.203  12.870  22.908  0.00  0.00    +0.000 F 
ENDBRANCH  26  29
ENDBRANCH  20  23
ENDBRANCH   2  20
TORSDOF 6
ENDMDL
MODEL 5
REMARK VINA RESULT:      -7.2      6.019      9.519
REMARK  Name = 
REMARK  8 active torsions:
REMARK  status: ('A' for Active; 'I' for Inactive)
REMARK    1  A    between atoms: C_1  and  C_2
REMARK    2  A    between atoms: C_2  and  C_3
REMARK    3  A    between atoms: C_2  and  C_4
REMARK    4  A    between atoms: C_2  and  S_20
REMARK    5  A    between atoms: N_9  and  C_10
REMARK    6  A    between atoms: C_10  and  C_11
REMARK    7  A    between atoms: S_20  and  C_23
REMARK    8  A    between atoms: C_26  and  C_27
REMARK                            x       y       z     vdW  Elec       q    Type
REMARK                         _______ _______ _______ _____ _____    ______ ____
ROOT
ATOM      1  C   UNL     1       1.260   9.981  18.235  0.00  0.00    +0.000 C 
ATOM      2  C   UNL     1       0.452  10.016  19.542  0.00  0.00    +0.000 C 
ATOM      3  C   UNL     1      -1.069  10.016  19.274  0.00  0.00    +0.000 C 
ENDROOT
BRANCH   2   4
ATOM      4  C   UNL     1       0.833   8.869  20.504  0.00  0.00    +0.000 C 
ATOM      5  O   UNL     1       0.435   8.851  21.672  0.00  0.00    +0.000 OA
ATOM      6  N   UNL     1       1.630   7.817  20.044  0.00  0.00    +0.000 N 
ATOM      7  C   UNL     1       1.773   6.596  20.861  0.00  0.00    +0.000 C 
ATOM      8  C   UNL     1       1.821   5.314  19.981  0.00  0.00    +0.000 C 
ATOM      9  N   UNL     1       2.729   5.365  18.803  0.00  0.00    +0.000 NA
ATOM     10  C   UNL     1       2.449   6.607  18.060  0.00  0.00    +0.000 C 
ATOM     11  C   UNL     1       2.571   7.866  18.925  0.00  0.00    +0.000 C 
BRANCH   9  12
ATOM     12  C   UNL     1       4.139   5.242  19.217  0.00  0.00    +0.000 C 
BRANCH  12  13
ATOM     13  C   UNL     1       5.143   5.328  18.081  0.00  0.00    +0.000 A 
ATOM     14  C   UNL     1       6.353   6.026  18.236  0.00  0.00    +0.000 A 
ATOM     15  C   UNL     1       7.254   6.131  17.173  0.00  0.00    +0.000 A 
ATOM     16  C   UNL     1       6.964   5.537  15.947  0.00  0.00    +0.000 A 
ATOM     17  C   UNL     1       5.780   4.820  15.791  0.00  0.00    +0.000 A 
ATOM     18 CL   UNL     1       5.426   4.068  14.284  0.00  0.00    +0.000 Cl
ATOM     19  C   UNL     1       4.873   4.714  16.847  0.00  0.00    +0.000 A 
ENDBRANCH  12  13
ENDBRANCH   9  12
ENDBRANCH   2   4
BRANCH   2  20
ATOM     20  S   UNL     1       0.772  11.616  20.390  0.00  0.00    +0.000 S 
ATOM     21  O   UNL     1       1.792  11.399  21.410  0.00  0.00    +0.000 OA
ATOM     22  O   UNL     1       1.014  12.653  19.399  0.00  0.00    +0.000 OA
BRANCH  20  23
ATOM     23  C   UNL     1      -0.726  12.046  21.278  0.00  0.00    +0.000 A 
ATOM     24  C   UNL     1      -0.969  11.554  22.548  0.00  0.00    +0.000 A 
ATOM     25  C   UNL     1      -2.204  11.845  23.123  0.00  0.00    +0.000 A 
ATOM     26  C   UNL     1      -3.149  12.599  22.414  0.00  0.00    +0.000 A 
ATOM     27  C   UNL     1      -2.804  13.036  21.140  0.00  0.00    +0.000 A 
ATOM     28  N   UNL     1      -1.616  12.777  20.553  0.00  0.00    +0.000 NA
BRANCH  26  29
ATOM     29  C   UNL     1      -4.499  12.943  22.967  0.00  0.00    +0.000 C 
ATOM     30  F   UNL     1      -4.736  12.405  24.194  0.00  0.00    +0.000 F 
ATOM     31  F   UNL     1      -4.674  14.285  23.106  0.00  0.00    +0.000 F 
ATOM     32  F   UNL     1      -5.514  12.516  22.167  0.00  0.00    +0.000 F 
ENDBRANCH  26  29
ENDBRANCH  20  23
ENDBRANCH   2  20
TORSDOF 6
ENDMDL
MODEL 6
REMARK VINA RESULT:      -7.2      5.878      9.395
REMARK  Name = 
REMARK  8 active torsions:
REMARK  status: ('A' for Active; 'I' for Inactive)
REMARK    1  A    between atoms: C_1  and  C_2
REMARK    2  A    between atoms: C_2  and  C_3
REMARK    3  A    between atoms: C_2  and  C_4
REMARK    4  A    between atoms: C_2  and  S_20
REMARK    5  A    between atoms: N_9  and  C_10
REMARK    6  A    between atoms: C_10  and  C_11
REMARK    7  A    between atoms: S_20  and  C_23
REMARK    8  A    between atoms: C_26  and  C_27
REMARK                            x       y       z     vdW  Elec       q    Type
REMARK                         _______ _______ _______ _____ _____    ______ ____
ROOT
ATOM      1  C   UNL     1       1.333   9.809  18.270  0.00  0.00    +0.000 C 
ATOM      2  C   UNL     1       0.495   9.889  19.557  0.00  0.00    +0.000 C 
ATOM      3  C   UNL     1      -1.019   9.910  19.254  0.00  0.00    +0.000 C 
ENDROOT
BRANCH   2   4
ATOM      4  C   UNL     1       0.833   8.757  20.554  0.00  0.00    +0.000 C 
ATOM      5  O   UNL     1       0.448   8.797  21.725  0.00  0.00    +0.000 OA
ATOM      6  N   UNL     1       1.574   7.654  20.121  0.00  0.00    +0.000 N 
ATOM      7  C   UNL     1       1.669   6.455  20.977  0.00  0.00    +0.000 C 
ATOM      8  C   UNL     1       1.645   5.144  20.140  0.00  0.00    +0.000 C 
ATOM      9  N   UNL     1       2.542   5.112  18.952  0.00  0.00    +0.000 NA
ATOM     10  C   UNL     1       2.312   6.341  18.171  0.00  0.00    +0.000 C 
ATOM     11  C   UNL     1       2.504   7.621  18.991  0.00  0.00    +0.000 C 
BRANCH   9  12
ATOM     12  C   UNL     1       3.949   4.937  19.356  0.00  0.00    +0.000 C 
BRANCH  12  13
ATOM     13  C   UNL     1       4.958   5.124  18.237  0.00  0.00    +0.000 A 
ATOM     14  C   UNL     1       5.029   4.214  17.168  0.00  0.00    +0.000 A 
ATOM     15  C   UNL     1       5.986   4.374  16.162  0.00  0.00    +0.000 A 
ATOM     16  C   UNL     1       6.878   5.443  16.206  0.00  0.00    +0.000 A 
ATOM     17  C   UNL     1       6.798   6.365  17.246  0.00  0.00    +0.000 A 
ATOM     18 CL   UNL     1       7.885   7.698  17.294  0.00  0.00    +0.000 Cl
ATOM     19  C   UNL     1       5.847   6.210  18.257  0.00  0.00    +0.000 A 
ENDBRANCH  12  13
ENDBRANCH   9  12
ENDBRANCH   2   4
BRANCH   2  20
ATOM     20  S   UNL     1       0.826  11.502  20.376  0.00  0.00    +0.000 S 
ATOM     21  O   UNL     1       1.808  11.287  21.432  0.00  0.00    +0.000 OA
ATOM     22  O   UNL     1       1.123  12.508  19.369  0.00  0.00    +0.000 OA
BRANCH  20  23
ATOM     23  C   UNL     1      -0.689  11.987  21.205  0.00  0.00    +0.000 A 
ATOM     24  C   UNL     1      -0.977  11.543  22.483  0.00  0.00    +0.000 A 
ATOM     25  C   UNL     1      -2.223  11.874  23.012  0.00  0.00    +0.000 A 
ATOM     26  C   UNL     1      -3.133  12.619  22.251  0.00  0.00    +0.000 A 
ATOM     27  C   UNL     1      -2.745  13.006  20.974  0.00  0.00    +0.000 A 
ATOM     28  N   UNL     1      -1.545  12.708  20.430  0.00  0.00    +0.000 NA
BRANCH  26  29
ATOM     29  C   UNL     1      -4.491  13.005  22.752  0.00  0.00    +0.000 C 
ATOM     30  F   UNL     1      -5.511  12.419  22.066  0.00  0.00    +0.000 F 
ATOM     31  F   UNL     1      -4.676  12.667  24.058  0.00  0.00    +0.000 F 
ATOM     32  F   UNL     1      -4.712  14.346  22.680  0.00  0.00    +0.000 F 
ENDBRANCH  26  29
ENDBRANCH  20  23
ENDBRANCH   2  20
TORSDOF 6
ENDMDL
MODEL 7
REMARK VINA RESULT:      -7.2      2.897      4.020
REMARK  Name = 
REMARK  8 active torsions:
REMARK  status: ('A' for Active; 'I' for Inactive)
REMARK    1  A    between atoms: C_1  and  C_2
REMARK    2  A    between atoms: C_2  and  C_3
REMARK    3  A    between atoms: C_2  and  C_4
REMARK    4  A    between atoms: C_2  and  S_20
REMARK    5  A    between atoms: N_9  and  C_10
REMARK    6  A    between atoms: C_10  and  C_11
REMARK    7  A    between atoms: S_20  and  C_23
REMARK    8  A    between atoms: C_26  and  C_27
REMARK                            x       y       z     vdW  Elec       q    Type
REMARK                         _______ _______ _______ _____ _____    ______ ____
ROOT
ATOM      1  C   UNL     1       1.886   5.232  20.270  0.00  0.00    +0.000 C 
ATOM      2  C   UNL     1       2.603   5.592  18.958  0.00  0.00    +0.000 C 
ATOM      3  C   UNL     1       2.038   4.796  17.761  0.00  0.00    +0.000 C 
ENDROOT
BRANCH   2   4
ATOM      4  C   UNL     1       2.572   7.108  18.665  0.00  0.00    +0.000 C 
ATOM      5  O   UNL     1       3.191   7.591  17.712  0.00  0.00    +0.000 OA
ATOM      6  N   UNL     1       1.814   7.955  19.479  0.00  0.00    +0.000 N 
ATOM      7  C   UNL     1       1.560   9.345  19.053  0.00  0.00    +0.000 C 
ATOM      8  C   UNL     1       0.126   9.812  19.433  0.00  0.00    +0.000 C 
ATOM      9  N   UNL     1      -0.310   9.516  20.825  0.00  0.00    +0.000 NA
ATOM     10  C   UNL     1      -0.038   8.093  21.098  0.00  0.00    +0.000 C 
ATOM     11  C   UNL     1       1.426   7.705  20.868  0.00  0.00    +0.000 C 
BRANCH   9  12
ATOM     12  C   UNL     1       0.339  10.425  21.787  0.00  0.00    +0.000 C 
BRANCH  12  13
ATOM     13  C   UNL     1      -0.519  11.596  22.231  0.00  0.00    +0.000 A 
ATOM     14  C   UNL     1      -1.657  11.398  23.032  0.00  0.00    +0.000 A 
ATOM     15  C   UNL     1      -2.461  12.478  23.404  0.00  0.00    +0.000 A 
ATOM     16  C   UNL     1      -2.139  13.768  22.988  0.00  0.00    +0.000 A 
ATOM     17  C   UNL     1      -0.999  13.979  22.216  0.00  0.00    +0.000 A 
ATOM     18 CL   UNL     1      -0.587  15.573  21.716  0.00  0.00    +0.000 Cl
ATOM     19  C   UNL     1      -0.192  12.904  21.837  0.00  0.00    +0.000 A 
ENDBRANCH  12  13
ENDBRANCH   9  12
ENDBRANCH   2   4
BRANCH   2  20
ATOM     20  S   UNL     1       4.359   5.059  19.080  0.00  0.00    +0.000 S 
ATOM     21  O   UNL     1       5.136   6.163  19.632  0.00  0.00    +0.000 OA
ATOM     22  O   UNL     1       4.432   3.774  19.757  0.00  0.00    +0.000 OA
BRANCH  20  23
ATOM     23  C   UNL     1       4.953   4.830  17.403  0.00  0.00    +0.000 A 
ATOM     24  C   UNL     1       5.251   5.914  16.597  0.00  0.00    +0.000 A 
ATOM     25  C   UNL     1       5.599   5.653  15.274  0.00  0.00    +0.000 A 
ATOM     26  C   UNL     1       5.627   4.333  14.802  0.00  0.00    +0.000 A 
ATOM     27  C   UNL     1       5.301   3.320  15.695  0.00  0.00    +0.000 A 
ATOM     28  N   UNL     1       4.963   3.535  16.985  0.00  0.00    +0.000 NA
BRANCH  26  29
ATOM     29  C   UNL     1       5.986   3.980  13.391  0.00  0.00    +0.000 C 
ATOM     30  F   UNL     1       4.930   4.031  12.533  0.00  0.00    +0.000 F 
ATOM     31  F   UNL     1       6.930   4.812  12.873  0.00  0.00    +0.000 F 
ATOM     32  F   UNL     1       6.496   2.723  13.282  0.00  0.00    +0.000 F 
ENDBRANCH  26  29
ENDBRANCH  20  23
ENDBRANCH   2  20
TORSDOF 6
ENDMDL
MODEL 8
REMARK VINA RESULT:      -7.1      4.752      8.219
REMARK  Name = 
REMARK  8 active torsions:
REMARK  status: ('A' for Active; 'I' for Inactive)
REMARK    1  A    between atoms: C_1  and  C_2
REMARK    2  A    between atoms: C_2  and  C_3
REMARK    3  A    between atoms: C_2  and  C_4
REMARK    4  A    between atoms: C_2  and  S_20
REMARK    5  A    between atoms: N_9  and  C_10
REMARK    6  A    between atoms: C_10  and  C_11
REMARK    7  A    between atoms: S_20  and  C_23
REMARK    8  A    between atoms: C_26  and  C_27
REMARK                            x       y       z     vdW  Elec       q    Type
REMARK                         _______ _______ _______ _____ _____    ______ ____
ROOT
ATOM      1  C   UNL     1       1.960  10.052  18.663  0.00  0.00    +0.000 C 
ATOM      2  C   UNL     1       0.694   9.839  19.509  0.00  0.00    +0.000 C 
ATOM      3  C   UNL     1      -0.572   9.741  18.630  0.00  0.00    +0.000 C 
ENDROOT
BRANCH   2   4
ATOM      4  C   UNL     1       0.805   8.611  20.439  0.00  0.00    +0.000 C 
ATOM      5  O   UNL     1       0.199   8.561  21.513  0.00  0.00    +0.000 OA
ATOM      6  N   UNL     1       1.592   7.521  20.054  0.00  0.00    +0.000 N 
ATOM      7  C   UNL     1       1.490   6.248  20.794  0.00  0.00    +0.000 C 
ATOM      8  C   UNL     1       1.603   5.019  19.847  0.00  0.00    +0.000 C 
ATOM      9  N   UNL     1       2.714   5.057  18.857  0.00  0.00    +0.000 NA
ATOM     10  C   UNL     1       2.669   6.359  18.168  0.00  0.00    +0.000 C 
ATOM     11  C   UNL     1       2.724   7.552  19.128  0.00  0.00    +0.000 C 
BRANCH   9  12
ATOM     12  C   UNL     1       4.010   4.790  19.507  0.00  0.00    +0.000 C 
BRANCH  12  13
ATOM     13  C   UNL     1       5.206   4.816  18.571  0.00  0.00    +0.000 A 
ATOM     14  C   UNL     1       6.427   5.385  18.973  0.00  0.00    +0.000 A 
ATOM     15  C   UNL     1       7.510   5.438  18.092  0.00  0.00    +0.000 A 
ATOM     16  C   UNL     1       7.392   4.921  16.804  0.00  0.00    +0.000 A 
ATOM     17  C   UNL     1       6.195   4.332  16.404  0.00  0.00    +0.000 A 
ATOM     18 CL   UNL     1       6.050   3.675  14.821  0.00  0.00    +0.000 Cl
ATOM     19  C   UNL     1       5.106   4.279  17.278  0.00  0.00    +0.000 A 
ENDBRANCH  12  13
ENDBRANCH   9  12
ENDBRANCH   2   4
BRANCH   2  20
ATOM     20  S   UNL     1       0.421  11.332  20.548  0.00  0.00    +0.000 S 
ATOM     21  O   UNL     1      -0.999  11.661  20.514  0.00  0.00    +0.000 OA
ATOM     22  O   UNL     1       1.041  11.140  21.849  0.00  0.00    +0.000 OA
BRANCH  20  23
ATOM     23  C   UNL     1       1.260  12.694  19.735  0.00  0.00    +0.000 A 
ATOM     24  C   UNL     1       0.811  13.189  18.525  0.00  0.00    +0.000 A 
ATOM     25  C   UNL     1       1.582  14.171  17.907  0.00  0.00    +0.000 A 
ATOM     26  C   UNL     1       2.769  14.614  18.508  0.00  0.00    +0.000 A 
ATOM     27  C   UNL     1       3.131  14.042  19.722  0.00  0.00    +0.000 A 
ATOM     28  N   UNL     1       2.407  13.091  20.351  0.00  0.00    +0.000 NA
BRANCH  26  29
ATOM     29  C   UNL     1       3.650  15.661  17.898  0.00  0.00    +0.000 C 
ATOM     30  F   UNL     1       3.453  15.826  16.562  0.00  0.00    +0.000 F 
ATOM     31  F   UNL     1       3.461  16.886  18.459  0.00  0.00    +0.000 F 
ATOM     32  F   UNL     1       4.973  15.381  18.051  0.00  0.00    +0.000 F 
ENDBRANCH  26  29
ENDBRANCH  20  23
ENDBRANCH   2  20
TORSDOF 6
ENDMDL
MODEL 9
REMARK VINA RESULT:      -7.1      0.954      1.326
REMARK  Name = 
REMARK  8 active torsions:
REMARK  status: ('A' for Active; 'I' for Inactive)
REMARK    1  A    between atoms: C_1  and  C_2
REMARK    2  A    between atoms: C_2  and  C_3
REMARK    3  A    between atoms: C_2  and  C_4
REMARK    4  A    between atoms: C_2  and  S_20
REMARK    5  A    between atoms: N_9  and  C_10
REMARK    6  A    between atoms: C_10  and  C_11
REMARK    7  A    between atoms: S_20  and  C_23
REMARK    8  A    between atoms: C_26  and  C_27
REMARK                            x       y       z     vdW  Elec       q    Type
REMARK                         _______ _______ _______ _____ _____    ______ ____
ROOT
ATOM      1  C   UNL     1       1.100   1.496  18.957  0.00  0.00    +0.000 C 
ATOM      2  C   UNL     1       2.017   2.725  18.851  0.00  0.00    +0.000 C 
ATOM      3  C   UNL     1       2.175   3.196  17.389  0.00  0.00    +0.000 C 
ENDROOT
BRANCH   2   4
ATOM      4  C   UNL     1       1.548   3.892  19.749  0.00  0.00    +0.000 C 
ATOM      5  O   UNL     1       1.077   3.689  20.872  0.00  0.00    +0.000 OA
ATOM      6  N   UNL     1       1.673   5.208  19.295  0.00  0.00    +0.000 N 
ATOM      7  C   UNL     1       1.486   6.328  20.238  0.00  0.00    +0.000 C 
ATOM      8  C   UNL     1       2.472   7.496  19.951  0.00  0.00    +0.000 C 
ATOM      9  N   UNL     1       2.590   7.915  18.527  0.00  0.00    +0.000 NA
ATOM     10  C   UNL     1       2.816   6.709  17.711  0.00  0.00    +0.000 C 
ATOM     11  C   UNL     1       1.732   5.643  17.899  0.00  0.00    +0.000 C 
BRANCH   9  12
ATOM     12  C   UNL     1       1.408   8.689  18.104  0.00  0.00    +0.000 C 
BRANCH  12  13
ATOM     13  C   UNL     1       1.459  10.165  18.454  0.00  0.00    +0.000 A 
ATOM     14  C   UNL     1       2.411  11.016  17.866  0.00  0.00    +0.000 A 
ATOM     15  C   UNL     1       2.473  12.366  18.222  0.00  0.00    +0.000 A 
ATOM     16  C   UNL     1       1.585  12.885  19.161  0.00  0.00    +0.000 A 
ATOM     17  C   UNL     1       0.620  12.057  19.729  0.00  0.00    +0.000 A 
ATOM     18 CL   UNL     1      -0.491  12.698  20.876  0.00  0.00    +0.000 Cl
ATOM     19  C   UNL     1       0.554  10.706  19.382  0.00  0.00    +0.000 A 
ENDBRANCH  12  13
ENDBRANCH   9  12
ENDBRANCH   2   4
BRANCH   2  20
ATOM     20  S   UNL     1       3.714   2.241  19.367  0.00  0.00    +0.000 S 
ATOM     21  O   UNL     1       3.754   2.190  20.824  0.00  0.00    +0.000 OA
ATOM     22  O   UNL     1       4.125   1.053  18.637  0.00  0.00    +0.000 OA
BRANCH  20  23
ATOM     23  C   UNL     1       4.807   3.582  18.893  0.00  0.00    +0.000 A 
ATOM     24  C   UNL     1       5.132   4.588  19.786  0.00  0.00    +0.000 A 
ATOM     25  C   UNL     1       5.896   5.650  19.306  0.00  0.00    +0.000 A 
ATOM     26  C   UNL     1       6.295   5.676  17.962  0.00  0.00    +0.000 A 
ATOM     27  C   UNL     1       5.905   4.618  17.150  0.00  0.00    +0.000 A 
ATOM     28  N   UNL     1       5.170   3.571  17.581  0.00  0.00    +0.000 NA
BRANCH  26  29
ATOM     29  C   UNL     1       7.110   6.789  17.377  0.00  0.00    +0.000 C 
ATOM     30  F   UNL     1       7.706   6.464  16.197  0.00  0.00    +0.000 F 
ATOM     31  F   UNL     1       6.365   7.900  17.126  0.00  0.00    +0.000 F 
ATOM     32  F   UNL     1       8.113   7.191  18.205  0.00  0.00    +0.000 F 
ENDBRANCH  26  29
ENDBRANCH  20  23
ENDBRANCH   2  20
TORSDOF 6
ENDMDL
