MODEL 1
REMARK VINA RESULT:      -7.6      0.000      0.000
REMARK  Name = 
REMARK  5 active torsions:
REMARK  status: ('A' for Active; 'I' for Inactive)
REMARK    1  A    between atoms: C_1  and  O_2
REMARK    2  A    between atoms: O_2  and  C_3
REMARK    3  A    between atoms: C_12  and  C_13
REMARK    4  A    between atoms: C_24  and  O_25
REMARK    5  A    between atoms: O_25  and  C_26
REMARK                            x       y       z     vdW  Elec       q    Type
REMARK                         _______ _______ _______ _____ _____    ______ ____
ROOT
ATOM      1  C   UNL     1       0.609   9.784  20.233  0.00  0.00    +0.000 A 
ATOM      2  C   UNL     1       1.604   9.265  19.395  0.00  0.00    +0.000 A 
ATOM      3  C   UNL     1       1.995   7.940  19.573  0.00  0.00    +0.000 A 
ATOM      4  N   UNL     1       2.953   7.236  18.902  0.00  0.00    +0.000 N 
ATOM      5  C   UNL     1       3.031   5.955  19.368  0.00  0.00    +0.000 A 
ATOM      6  C   UNL     1       3.878   4.924  18.992  0.00  0.00    +0.000 A 
ATOM      7  N   UNL     1       4.817   5.146  18.008  0.00  0.00    +0.000 N 
ATOM      8  C   UNL     1       6.074   4.419  18.066  0.00  0.00    +0.000 C 
ATOM      9  C   UNL     1       7.138   5.362  17.490  0.00  0.00    +0.000 C 
ATOM     10  C   UNL     1       6.770   5.862  16.079  0.00  0.00    +0.000 C 
ATOM     11  C   UNL     1       5.328   6.394  16.019  0.00  0.00    +0.000 C 
ATOM     12  C   UNL     1       4.334   5.417  16.655  0.00  0.00    +0.000 C 
ATOM     13  N   UNL     1       3.811   3.799  19.730  0.00  0.00    +0.000 NA
ATOM     14  C   UNL     1       2.887   3.741  20.718  0.00  0.00    +0.000 A 
ATOM     15  N   UNL     1       2.014   4.686  21.115  0.00  0.00    +0.000 NA
ATOM     16  C   UNL     1       2.128   5.833  20.406  0.00  0.00    +0.000 A 
ATOM     17  C   UNL     1       1.455   7.092  20.536  0.00  0.00    +0.000 A 
ATOM     18  C   UNL     1       0.463   7.625  21.380  0.00  0.00    +0.000 A 
ATOM     19  C   UNL     1       0.043   8.968  21.232  0.00  0.00    +0.000 A 
ATOM     20  H   UNL     1       3.548   7.604  18.174  0.00  0.00    +0.000 HD
ENDROOT
BRANCH  10  21
ATOM     21  C   UNL     1       6.995   4.780  15.036  0.00  0.00    +0.000 C 
ATOM     22  N   UNL     1       7.761   5.154  13.972  0.00  0.00    +0.000 N 
ATOM     23  O   UNL     1       6.526   3.650  15.098  0.00  0.00    +0.000 OA
ATOM     24  H   UNL     1       8.011   6.114  13.786  0.00  0.00    +0.000 HD
ATOM     25  H   UNL     1       7.877   4.476  13.227  0.00  0.00    +0.000 HD
ENDBRANCH  10  21
BRANCH   1  27
ATOM     26  C   UNL     1       1.150  12.087  20.536  0.00  0.00    +0.000 C 
ATOM     27  O   UNL     1       0.215  11.094  20.126  0.00  0.00    +0.000 OA
ENDBRANCH   1  27
BRANCH  19  28
ATOM     28  O   UNL     1      -0.929   9.300  22.144  0.00  0.00    +0.000 OA
ATOM     29  C   UNL     1      -0.565  10.079  23.273  0.00  0.00    +0.000 C 
ENDBRANCH  19  28
TORSDOF 3
ENDMDL
MODEL 2
REMARK VINA RESULT:      -7.0      4.290      8.479
REMARK  Name = 
REMARK  5 active torsions:
REMARK  status: ('A' for Active; 'I' for Inactive)
REMARK    1  A    between atoms: C_1  and  O_2
REMARK    2  A    between atoms: O_2  and  C_3
REMARK    3  A    between atoms: C_12  and  C_13
REMARK    4  A    between atoms: C_24  and  O_25
REMARK    5  A    between atoms: O_25  and  C_26
REMARK                            x       y       z     vdW  Elec       q    Type
REMARK                         _______ _______ _______ _____ _____    ______ ____
ROOT
ATOM      1  C   UNL     1       5.827   3.776  12.639  0.00  0.00    +0.000 A 
ATOM      2  C   UNL     1       5.048   3.484  13.767  0.00  0.00    +0.000 A 
ATOM      3  C   UNL     1       5.464   3.975  15.004  0.00  0.00    +0.000 A 
ATOM      4  N   UNL     1       4.889   3.796  16.228  0.00  0.00    +0.000 N 
ATOM      5  C   UNL     1       5.597   4.448  17.197  0.00  0.00    +0.000 A 
ATOM      6  C   UNL     1       5.382   4.505  18.566  0.00  0.00    +0.000 A 
ATOM      7  N   UNL     1       4.315   3.823  19.112  0.00  0.00    +0.000 N 
ATOM      8  C   UNL     1       4.439   3.302  20.463  0.00  0.00    +0.000 C 
ATOM      9  C   UNL     1       3.619   2.005  20.494  0.00  0.00    +0.000 C 
ATOM     10  C   UNL     1       2.162   2.227  20.040  0.00  0.00    +0.000 C 
ATOM     11  C   UNL     1       2.088   3.012  18.719  0.00  0.00    +0.000 C 
ATOM     12  C   UNL     1       2.969   4.264  18.751  0.00  0.00    +0.000 C 
ATOM     13  N   UNL     1       6.333   5.122  19.292  0.00  0.00    +0.000 NA
ATOM     14  C   UNL     1       7.369   5.690  18.632  0.00  0.00    +0.000 A 
ATOM     15  N   UNL     1       7.623   5.702  17.309  0.00  0.00    +0.000 NA
ATOM     16  C   UNL     1       6.693   5.030  16.592  0.00  0.00    +0.000 A 
ATOM     17  C   UNL     1       6.610   4.743  15.191  0.00  0.00    +0.000 A 
ATOM     18  C   UNL     1       7.391   5.022  14.055  0.00  0.00    +0.000 A 
ATOM     19  C   UNL     1       7.003   4.537  12.783  0.00  0.00    +0.000 A 
ATOM     20  H   UNL     1       4.065   3.243  16.414  0.00  0.00    +0.000 HD
ENDROOT
BRANCH  10  21
ATOM     21  C   UNL     1       1.345   2.910  21.125  0.00  0.00    +0.000 C 
ATOM     22  N   UNL     1       0.524   3.907  20.687  0.00  0.00    +0.000 N 
ATOM     23  O   UNL     1       1.404   2.631  22.317  0.00  0.00    +0.000 OA
ATOM     24  H   UNL     1       0.579   4.294  19.756  0.00  0.00    +0.000 HD
ATOM     25  H   UNL     1       0.014   4.426  21.393  0.00  0.00    +0.000 HD
ENDBRANCH  10  21
BRANCH   1  27
ATOM     26  C   UNL     1       4.094   3.133  11.133  0.00  0.00    +0.000 C 
ATOM     27  O   UNL     1       5.484   3.285  11.405  0.00  0.00    +0.000 OA
ENDBRANCH   1  27
BRANCH  19  28
ATOM     28  O   UNL     1       7.890   4.914  11.803  0.00  0.00    +0.000 OA
ATOM     29  C   UNL     1       8.146   6.296  11.611  0.00  0.00    +0.000 C 
ENDBRANCH  19  28
TORSDOF 3
ENDMDL
MODEL 3
REMARK VINA RESULT:      -7.0      1.301      1.547
REMARK  Name = 
REMARK  5 active torsions:
REMARK  status: ('A' for Active; 'I' for Inactive)
REMARK    1  A    between atoms: C_1  and  O_2
REMARK    2  A    between atoms: O_2  and  C_3
REMARK    3  A    between atoms: C_12  and  C_13
REMARK    4  A    between atoms: C_24  and  O_25
REMARK    5  A    between atoms: O_25  and  C_26
REMARK                            x       y       z     vdW  Elec       q    Type
REMARK                         _______ _______ _______ _____ _____    ______ ____
ROOT
ATOM      1  C   UNL     1       0.510  11.188  18.952  0.00  0.00    +0.000 A 
ATOM      2  C   UNL     1       1.583  10.472  18.403  0.00  0.00    +0.000 A 
ATOM      3  C   UNL     1       1.832   9.186  18.877  0.00  0.00    +0.000 A 
ATOM      4  N   UNL     1       2.826   8.323  18.517  0.00  0.00    +0.000 N 
ATOM      5  C   UNL     1       2.725   7.149  19.208  0.00  0.00    +0.000 A 
ATOM      6  C   UNL     1       3.536   6.026  19.171  0.00  0.00    +0.000 A 
ATOM      7  N   UNL     1       4.637   6.014  18.341  0.00  0.00    +0.000 N 
ATOM      8  C   UNL     1       5.805   5.248  18.743  0.00  0.00    +0.000 C 
ATOM      9  C   UNL     1       7.020   6.014  18.203  0.00  0.00    +0.000 C 
ATOM     10  C   UNL     1       6.926   6.259  16.683  0.00  0.00    +0.000 C 
ATOM     11  C   UNL     1       5.559   6.840  16.281  0.00  0.00    +0.000 C 
ATOM     12  C   UNL     1       4.401   6.050  16.898  0.00  0.00    +0.000 C 
ATOM     13  N   UNL     1       3.262   5.064  20.073  0.00  0.00    +0.000 NA
ATOM     14  C   UNL     1       2.190   5.236  20.881  0.00  0.00    +0.000 A 
ATOM     15  N   UNL     1       1.342   6.282  20.948  0.00  0.00    +0.000 NA
ATOM     16  C   UNL     1       1.660   7.269  20.079  0.00  0.00    +0.000 A 
ATOM     17  C   UNL     1       1.078   8.561  19.866  0.00  0.00    +0.000 A 
ATOM     18  C   UNL     1       0.009   9.290  20.418  0.00  0.00    +0.000 A 
ATOM     19  C   UNL     1      -0.272  10.601  19.966  0.00  0.00    +0.000 A 
ATOM     20  H   UNL     1       3.558   8.518  17.849  0.00  0.00    +0.000 HD
ENDROOT
BRANCH  10  21
ATOM     21  C   UNL     1       7.228   4.990  15.902  0.00  0.00    +0.000 C 
ATOM     22  N   UNL     1       6.841   5.012  14.594  0.00  0.00    +0.000 N 
ATOM     23  O   UNL     1       7.759   3.993  16.377  0.00  0.00    +0.000 OA
ATOM     24  H   UNL     1       6.241   5.728  14.211  0.00  0.00    +0.000 HD
ATOM     25  H   UNL     1       6.970   4.159  14.062  0.00  0.00    +0.000 HD
ENDBRANCH  10  21
BRANCH   1  27
ATOM     26  C   UNL     1       0.966  13.515  19.196  0.00  0.00    +0.000 C 
ATOM     27  O   UNL     1       0.245  12.472  18.549  0.00  0.00    +0.000 OA
ENDBRANCH   1  27
BRANCH  19  28
ATOM     28  O   UNL     1      -1.349  11.146  20.623  0.00  0.00    +0.000 OA
ATOM     29  C   UNL     1      -1.156  11.670  21.928  0.00  0.00    +0.000 C 
ENDBRANCH  19  28
TORSDOF 3
ENDMDL
MODEL 4
REMARK VINA RESULT:      -6.8      3.133      4.710
REMARK  Name = 
REMARK  5 active torsions:
REMARK  status: ('A' for Active; 'I' for Inactive)
REMARK    1  A    between atoms: C_1  and  O_2
REMARK    2  A    between atoms: O_2  and  C_3
REMARK    3  A    between atoms: C_12  and  C_13
REMARK    4  A    between atoms: C_24  and  O_25
REMARK    5  A    between atoms: O_25  and  C_26
REMARK                            x       y       z     vdW  Elec       q    Type
REMARK                         _______ _______ _______ _____ _____    ______ ____
ROOT
ATOM      1  C   UNL     1      -0.573  10.835  22.535  0.00  0.00    +0.000 A 
ATOM      2  C   UNL     1      -0.207   9.503  22.298  0.00  0.00    +0.000 A 
ATOM      3  C   UNL     1       0.531   9.214  21.153  0.00  0.00    +0.000 A 
ATOM      4  N   UNL     1       0.970   8.002  20.705  0.00  0.00    +0.000 N 
ATOM      5  C   UNL     1       1.671   8.138  19.541  0.00  0.00    +0.000 A 
ATOM      6  C   UNL     1       2.260   7.170  18.742  0.00  0.00    +0.000 A 
ATOM      7  N   UNL     1       2.165   5.844  19.106  0.00  0.00    +0.000 N 
ATOM      8  C   UNL     1       2.133   4.835  18.060  0.00  0.00    +0.000 C 
ATOM      9  C   UNL     1       1.239   3.704  18.588  0.00  0.00    +0.000 C 
ATOM     10  C   UNL     1       1.718   3.174  19.954  0.00  0.00    +0.000 C 
ATOM     11  C   UNL     1       1.981   4.316  20.951  0.00  0.00    +0.000 C 
ATOM     12  C   UNL     1       2.838   5.425  20.334  0.00  0.00    +0.000 C 
ATOM     13  N   UNL     1       2.774   7.596  17.572  0.00  0.00    +0.000 NA
ATOM     14  C   UNL     1       2.737   8.923  17.307  0.00  0.00    +0.000 A 
ATOM     15  N   UNL     1       2.213   9.918  18.048  0.00  0.00    +0.000 NA
ATOM     16  C   UNL     1       1.649   9.475  19.195  0.00  0.00    +0.000 A 
ATOM     17  C   UNL     1       0.933  10.170  20.224  0.00  0.00    +0.000 A 
ATOM     18  C   UNL     1       0.552  11.502  20.465  0.00  0.00    +0.000 A 
ATOM     19  C   UNL     1      -0.202  11.834  21.615  0.00  0.00    +0.000 A 
ATOM     20  H   UNL     1       0.791   7.113  21.150  0.00  0.00    +0.000 HD
ENDROOT
BRANCH  10  21
ATOM     21  C   UNL     1       2.947   2.292  19.802  0.00  0.00    +0.000 C 
ATOM     22  N   UNL     1       2.934   1.468  18.715  0.00  0.00    +0.000 N 
ATOM     23  O   UNL     1       3.891   2.277  20.583  0.00  0.00    +0.000 OA
ATOM     24  H   UNL     1       2.109   1.311  18.155  0.00  0.00    +0.000 HD
ATOM     25  H   UNL     1       3.709   0.821  18.619  0.00  0.00    +0.000 HD
ENDBRANCH  10  21
BRANCH   1  27
ATOM     26  C   UNL     1      -2.600  11.769  23.376  0.00  0.00    +0.000 C 
ATOM     27  O   UNL     1      -1.333  11.168  23.628  0.00  0.00    +0.000 OA
ENDBRANCH   1  27
BRANCH  19  28
ATOM     28  O   UNL     1      -0.474  13.179  21.674  0.00  0.00    +0.000 OA
ATOM     29  C   UNL     1      -1.020  13.815  20.529  0.00  0.00    +0.000 C 
ENDBRANCH  19  28
TORSDOF 3
ENDMDL
MODEL 5
REMARK VINA RESULT:      -6.8      3.587      8.034
REMARK  Name = 
REMARK  5 active torsions:
REMARK  status: ('A' for Active; 'I' for Inactive)
REMARK    1  A    between atoms: C_1  and  O_2
REMARK    2  A    between atoms: O_2  and  C_3
REMARK    3  A    between atoms: C_12  and  C_13
REMARK    4  A    between atoms: C_24  and  O_25
REMARK    5  A    between atoms: O_25  and  C_26
REMARK                            x       y       z     vdW  Elec       q    Type
REMARK                         _______ _______ _______ _____ _____    ______ ____
ROOT
ATOM      1  C   UNL     1       2.638   6.285  18.635  0.00  0.00    +0.000 A 
ATOM      2  C   UNL     1       2.440   7.665  18.485  0.00  0.00    +0.000 A 
ATOM      3  C   UNL     1       1.811   8.359  19.517  0.00  0.00    +0.000 A 
ATOM      4  N   UNL     1       1.489   9.683  19.581  0.00  0.00    +0.000 N 
ATOM      5  C   UNL     1       0.885   9.980  20.769  0.00  0.00    +0.000 A 
ATOM      6  C   UNL     1       0.377  11.185  21.230  0.00  0.00    +0.000 A 
ATOM      7  N   UNL     1       0.451  12.301  20.424  0.00  0.00    +0.000 N 
ATOM      8  C   UNL     1      -0.591  13.309  20.532  0.00  0.00    +0.000 C 
ATOM      9  C   UNL     1      -0.762  13.896  19.124  0.00  0.00    +0.000 C 
ATOM     10  C   UNL     1       0.566  14.429  18.550  0.00  0.00    +0.000 C 
ATOM     11  C   UNL     1       1.704  13.403  18.695  0.00  0.00    +0.000 C 
ATOM     12  C   UNL     1       1.778  12.830  20.113  0.00  0.00    +0.000 C 
ATOM     13  N   UNL     1      -0.289  11.142  22.399  0.00  0.00    +0.000 NA
ATOM     14  C   UNL     1      -0.347   9.960  23.055  0.00  0.00    +0.000 A 
ATOM     15  N   UNL     1       0.149   8.763  22.685  0.00  0.00    +0.000 NA
ATOM     16  C   UNL     1       0.766   8.803  21.482  0.00  0.00    +0.000 A 
ATOM     17  C   UNL     1       1.365   7.766  20.695  0.00  0.00    +0.000 A 
ATOM     18  C   UNL     1       1.559   6.379  20.831  0.00  0.00    +0.000 A 
ATOM     19  C   UNL     1       2.190   5.640  19.803  0.00  0.00    +0.000 A 
ATOM     20  H   UNL     1       1.649  10.361  18.850  0.00  0.00    +0.000 HD
ENDROOT
BRANCH  10  21
ATOM     21  C   UNL     1       0.947  15.756  19.187  0.00  0.00    +0.000 C 
ATOM     22  N   UNL     1       2.233  16.153  18.965  0.00  0.00    +0.000 N 
ATOM     23  O   UNL     1       0.194  16.438  19.870  0.00  0.00    +0.000 OA
ATOM     24  H   UNL     1       2.936  15.545  18.572  0.00  0.00    +0.000 HD
ATOM     25  H   UNL     1       2.538  17.001  19.428  0.00  0.00    +0.000 HD
ENDBRANCH  10  21
BRANCH   1  27
ATOM     26  C   UNL     1       4.433   6.048  17.083  0.00  0.00    +0.000 C 
ATOM     27  O   UNL     1       3.217   5.549  17.633  0.00  0.00    +0.000 OA
ENDBRANCH   1  27
BRANCH  19  28
ATOM     28  O   UNL     1       2.287   4.307  20.121  0.00  0.00    +0.000 OA
ATOM     29  C   UNL     1       1.102   3.594  20.437  0.00  0.00    +0.000 C 
ENDBRANCH  19  28
TORSDOF 3
ENDMDL
MODEL 6
REMARK VINA RESULT:      -6.7      3.190      8.005
REMARK  Name = 
REMARK  5 active torsions:
REMARK  status: ('A' for Active; 'I' for Inactive)
REMARK    1  A    between atoms: C_1  and  O_2
REMARK    2  A    between atoms: O_2  and  C_3
REMARK    3  A    between atoms: C_12  and  C_13
REMARK    4  A    between atoms: C_24  and  O_25
REMARK    5  A    between atoms: O_25  and  C_26
REMARK                            x       y       z     vdW  Elec       q    Type
REMARK                         _______ _______ _______ _____ _____    ______ ____
ROOT
ATOM      1  C   UNL     1       3.912   6.340  17.512  0.00  0.00    +0.000 A 
ATOM      2  C   UNL     1       3.385   7.639  17.503  0.00  0.00    +0.000 A 
ATOM      3  C   UNL     1       2.560   8.025  18.557  0.00  0.00    +0.000 A 
ATOM      4  N   UNL     1       1.917   9.215  18.745  0.00  0.00    +0.000 N 
ATOM      5  C   UNL     1       1.208   9.205  19.912  0.00  0.00    +0.000 A 
ATOM      6  C   UNL     1       0.398  10.185  20.466  0.00  0.00    +0.000 A 
ATOM      7  N   UNL     1       0.227  11.378  19.796  0.00  0.00    +0.000 N 
ATOM      8  C   UNL     1      -1.036  12.083  19.941  0.00  0.00    +0.000 C 
ATOM      9  C   UNL     1      -1.287  12.783  18.598  0.00  0.00    +0.000 C 
ATOM     10  C   UNL     1      -0.109  13.688  18.184  0.00  0.00    +0.000 C 
ATOM     11  C   UNL     1       1.240  12.957  18.295  0.00  0.00    +0.000 C 
ATOM     12  C   UNL     1       1.393  12.246  19.643  0.00  0.00    +0.000 C 
ATOM     13  N   UNL     1      -0.286   9.836  21.572  0.00  0.00    +0.000 NA
ATOM     14  C   UNL     1      -0.076   8.602  22.087  0.00  0.00    +0.000 A 
ATOM     15  N   UNL     1       0.716   7.617  21.623  0.00  0.00    +0.000 NA
ATOM     16  C   UNL     1       1.355   7.955  20.479  0.00  0.00    +0.000 A 
ATOM     17  C   UNL     1       2.225   7.199  19.627  0.00  0.00    +0.000 A 
ATOM     18  C   UNL     1       2.751   5.894  19.622  0.00  0.00    +0.000 A 
ATOM     19  C   UNL     1       3.589   5.464  18.566  0.00  0.00    +0.000 A 
ATOM     20  H   UNL     1       1.935   9.997  18.107  0.00  0.00    +0.000 HD
ENDROOT
BRANCH  10  21
ATOM     21  C   UNL     1      -0.097  14.977  18.990  0.00  0.00    +0.000 C 
ATOM     22  N   UNL     1      -1.317  15.388  19.438  0.00  0.00    +0.000 N 
ATOM     23  O   UNL     1       0.908  15.638  19.225  0.00  0.00    +0.000 OA
ATOM     24  H   UNL     1      -2.185  14.985  19.117  0.00  0.00    +0.000 HD
ATOM     25  H   UNL     1      -1.353  16.277  19.923  0.00  0.00    +0.000 HD
ENDBRANCH  10  21
BRANCH   1  27
ATOM     26  C   UNL     1       6.106   6.060  16.621  0.00  0.00    +0.000 C 
ATOM     27  O   UNL     1       4.698   5.897  16.479  0.00  0.00    +0.000 OA
ENDBRANCH   1  27
BRANCH  19  28
ATOM     28  O   UNL     1       4.000   4.165  18.740  0.00  0.00    +0.000 OA
ATOM     29  C   UNL     1       3.251   3.126  18.130  0.00  0.00    +0.000 C 
ENDBRANCH  19  28
TORSDOF 3
ENDMDL
MODEL 7
REMARK VINA RESULT:      -6.3      6.553     10.079
REMARK  Name = 
REMARK  5 active torsions:
REMARK  status: ('A' for Active; 'I' for Inactive)
REMARK    1  A    between atoms: C_1  and  O_2
REMARK    2  A    between atoms: O_2  and  C_3
REMARK    3  A    between atoms: C_12  and  C_13
REMARK    4  A    between atoms: C_24  and  O_25
REMARK    5  A    between atoms: O_25  and  C_26
REMARK                            x       y       z     vdW  Elec       q    Type
REMARK                         _______ _______ _______ _____ _____    ______ ____
ROOT
ATOM      1  C   UNL     1       1.532  16.460  18.919  0.00  0.00    +0.000 A 
ATOM      2  C   UNL     1       0.244  15.909  18.966  0.00  0.00    +0.000 A 
ATOM      3  C   UNL     1       0.114  14.524  18.890  0.00  0.00    +0.000 A 
ATOM      4  N   UNL     1      -1.026  13.774  18.886  0.00  0.00    +0.000 N 
ATOM      5  C   UNL     1      -0.732  12.443  18.807  0.00  0.00    +0.000 A 
ATOM      6  C   UNL     1      -1.581  11.349  18.747  0.00  0.00    +0.000 A 
ATOM      7  N   UNL     1      -2.945  11.551  18.760  0.00  0.00    +0.000 N 
ATOM      8  C   UNL     1      -3.796  10.611  18.048  0.00  0.00    +0.000 C 
ATOM      9  C   UNL     1      -4.982  11.428  17.520  0.00  0.00    +0.000 C 
ATOM     10  C   UNL     1      -5.705  12.199  18.644  0.00  0.00    +0.000 C 
ATOM     11  C   UNL     1      -4.717  12.981  19.527  0.00  0.00    +0.000 C 
ATOM     12  C   UNL     1      -3.539  12.109  19.973  0.00  0.00    +0.000 C 
ATOM     13  N   UNL     1      -0.998  10.153  18.536  0.00  0.00    +0.000 NA
ATOM     14  C   UNL     1       0.353  10.107  18.472  0.00  0.00    +0.000 A 
ATOM     15  N   UNL     1       1.237  11.119  18.555  0.00  0.00    +0.000 NA
ATOM     16  C   UNL     1       0.641  12.324  18.708  0.00  0.00    +0.000 A 
ATOM     17  C   UNL     1       1.189  13.646  18.772  0.00  0.00    +0.000 A 
ATOM     18  C   UNL     1       2.477  14.209  18.716  0.00  0.00    +0.000 A 
ATOM     19  C   UNL     1       2.649  15.612  18.786  0.00  0.00    +0.000 A 
ATOM     20  H   UNL     1      -1.967  14.138  18.915  0.00  0.00    +0.000 HD
ENDROOT
BRANCH  10  21
ATOM     21  C   UNL     1      -6.565  11.268  19.483  0.00  0.00    +0.000 C 
ATOM     22  N   UNL     1      -7.158  10.252  18.793  0.00  0.00    +0.000 N 
ATOM     23  O   UNL     1      -6.756  11.397  20.686  0.00  0.00    +0.000 OA
ATOM     24  H   UNL     1      -7.182  10.214  17.784  0.00  0.00    +0.000 HD
ATOM     25  H   UNL     1      -7.789   9.651  19.310  0.00  0.00    +0.000 HD
ENDBRANCH  10  21
BRANCH   1  27
ATOM     26  C   UNL     1       0.547  18.631  18.843  0.00  0.00    +0.000 C 
ATOM     27  O   UNL     1       1.714  17.820  18.951  0.00  0.00    +0.000 OA
ENDBRANCH   1  27
BRANCH  19  28
ATOM     28  O   UNL     1       3.974  15.966  18.716  0.00  0.00    +0.000 OA
ATOM     29  C   UNL     1       4.821  15.262  17.822  0.00  0.00    +0.000 C 
ENDBRANCH  19  28
TORSDOF 3
ENDMDL
MODEL 8
REMARK VINA RESULT:      -6.0      8.891     11.522
REMARK  Name = 
REMARK  5 active torsions:
REMARK  status: ('A' for Active; 'I' for Inactive)
REMARK    1  A    between atoms: C_1  and  O_2
REMARK    2  A    between atoms: O_2  and  C_3
REMARK    3  A    between atoms: C_12  and  C_13
REMARK    4  A    between atoms: C_24  and  O_25
REMARK    5  A    between atoms: O_25  and  C_26
REMARK                            x       y       z     vdW  Elec       q    Type
REMARK                         _______ _______ _______ _____ _____    ______ ____
ROOT
ATOM      1  C   UNL     1      10.508  13.431  20.090  0.00  0.00    +0.000 A 
ATOM      2  C   UNL     1       9.997  13.016  21.328  0.00  0.00    +0.000 A 
ATOM      3  C   UNL     1       8.705  13.405  21.674  0.00  0.00    +0.000 A 
ATOM      4  N   UNL     1       8.017  13.148  22.825  0.00  0.00    +0.000 N 
ATOM      5  C   UNL     1       6.767  13.697  22.777  0.00  0.00    +0.000 A 
ATOM      6  C   UNL     1       5.763  13.700  23.733  0.00  0.00    +0.000 A 
ATOM      7  N   UNL     1       5.982  13.081  24.945  0.00  0.00    +0.000 N 
ATOM      8  C   UNL     1       5.323  13.611  26.127  0.00  0.00    +0.000 C 
ATOM      9  C   UNL     1       6.289  13.370  27.295  0.00  0.00    +0.000 C 
ATOM     10  C   UNL     1       6.695  11.887  27.417  0.00  0.00    +0.000 C 
ATOM     11  C   UNL     1       7.148  11.305  26.067  0.00  0.00    +0.000 C 
ATOM     12  C   UNL     1       6.156  11.630  24.946  0.00  0.00    +0.000 C 
ATOM     13  N   UNL     1       4.677  14.445  23.452  0.00  0.00    +0.000 NA
ATOM     14  C   UNL     1       4.622  15.062  22.248  0.00  0.00    +0.000 A 
ATOM     15  N   UNL     1       5.541  15.074  21.263  0.00  0.00    +0.000 NA
ATOM     16  C   UNL     1       6.654  14.372  21.578  0.00  0.00    +0.000 A 
ATOM     17  C   UNL     1       7.881  14.181  20.863  0.00  0.00    +0.000 A 
ATOM     18  C   UNL     1       8.406  14.600  19.627  0.00  0.00    +0.000 A 
ATOM     19  C   UNL     1       9.717  14.230  19.242  0.00  0.00    +0.000 A 
ATOM     20  H   UNL     1       8.376  12.642  23.621  0.00  0.00    +0.000 HD
ENDROOT
BRANCH  10  21
ATOM     21  C   UNL     1       5.572  11.057  28.018  0.00  0.00    +0.000 C 
ATOM     22  N   UNL     1       5.726   9.707  27.899  0.00  0.00    +0.000 N 
ATOM     23  O   UNL     1       4.578  11.525  28.559  0.00  0.00    +0.000 OA
ATOM     24  H   UNL     1       6.424   9.284  27.305  0.00  0.00    +0.000 HD
ATOM     25  H   UNL     1       4.965   9.126  28.232  0.00  0.00    +0.000 HD
ENDBRANCH  10  21
BRANCH   1  27
ATOM     26  C   UNL     1      11.986  11.831  19.119  0.00  0.00    +0.000 C 
ATOM     27  O   UNL     1      11.788  13.109  19.718  0.00  0.00    +0.000 OA
ENDBRANCH   1  27
BRANCH  19  28
ATOM     28  O   UNL     1      10.046  14.733  18.008  0.00  0.00    +0.000 OA
ATOM     29  C   UNL     1       9.672  16.066  17.693  0.00  0.00    +0.000 C 
ENDBRANCH  19  28
TORSDOF 3
ENDMDL
MODEL 9
REMARK VINA RESULT:      -6.0      4.295      9.787
REMARK  Name = 
REMARK  5 active torsions:
REMARK  status: ('A' for Active; 'I' for Inactive)
REMARK    1  A    between atoms: C_1  and  O_2
REMARK    2  A    between atoms: O_2  and  C_3
REMARK    3  A    between atoms: C_12  and  C_13
REMARK    4  A    between atoms: C_24  and  O_25
REMARK    5  A    between atoms: O_25  and  C_26
REMARK                            x       y       z     vdW  Elec       q    Type
REMARK                         _______ _______ _______ _____ _____    ______ ____
ROOT
ATOM      1  C   UNL     1       1.705   6.883  20.494  0.00  0.00    +0.000 A 
ATOM      2  C   UNL     1       0.914   7.826  21.165  0.00  0.00    +0.000 A 
ATOM      3  C   UNL     1       0.790   9.099  20.612  0.00  0.00    +0.000 A 
ATOM      4  N   UNL     1       0.105  10.175  21.096  0.00  0.00    +0.000 N 
ATOM      5  C   UNL     1       0.220  11.244  20.253  0.00  0.00    +0.000 A 
ATOM      6  C   UNL     1      -0.288  12.528  20.375  0.00  0.00    +0.000 A 
ATOM      7  N   UNL     1      -1.029  12.859  21.490  0.00  0.00    +0.000 N 
ATOM      8  C   UNL     1      -0.982  14.228  21.977  0.00  0.00    +0.000 C 
ATOM      9  C   UNL     1      -1.125  14.140  23.502  0.00  0.00    +0.000 C 
ATOM     10  C   UNL     1      -2.391  13.368  23.926  0.00  0.00    +0.000 C 
ATOM     11  C   UNL     1      -2.519  12.028  23.182  0.00  0.00    +0.000 C 
ATOM     12  C   UNL     1      -2.317  12.193  21.673  0.00  0.00    +0.000 C 
ATOM     13  N   UNL     1       0.107  13.415  19.442  0.00  0.00    +0.000 NA
ATOM     14  C   UNL     1       0.897  12.972  18.437  0.00  0.00    +0.000 A 
ATOM     15  N   UNL     1       1.398  11.737  18.238  0.00  0.00    +0.000 NA
ATOM     16  C   UNL     1       1.044  10.867  19.212  0.00  0.00    +0.000 A 
ATOM     17  C   UNL     1       1.403   9.496  19.427  0.00  0.00    +0.000 A 
ATOM     18  C   UNL     1       2.203   8.546  18.766  0.00  0.00    +0.000 A 
ATOM     19  C   UNL     1       2.357   7.244  19.300  0.00  0.00    +0.000 A 
ATOM     20  H   UNL     1      -0.405  10.202  21.967  0.00  0.00    +0.000 HD
ENDROOT
BRANCH  10  21
ATOM     21  C   UNL     1      -3.639  14.216  23.738  0.00  0.00    +0.000 C 
ATOM     22  N   UNL     1      -4.757  13.741  24.360  0.00  0.00    +0.000 N 
ATOM     23  O   UNL     1      -3.687  15.242  23.071  0.00  0.00    +0.000 OA
ATOM     24  H   UNL     1      -4.812  12.816  24.760  0.00  0.00    +0.000 HD
ATOM     25  H   UNL     1      -5.620  14.247  24.203  0.00  0.00    +0.000 HD
ENDBRANCH  10  21
BRANCH   1  27
ATOM     26  C   UNL     1       1.110   4.574  20.463  0.00  0.00    +0.000 C 
ATOM     27  O   UNL     1       1.892   5.629  21.016  0.00  0.00    +0.000 OA
ENDBRANCH   1  27
BRANCH  19  28
ATOM     28  O   UNL     1       3.172   6.466  18.514  0.00  0.00    +0.000 OA
ATOM     29  C   UNL     1       3.914   7.087  17.476  0.00  0.00    +0.000 C 
ENDBRANCH  19  28
TORSDOF 3
ENDMDL
