MODEL 1
REMARK VINA RESULT:      -6.9      0.000      0.000
REMARK  Name = 
REMARK  6 active torsions:
REMARK  status: ('A' for Active; 'I' for Inactive)
REMARK    1  A    between atoms: C_1  and  C_2
REMARK    2  A    between atoms: C_2  and  C_3
REMARK    3  A    between atoms: C_3  and  S_4
REMARK    4  A    between atoms: S_4  and  N_7
REMARK    5  A    between atoms: C_16  and  C_17
REMARK    6  A    between atoms: N_20  and  C_21
REMARK                            x       y       z     vdW  Elec       q    Type
REMARK                         _______ _______ _______ _____ _____    ______ ____
ROOT
ATOM      1  N   UNL     1       2.504   7.624  19.171  0.00  0.00    +0.000 NA
ATOM      2  C   UNL     1       1.775   8.065  20.369  0.00  0.00    +0.000 C 
ATOM      3  C   UNL     1       0.938   9.332  20.150  0.00  0.00    +0.000 C 
ATOM      4  C   UNL     1       1.063  10.375  19.016  0.00  0.00    +0.000 C 
ATOM      5  C   UNL     1       1.932   9.794  17.893  0.00  0.00    +0.000 C 
ATOM      6  C   UNL     1       2.019   8.226  17.873  0.00  0.00    +0.000 C 
ATOM      7  C   UNL     1       1.491  11.715  19.782  0.00  0.00    +0.000 C 
ATOM      8  C   UNL     1       0.174  12.163  20.483  0.00  0.00    +0.000 C 
ATOM      9  N   UNL     1      -0.819  11.754  19.504  0.00  0.00    +0.000 N 
ATOM     10  C   UNL     1      -2.159  11.754  19.404  0.00  0.00    +0.000 A 
ATOM     11  C   UNL     1      -2.371  11.127  18.181  0.00  0.00    +0.000 A 
ATOM     12  N   UNL     1      -1.206  10.535  17.706  0.00  0.00    +0.000 NA
ATOM     13  C   UNL     1      -0.313  10.837  18.613  0.00  0.00    +0.000 A 
ENDROOT
BRANCH  10  14
ATOM     14  C   UNL     1      -3.175  12.207  20.383  0.00  0.00    +0.000 A 
ATOM     15  C   UNL     1      -3.108  12.271  21.788  0.00  0.00    +0.000 A 
ATOM     16  N   UNL     1      -4.279  12.610  22.341  0.00  0.00    +0.000 NA
ATOM     17  N   UNL     1      -5.096  12.749  21.280  0.00  0.00    +0.000 N 
ATOM     18  C   UNL     1      -6.498  13.030  21.473  0.00  0.00    +0.000 C 
ATOM     19  C   UNL     1      -4.469  12.555  20.084  0.00  0.00    +0.000 A 
ENDBRANCH  10  14
BRANCH   1  20
ATOM     20  S   UNL     1       2.630   5.900  19.199  0.00  0.00    +0.000 S 
ATOM     21  O   UNL     1       4.002   5.543  19.528  0.00  0.00    +0.000 OA
ATOM     22  O   UNL     1       2.008   5.419  17.990  0.00  0.00    +0.000 OA
BRANCH  20  23
ATOM     23  C   UNL     1       1.551   5.466  20.600  0.00  0.00    +0.000 C 
BRANCH  23  25
ATOM     24  C   UNL     1       1.674   3.068  21.433  0.00  0.00    +0.000 C 
ATOM     25  C   UNL     1       1.017   4.049  20.475  0.00  0.00    +0.000 C 
ENDBRANCH  23  25
ENDBRANCH  20  23
ENDBRANCH   1  20
TORSDOF 4
ENDMDL
MODEL 2
REMARK VINA RESULT:      -6.9      1.146      1.303
REMARK  Name = 
REMARK  6 active torsions:
REMARK  status: ('A' for Active; 'I' for Inactive)
REMARK    1  A    between atoms: C_1  and  C_2
REMARK    2  A    between atoms: C_2  and  C_3
REMARK    3  A    between atoms: C_3  and  S_4
REMARK    4  A    between atoms: S_4  and  N_7
REMARK    5  A    between atoms: C_16  and  C_17
REMARK    6  A    between atoms: N_20  and  C_21
REMARK                            x       y       z     vdW  Elec       q    Type
REMARK                         _______ _______ _______ _____ _____    ______ ____
ROOT
ATOM      1  N   UNL     1       2.386   7.486  19.406  0.00  0.00    +0.000 NA
ATOM      2  C   UNL     1       1.632   8.099  20.509  0.00  0.00    +0.000 C 
ATOM      3  C   UNL     1       0.809   9.324  20.087  0.00  0.00    +0.000 C 
ATOM      4  C   UNL     1       0.969  10.189  18.816  0.00  0.00    +0.000 C 
ATOM      5  C   UNL     1       1.860   9.448  17.812  0.00  0.00    +0.000 C 
ATOM      6  C   UNL     1       1.936   7.893  18.023  0.00  0.00    +0.000 C 
ATOM      7  C   UNL     1       1.388  11.626  19.389  0.00  0.00    +0.000 C 
ATOM      8  C   UNL     1       0.057  12.176  19.984  0.00  0.00    +0.000 C 
ATOM      9  N   UNL     1      -0.915  11.631  19.051  0.00  0.00    +0.000 N 
ATOM     10  C   UNL     1      -2.252  11.621  18.919  0.00  0.00    +0.000 A 
ATOM     11  C   UNL     1      -2.439  10.823  17.796  0.00  0.00    +0.000 A 
ATOM     12  N   UNL     1      -1.267  10.164  17.442  0.00  0.00    +0.000 NA
ATOM     13  C   UNL     1      -0.394  10.592  18.316  0.00  0.00    +0.000 A 
ENDROOT
BRANCH  10  14
ATOM     14  C   UNL     1      -3.288  12.216  19.796  0.00  0.00    +0.000 A 
ATOM     15  C   UNL     1      -3.184  12.701  21.113  0.00  0.00    +0.000 A 
ATOM     16  N   UNL     1      -4.372  13.043  21.628  0.00  0.00    +0.000 NA
ATOM     17  N   UNL     1      -5.235  12.759  20.635  0.00  0.00    +0.000 N 
ATOM     18  C   UNL     1      -6.656  12.910  20.839  0.00  0.00    +0.000 C 
ATOM     19  C   UNL     1      -4.627  12.297  19.503  0.00  0.00    +0.000 A 
ENDBRANCH  10  14
BRANCH   1  20
ATOM     20  S   UNL     1       2.499   5.784  19.690  0.00  0.00    +0.000 S 
ATOM     21  O   UNL     1       1.571   5.430  20.754  0.00  0.00    +0.000 OA
ATOM     22  O   UNL     1       3.904   5.475  19.799  0.00  0.00    +0.000 OA
BRANCH  20  23
ATOM     23  C   UNL     1       1.891   5.098  18.117  0.00  0.00    +0.000 C 
BRANCH  23  25
ATOM     24  C   UNL     1       1.076   2.732  18.560  0.00  0.00    +0.000 C 
ATOM     25  C   UNL     1       2.185   3.612  18.005  0.00  0.00    +0.000 C 
ENDBRANCH  23  25
ENDBRANCH  20  23
ENDBRANCH   1  20
TORSDOF 4
ENDMDL
MODEL 3
REMARK VINA RESULT:      -6.7      3.660      7.963
REMARK  Name = 
REMARK  6 active torsions:
REMARK  status: ('A' for Active; 'I' for Inactive)
REMARK    1  A    between atoms: C_1  and  C_2
REMARK    2  A    between atoms: C_2  and  C_3
REMARK    3  A    between atoms: C_3  and  S_4
REMARK    4  A    between atoms: S_4  and  N_7
REMARK    5  A    between atoms: C_16  and  C_17
REMARK    6  A    between atoms: N_20  and  C_21
REMARK                            x       y       z     vdW  Elec       q    Type
REMARK                         _______ _______ _______ _____ _____    ______ ____
ROOT
ATOM      1  N   UNL     1      -2.703  11.410  17.937  0.00  0.00    +0.000 NA
ATOM      2  C   UNL     1      -2.218  10.141  17.376  0.00  0.00    +0.000 C 
ATOM      3  C   UNL     1      -0.897   9.660  17.991  0.00  0.00    +0.000 C 
ATOM      4  C   UNL     1       0.137  10.482  18.794  0.00  0.00    +0.000 C 
ATOM      5  C   UNL     1      -0.498  11.812  19.217  0.00  0.00    +0.000 C 
ATOM      6  C   UNL     1      -2.068  11.812  19.247  0.00  0.00    +0.000 C 
ATOM      7  C   UNL     1       1.445  10.449  17.868  0.00  0.00    +0.000 C 
ATOM      8  C   UNL     1       1.978   8.997  18.054  0.00  0.00    +0.000 C 
ATOM      9  N   UNL     1       1.638   8.749  19.444  0.00  0.00    +0.000 N 
ATOM     10  C   UNL     1       1.728   7.725  20.311  0.00  0.00    +0.000 A 
ATOM     11  C   UNL     1       1.119   8.238  21.450  0.00  0.00    +0.000 A 
ATOM     12  N   UNL     1       0.452   9.427  21.176  0.00  0.00    +0.000 NA
ATOM     13  C   UNL     1       0.691   9.632  19.908  0.00  0.00    +0.000 A 
ENDROOT
BRANCH  10  14
ATOM     14  C   UNL     1       2.246   6.353  20.094  0.00  0.00    +0.000 A 
ATOM     15  C   UNL     1       3.365   5.917  19.360  0.00  0.00    +0.000 A 
ATOM     16  N   UNL     1       3.439   4.582  19.284  0.00  0.00    +0.000 NA
ATOM     17  N   UNL     1       2.351   4.172  19.962  0.00  0.00    +0.000 N 
ATOM     18  C   UNL     1       2.023   2.768  20.031  0.00  0.00    +0.000 C 
ATOM     19  C   UNL     1       1.627   5.196  20.499  0.00  0.00    +0.000 A 
ENDBRANCH  10  14
BRANCH   1  20
ATOM     20  S   UNL     1      -4.432  11.403  17.910  0.00  0.00    +0.000 S 
ATOM     21  O   UNL     1      -4.893  10.046  18.165  0.00  0.00    +0.000 OA
ATOM     22  O   UNL     1      -4.831  12.110  16.718  0.00  0.00    +0.000 OA
BRANCH  20  23
ATOM     23  C   UNL     1      -4.836  12.447  19.346  0.00  0.00    +0.000 C 
BRANCH  23  25
ATOM     24  C   UNL     1      -7.364  12.387  19.603  0.00  0.00    +0.000 C 
ATOM     25  C   UNL     1      -6.021  11.897  20.121  0.00  0.00    +0.000 C 
ENDBRANCH  23  25
ENDBRANCH  20  23
ENDBRANCH   1  20
TORSDOF 4
ENDMDL
MODEL 4
REMARK VINA RESULT:      -6.6      3.680      7.984
REMARK  Name = 
REMARK  6 active torsions:
REMARK  status: ('A' for Active; 'I' for Inactive)
REMARK    1  A    between atoms: C_1  and  C_2
REMARK    2  A    between atoms: C_2  and  C_3
REMARK    3  A    between atoms: C_3  and  S_4
REMARK    4  A    between atoms: S_4  and  N_7
REMARK    5  A    between atoms: C_16  and  C_17
REMARK    6  A    between atoms: N_20  and  C_21
REMARK                            x       y       z     vdW  Elec       q    Type
REMARK                         _______ _______ _______ _____ _____    ______ ____
ROOT
ATOM      1  N   UNL     1      -2.731  11.500  17.946  0.00  0.00    +0.000 NA
ATOM      2  C   UNL     1      -2.244  10.238  17.370  0.00  0.00    +0.000 C 
ATOM      3  C   UNL     1      -0.931   9.744  17.992  0.00  0.00    +0.000 C 
ATOM      4  C   UNL     1       0.097  10.550  18.817  0.00  0.00    +0.000 C 
ATOM      5  C   UNL     1      -0.538  11.875  19.255  0.00  0.00    +0.000 C 
ATOM      6  C   UNL     1      -2.108  11.880  19.268  0.00  0.00    +0.000 C 
ATOM      7  C   UNL     1       1.414  10.527  17.905  0.00  0.00    +0.000 C 
ATOM      8  C   UNL     1       1.941   9.070  18.074  0.00  0.00    +0.000 C 
ATOM      9  N   UNL     1       1.585   8.801  19.457  0.00  0.00    +0.000 N 
ATOM     10  C   UNL     1       1.663   7.764  20.308  0.00  0.00    +0.000 A 
ATOM     11  C   UNL     1       1.044   8.262  21.449  0.00  0.00    +0.000 A 
ATOM     12  N   UNL     1       0.383   9.457  21.186  0.00  0.00    +0.000 NA
ATOM     13  C   UNL     1       0.637   9.680  19.924  0.00  0.00    +0.000 A 
ENDROOT
BRANCH  10  14
ATOM     14  C   UNL     1       2.179   6.394  20.076  0.00  0.00    +0.000 A 
ATOM     15  C   UNL     1       1.712   5.160  20.567  0.00  0.00    +0.000 A 
ATOM     16  N   UNL     1       2.521   4.142  20.245  0.00  0.00    +0.000 NA
ATOM     17  N   UNL     1       3.513   4.739  19.558  0.00  0.00    +0.000 N 
ATOM     18  C   UNL     1       4.650   3.972  19.107  0.00  0.00    +0.000 C 
ATOM     19  C   UNL     1       3.332   6.082  19.398  0.00  0.00    +0.000 A 
ENDBRANCH  10  14
BRANCH   1  20
ATOM     20  S   UNL     1      -4.460  11.500  17.901  0.00  0.00    +0.000 S 
ATOM     21  O   UNL     1      -4.932  10.184  18.309  0.00  0.00    +0.000 OA
ATOM     22  O   UNL     1      -4.842  12.062  16.629  0.00  0.00    +0.000 OA
BRANCH  20  23
ATOM     23  C   UNL     1      -4.871  12.708  19.199  0.00  0.00    +0.000 C 
BRANCH  23  25
ATOM     24  C   UNL     1      -5.538  12.633  21.650  0.00  0.00    +0.000 C 
ATOM     25  C   UNL     1      -5.796  12.110  20.246  0.00  0.00    +0.000 C 
ENDBRANCH  23  25
ENDBRANCH  20  23
ENDBRANCH   1  20
TORSDOF 4
ENDMDL
MODEL 5
REMARK VINA RESULT:      -6.5      1.341      1.877
REMARK  Name = 
REMARK  6 active torsions:
REMARK  status: ('A' for Active; 'I' for Inactive)
REMARK    1  A    between atoms: C_1  and  C_2
REMARK    2  A    between atoms: C_2  and  C_3
REMARK    3  A    between atoms: C_3  and  S_4
REMARK    4  A    between atoms: S_4  and  N_7
REMARK    5  A    between atoms: C_16  and  C_17
REMARK    6  A    between atoms: N_20  and  C_21
REMARK                            x       y       z     vdW  Elec       q    Type
REMARK                         _______ _______ _______ _____ _____    ______ ____
ROOT
ATOM      1  N   UNL     1       2.341   7.545  19.298  0.00  0.00    +0.000 NA
ATOM      2  C   UNL     1       1.632   8.099  20.460  0.00  0.00    +0.000 C 
ATOM      3  C   UNL     1       0.822   9.363  20.142  0.00  0.00    +0.000 C 
ATOM      4  C   UNL     1       0.962  10.306  18.925  0.00  0.00    +0.000 C 
ATOM      5  C   UNL     1       1.810   9.615  17.849  0.00  0.00    +0.000 C 
ATOM      6  C   UNL     1       1.861   8.049  17.958  0.00  0.00    +0.000 C 
ATOM      7  C   UNL     1       1.426  11.694  19.576  0.00  0.00    +0.000 C 
ATOM      8  C   UNL     1       0.124  12.229  20.244  0.00  0.00    +0.000 C 
ATOM      9  N   UNL     1      -0.884  11.763  19.307  0.00  0.00    +0.000 N 
ATOM     10  C   UNL     1      -2.225  11.787  19.214  0.00  0.00    +0.000 A 
ATOM     11  C   UNL     1      -2.460  11.066  18.049  0.00  0.00    +0.000 A 
ATOM     12  N   UNL     1      -1.312  10.410  17.618  0.00  0.00    +0.000 NA
ATOM     13  C   UNL     1      -0.406  10.765  18.492  0.00  0.00    +0.000 A 
ENDROOT
BRANCH  10  14
ATOM     14  C   UNL     1      -3.223  12.342  20.158  0.00  0.00    +0.000 A 
ATOM     15  C   UNL     1      -3.103  12.635  21.529  0.00  0.00    +0.000 A 
ATOM     16  N   UNL     1      -4.267  13.002  22.079  0.00  0.00    +0.000 NA
ATOM     17  N   UNL     1      -5.133  12.927  21.051  0.00  0.00    +0.000 N 
ATOM     18  C   UNL     1      -6.540  13.167  21.266  0.00  0.00    +0.000 C 
ATOM     19  C   UNL     1      -4.547  12.573  19.871  0.00  0.00    +0.000 A 
ENDBRANCH  10  14
BRANCH   1  20
ATOM     20  S   UNL     1       2.428   5.826  19.468  0.00  0.00    +0.000 S 
ATOM     21  O   UNL     1       1.798   5.215  18.307  0.00  0.00    +0.000 OA
ATOM     22  O   UNL     1       1.978   5.518  20.803  0.00  0.00    +0.000 OA
BRANCH  20  23
ATOM     23  C   UNL     1       4.223   5.530  19.396  0.00  0.00    +0.000 C 
BRANCH  23  25
ATOM     24  C   UNL     1       5.285   6.604  17.352  0.00  0.00    +0.000 C 
ATOM     25  C   UNL     1       4.701   5.342  17.966  0.00  0.00    +0.000 C 
ENDBRANCH  23  25
ENDBRANCH  20  23
ENDBRANCH   1  20
TORSDOF 4
ENDMDL
MODEL 6
REMARK VINA RESULT:      -6.4      1.501      1.975
REMARK  Name = 
REMARK  6 active torsions:
REMARK  status: ('A' for Active; 'I' for Inactive)
REMARK    1  A    between atoms: C_1  and  C_2
REMARK    2  A    between atoms: C_2  and  C_3
REMARK    3  A    between atoms: C_3  and  S_4
REMARK    4  A    between atoms: S_4  and  N_7
REMARK    5  A    between atoms: C_16  and  C_17
REMARK    6  A    between atoms: N_20  and  C_21
REMARK                            x       y       z     vdW  Elec       q    Type
REMARK                         _______ _______ _______ _____ _____    ______ ____
ROOT
ATOM      1  N   UNL     1       2.399   7.471  19.387  0.00  0.00    +0.000 NA
ATOM      2  C   UNL     1       1.639   8.082  20.487  0.00  0.00    +0.000 C 
ATOM      3  C   UNL     1       0.807   9.298  20.060  0.00  0.00    +0.000 C 
ATOM      4  C   UNL     1       0.961  10.161  18.787  0.00  0.00    +0.000 C 
ATOM      5  C   UNL     1       1.859   9.423  17.786  0.00  0.00    +0.000 C 
ATOM      6  C   UNL     1       1.948   7.870  18.002  0.00  0.00    +0.000 C 
ATOM      7  C   UNL     1       1.368  11.603  19.355  0.00  0.00    +0.000 C 
ATOM      8  C   UNL     1       0.033  12.144  19.947  0.00  0.00    +0.000 C 
ATOM      9  N   UNL     1      -0.934  11.589  19.015  0.00  0.00    +0.000 N 
ATOM     10  C   UNL     1      -2.271  11.568  18.881  0.00  0.00    +0.000 A 
ATOM     11  C   UNL     1      -2.451  10.764  17.761  0.00  0.00    +0.000 A 
ATOM     12  N   UNL     1      -1.273  10.114  17.410  0.00  0.00    +0.000 NA
ATOM     13  C   UNL     1      -0.405  10.552  18.284  0.00  0.00    +0.000 A 
ENDROOT
BRANCH  10  14
ATOM     14  C   UNL     1      -3.312  12.157  19.756  0.00  0.00    +0.000 A 
ATOM     15  C   UNL     1      -4.678  12.386  19.503  0.00  0.00    +0.000 A 
ATOM     16  N   UNL     1      -5.275  13.063  20.492  0.00  0.00    +0.000 NA
ATOM     17  N   UNL     1      -4.277  13.275  21.370  0.00  0.00    +0.000 N 
ATOM     18  C   UNL     1      -4.507  14.066  22.556  0.00  0.00    +0.000 C 
ATOM     19  C   UNL     1      -3.092  12.717  20.990  0.00  0.00    +0.000 A 
ENDBRANCH  10  14
BRANCH   1  20
ATOM     20  S   UNL     1       2.526   5.771  19.676  0.00  0.00    +0.000 S 
ATOM     21  O   UNL     1       1.436   5.369  20.554  0.00  0.00    +0.000 OA
ATOM     22  O   UNL     1       3.899   5.512  20.034  0.00  0.00    +0.000 OA
BRANCH  20  23
ATOM     23  C   UNL     1       2.236   5.083  18.016  0.00  0.00    +0.000 C 
BRANCH  23  25
ATOM     24  C   UNL     1       4.441   5.296  16.771  0.00  0.00    +0.000 C 
ATOM     25  C   UNL     1       3.467   4.371  17.483  0.00  0.00    +0.000 C 
ENDBRANCH  23  25
ENDBRANCH  20  23
ENDBRANCH   1  20
TORSDOF 4
ENDMDL
MODEL 7
REMARK VINA RESULT:      -6.4      3.663      8.155
REMARK  Name = 
REMARK  6 active torsions:
REMARK  status: ('A' for Active; 'I' for Inactive)
REMARK    1  A    between atoms: C_1  and  C_2
REMARK    2  A    between atoms: C_2  and  C_3
REMARK    3  A    between atoms: C_3  and  S_4
REMARK    4  A    between atoms: S_4  and  N_7
REMARK    5  A    between atoms: C_16  and  C_17
REMARK    6  A    between atoms: N_20  and  C_21
REMARK                            x       y       z     vdW  Elec       q    Type
REMARK                         _______ _______ _______ _____ _____    ______ ____
ROOT
ATOM      1  N   UNL     1      -2.464  11.379  18.014  0.00  0.00    +0.000 NA
ATOM      2  C   UNL     1      -1.931  10.237  17.256  0.00  0.00    +0.000 C 
ATOM      3  C   UNL     1      -0.612   9.689  17.816  0.00  0.00    +0.000 C 
ATOM      4  C   UNL     1       0.381  10.384  18.774  0.00  0.00    +0.000 C 
ATOM      5  C   UNL     1      -0.299  11.607  19.403  0.00  0.00    +0.000 C 
ATOM      6  C   UNL     1      -1.869  11.564  19.390  0.00  0.00    +0.000 C 
ATOM      7  C   UNL     1       1.709  10.542  17.892  0.00  0.00    +0.000 C 
ATOM      8  C   UNL     1       2.279   9.093  17.841  0.00  0.00    +0.000 C 
ATOM      9  N   UNL     1       1.914   8.600  19.159  0.00  0.00    +0.000 N 
ATOM     10  C   UNL     1       2.014   7.445  19.838  0.00  0.00    +0.000 A 
ATOM     11  C   UNL     1       1.365   7.740  21.032  0.00  0.00    +0.000 A 
ATOM     12  N   UNL     1       0.671   8.943  20.948  0.00  0.00    +0.000 NA
ATOM     13  C   UNL     1       0.934   9.368  19.741  0.00  0.00    +0.000 A 
ENDROOT
BRANCH  10  14
ATOM     14  C   UNL     1       2.574   6.144  19.404  0.00  0.00    +0.000 A 
ATOM     15  C   UNL     1       3.379   5.229  20.108  0.00  0.00    +0.000 A 
ATOM     16  N   UNL     1       3.802   4.219  19.337  0.00  0.00    +0.000 NA
ATOM     17  N   UNL     1       3.271   4.506  18.133  0.00  0.00    +0.000 N 
ATOM     18  C   UNL     1       3.577   3.681  16.988  0.00  0.00    +0.000 C 
ATOM     19  C   UNL     1       2.495   5.628  18.134  0.00  0.00    +0.000 A 
ENDBRANCH  10  14
BRANCH   1  20
ATOM     20  S   UNL     1      -4.191  11.337  17.940  0.00  0.00    +0.000 S 
ATOM     21  O   UNL     1      -4.630   9.969  18.178  0.00  0.00    +0.000 OA
ATOM     22  O   UNL     1      -4.572  12.039  16.739  0.00  0.00    +0.000 OA
BRANCH  20  23
ATOM     23  C   UNL     1      -4.655  12.367  19.368  0.00  0.00    +0.000 C 
BRANCH  23  25
ATOM     24  C   UNL     1      -7.111  13.018  19.342  0.00  0.00    +0.000 C 
ATOM     25  C   UNL     1      -6.059  12.048  19.854  0.00  0.00    +0.000 C 
ENDBRANCH  23  25
ENDBRANCH  20  23
ENDBRANCH   1  20
TORSDOF 4
ENDMDL
MODEL 8
REMARK VINA RESULT:      -6.4      4.561      8.187
REMARK  Name = 
REMARK  6 active torsions:
REMARK  status: ('A' for Active; 'I' for Inactive)
REMARK    1  A    between atoms: C_1  and  C_2
REMARK    2  A    between atoms: C_2  and  C_3
REMARK    3  A    between atoms: C_3  and  S_4
REMARK    4  A    between atoms: S_4  and  N_7
REMARK    5  A    between atoms: C_16  and  C_17
REMARK    6  A    between atoms: N_20  and  C_21
REMARK                            x       y       z     vdW  Elec       q    Type
REMARK                         _______ _______ _______ _____ _____    ______ ____
ROOT
ATOM      1  N   UNL     1      -4.069  13.294  22.000  0.00  0.00    +0.000 NA
ATOM      2  C   UNL     1      -3.447  12.977  20.707  0.00  0.00    +0.000 C 
ATOM      3  C   UNL     1      -2.077  12.298  20.832  0.00  0.00    +0.000 C 
ATOM      4  C   UNL     1      -1.136  12.264  22.058  0.00  0.00    +0.000 C 
ATOM      5  C   UNL     1      -1.914  12.715  23.300  0.00  0.00    +0.000 C 
ATOM      6  C   UNL     1      -3.474  12.573  23.187  0.00  0.00    +0.000 C 
ATOM      7  C   UNL     1       0.160  13.062  21.560  0.00  0.00    +0.000 C 
ATOM      8  C   UNL     1       0.855  12.053  20.599  0.00  0.00    +0.000 C 
ATOM      9  N   UNL     1       0.554  10.790  21.251  0.00  0.00    +0.000 N 
ATOM     10  C   UNL     1       0.764   9.484  21.010  0.00  0.00    +0.000 A 
ATOM     11  C   UNL     1       0.108   8.871  22.072  0.00  0.00    +0.000 A 
ATOM     12  N   UNL     1      -0.690   9.776  22.764  0.00  0.00    +0.000 NA
ATOM     13  C   UNL     1      -0.483  10.909  22.146  0.00  0.00    +0.000 A 
ENDROOT
BRANCH  10  14
ATOM     14  C   UNL     1       1.431   8.836  19.857  0.00  0.00    +0.000 A 
ATOM     15  C   UNL     1       1.462   9.218  18.502  0.00  0.00    +0.000 A 
ATOM     16  N   UNL     1       2.060   8.305  17.726  0.00  0.00    +0.000 NA
ATOM     17  N   UNL     1       2.397   7.333  18.594  0.00  0.00    +0.000 N 
ATOM     18  C   UNL     1       2.997   6.109  18.119  0.00  0.00    +0.000 C 
ATOM     19  C   UNL     1       2.076   7.624  19.888  0.00  0.00    +0.000 A 
ENDBRANCH  10  14
BRANCH   1  20
ATOM     20  S   UNL     1      -5.786  13.181  21.834  0.00  0.00    +0.000 S 
ATOM     21  O   UNL     1      -6.348  14.521  21.921  0.00  0.00    +0.000 OA
ATOM     22  O   UNL     1      -6.221  12.136  22.729  0.00  0.00    +0.000 OA
BRANCH  20  23
ATOM     23  C   UNL     1      -5.961  12.571  20.128  0.00  0.00    +0.000 C 
BRANCH  23  25
ATOM     24  C   UNL     1      -6.762  10.602  18.735  0.00  0.00    +0.000 C 
ATOM     25  C   UNL     1      -6.846  11.338  20.063  0.00  0.00    +0.000 C 
ENDBRANCH  23  25
ENDBRANCH  20  23
ENDBRANCH   1  20
TORSDOF 4
ENDMDL
MODEL 9
REMARK VINA RESULT:      -6.3      3.808      7.956
REMARK  Name = 
REMARK  6 active torsions:
REMARK  status: ('A' for Active; 'I' for Inactive)
REMARK    1  A    between atoms: C_1  and  C_2
REMARK    2  A    between atoms: C_2  and  C_3
REMARK    3  A    between atoms: C_3  and  S_4
REMARK    4  A    between atoms: S_4  and  N_7
REMARK    5  A    between atoms: C_16  and  C_17
REMARK    6  A    between atoms: N_20  and  C_21
REMARK                            x       y       z     vdW  Elec       q    Type
REMARK                         _______ _______ _______ _____ _____    ______ ____
ROOT
ATOM      1  N   UNL     1      -3.462  11.887  18.590  0.00  0.00    +0.000 NA
ATOM      2  C   UNL     1      -2.839  10.781  17.850  0.00  0.00    +0.000 C 
ATOM      3  C   UNL     1      -1.480  10.349  18.416  0.00  0.00    +0.000 C 
ATOM      4  C   UNL     1      -0.546  11.136  19.363  0.00  0.00    +0.000 C 
ATOM      5  C   UNL     1      -1.323  12.310  19.973  0.00  0.00    +0.000 C 
ATOM      6  C   UNL     1      -2.885  12.141  19.963  0.00  0.00    +0.000 C 
ATOM      7  C   UNL     1       0.765  11.386  18.477  0.00  0.00    +0.000 C 
ATOM      8  C   UNL     1       1.449   9.987  18.448  0.00  0.00    +0.000 C 
ATOM      9  N   UNL     1       1.125   9.487  19.773  0.00  0.00    +0.000 N 
ATOM     10  C   UNL     1       1.316   8.354  20.471  0.00  0.00    +0.000 A 
ATOM     11  C   UNL     1       0.646   8.615  21.660  0.00  0.00    +0.000 A 
ATOM     12  N   UNL     1      -0.142   9.756  21.559  0.00  0.00    +0.000 NA
ATOM     13  C   UNL     1       0.085  10.183  20.344  0.00  0.00    +0.000 A 
ENDROOT
BRANCH  10  14
ATOM     14  C   UNL     1       1.979   7.095  20.056  0.00  0.00    +0.000 A 
ATOM     15  C   UNL     1       2.773   6.824  18.925  0.00  0.00    +0.000 A 
ATOM     16  N   UNL     1       3.088   5.527  18.821  0.00  0.00    +0.000 NA
ATOM     17  N   UNL     1       2.478   4.972  19.884  0.00  0.00    +0.000 N 
ATOM     18  C   UNL     1       2.508   3.541  20.077  0.00  0.00    +0.000 C 
ATOM     19  C   UNL     1       1.833   5.878  20.675  0.00  0.00    +0.000 A 
ENDBRANCH  10  14
BRANCH   1  20
ATOM     20  S   UNL     1      -5.180  11.706  18.519  0.00  0.00    +0.000 S 
ATOM     21  O   UNL     1      -5.487  10.299  18.305  0.00  0.00    +0.000 OA
ATOM     22  O   UNL     1      -5.667  12.717  17.613  0.00  0.00    +0.000 OA
BRANCH  20  23
ATOM     23  C   UNL     1      -5.679  12.173  20.206  0.00  0.00    +0.000 C 
BRANCH  23  25
ATOM     24  C   UNL     1      -7.735  10.818  20.837  0.00  0.00    +0.000 C 
ATOM     25  C   UNL     1      -7.190  12.157  20.366  0.00  0.00    +0.000 C 
ENDBRANCH  23  25
ENDBRANCH  20  23
ENDBRANCH   1  20
TORSDOF 4
ENDMDL
