MODEL 1
REMARK VINA RESULT:      -7.0      0.000      0.000
REMARK  Name = 
REMARK  14 active torsions:
REMARK  status: ('A' for Active; 'I' for Inactive)
REMARK    1  A    between atoms: N_1  and  CA_2
REMARK    2  A    between atoms: CA_2  and  CB_3
REMARK    3  A    between atoms: CA_2  and  C_11
REMARK    4  A    between atoms: CB_3  and  CG_4
REMARK    5  A    between atoms: CZ_7  and  OH_8
REMARK    6  A    between atoms: N_13  and  C_14
REMARK    7  A    between atoms: C_14  and  C_15
REMARK    8  A    between atoms: C_14  and  C_18
REMARK    9  A    between atoms: C_15  and  O_17
REMARK   10  A    between atoms: C_20  and  C_21
REMARK   11  A    between atoms: C_21  and  O_22
REMARK   12  A    between atoms: C_23  and  O_24
REMARK   13  A    between atoms: C_25  and  O_26
REMARK   14  A    between atoms: C_27  and  O_28
REMARK                            x       y       z     vdW  Elec       q    Type
REMARK                         _______ _______ _______ _____ _____    ______ ____
ROOT
ATOM      1  C   UNK A   2       6.506   5.587  16.643  0.00  0.00    +0.000 C 
ENDROOT
BRANCH   1   2
ATOM      2  C   UNK A   2       4.991   5.481  16.974  0.00  0.00    +0.000 C 
ATOM      3  O   UNK A   2       4.517   6.711  17.558  0.00  0.00    +0.000 OA
ATOM      4  C   UNK A   2       3.082   6.690  17.764  0.00  0.00    +0.000 C 
ATOM      5  C   UNK A   2       2.798   5.671  18.873  0.00  0.00    +0.000 C 
ATOM      6  C   UNK A   2       3.222   4.283  18.378  0.00  0.00    +0.000 C 
ATOM      7  C   UNK A   2       4.691   4.281  17.897  0.00  0.00    +0.000 C 
BRANCH   5   8
ATOM      8  O   UNK A   2       3.564   5.977  20.049  0.00  0.00    +0.000 OA
ATOM      9  H   UNK A   2       3.888   5.128  20.413  0.00  0.00    +0.000 HD
ENDBRANCH   5   8
BRANCH   6  10
ATOM     10  O   UNK A   2       3.059   3.329  19.433  0.00  0.00    +0.000 OA
ATOM     11  H   UNK A   2       2.418   3.724  20.060  0.00  0.00    +0.000 HD
ENDBRANCH   6  10
BRANCH   7  12
ATOM     12  O   UNK A   2       5.014   3.064  17.219  0.00  0.00    +0.000 OA
ATOM     13  H   UNK A   2       4.226   2.736  16.749  0.00  0.00    +0.000 HD
ENDBRANCH   7  12
BRANCH   4  14
ATOM     14  C   UNK A   2       2.599   8.098  18.137  0.00  0.00    +0.000 C 
BRANCH  14  15
ATOM     15  O   UNK A   2       1.864   8.094  19.360  0.00  0.00    +0.000 OA
ATOM     16  H   UNK A   2       1.544   7.194  19.534  0.00  0.00    +0.000 HD
ENDBRANCH  14  15
ENDBRANCH   4  14
ENDBRANCH   1   2
BRANCH   1  19
ATOM     17  C   TYR A   1       7.770   7.361  17.865  0.00  0.00    +0.000 C 
ATOM     18  O   TYR A   1       8.035   6.591  18.781  0.00  0.00    +0.000 OA
ATOM     19  N   UNK A   2       7.068   6.951  16.736  0.00  0.00    +0.000 N 
ATOM     20  H   UNK A   2       6.936   7.629  15.985  0.00  0.00    +0.000 HD
BRANCH  17  21
ATOM     21  CA  TYR A   1       8.269   8.821  17.813  0.00  0.00    +0.000 C 
BRANCH  21  22
ATOM     22  N   TYR A   1       7.132   9.705  17.453  0.00  0.00    +0.000 NA
ATOM     23  H1  TYR A   1       7.352  10.132  16.548  0.00  0.00    +0.000 HD
ATOM     24  H2  TYR A   1       7.127  10.489  18.107  0.00  0.00    +0.000 HD
ENDBRANCH  21  22
BRANCH  21  25
ATOM     25  CB  TYR A   1       8.949   9.208  19.148  0.00  0.00    +0.000 C 
BRANCH  25  26
ATOM     26  CG  TYR A   1       9.630  10.562  19.143  0.00  0.00    +0.000 A 
ATOM     27  CD1 TYR A   1       9.780  11.294  20.333  0.00  0.00    +0.000 A 
ATOM     28  CE1 TYR A   1      10.424  12.532  20.333  0.00  0.00    +0.000 A 
ATOM     29  CZ  TYR A   1      10.922  13.048  19.142  0.00  0.00    +0.000 A 
ATOM     30  CE2 TYR A   1      10.794  12.336  17.956  0.00  0.00    +0.000 A 
ATOM     31  CD2 TYR A   1      10.157  11.095  17.957  0.00  0.00    +0.000 A 
BRANCH  29  32
ATOM     32  OH  TYR A   1      11.550  14.257  19.093  0.00  0.00    +0.000 OA
ATOM     33  HH  TYR A   1      12.389  14.194  19.577  0.00  0.00    +0.000 HD
ENDBRANCH  29  32
ENDBRANCH  25  26
ENDBRANCH  21  25
ENDBRANCH  17  21
ENDBRANCH   1  19
BRANCH   1  34
ATOM     34  C   UNK A   2       6.760   4.996  15.254  0.00  0.00    +0.000 C 
ATOM     35  O   UNK A   2       6.055   4.131  14.742  0.00  0.00    +0.000 OA
BRANCH  34  36
ATOM     36  O   UNK A   2       7.834   5.511  14.609  0.00  0.00    +0.000 OA
ATOM     37  H   UNK A   2       8.321   4.798  14.152  0.00  0.00    +0.000 HD
ENDBRANCH  34  36
ENDBRANCH   1  34
TORSDOF 14
ENDMDL
MODEL 2
REMARK VINA RESULT:      -6.9      1.246      2.581
REMARK  Name = 
REMARK  14 active torsions:
REMARK  status: ('A' for Active; 'I' for Inactive)
REMARK    1  A    between atoms: N_1  and  CA_2
REMARK    2  A    between atoms: CA_2  and  CB_3
REMARK    3  A    between atoms: CA_2  and  C_11
REMARK    4  A    between atoms: CB_3  and  CG_4
REMARK    5  A    between atoms: CZ_7  and  OH_8
REMARK    6  A    between atoms: N_13  and  C_14
REMARK    7  A    between atoms: C_14  and  C_15
REMARK    8  A    between atoms: C_14  and  C_18
REMARK    9  A    between atoms: C_15  and  O_17
REMARK   10  A    between atoms: C_20  and  C_21
REMARK   11  A    between atoms: C_21  and  O_22
REMARK   12  A    between atoms: C_23  and  O_24
REMARK   13  A    between atoms: C_25  and  O_26
REMARK   14  A    between atoms: C_27  and  O_28
REMARK                            x       y       z     vdW  Elec       q    Type
REMARK                         _______ _______ _______ _____ _____    ______ ____
ROOT
ATOM      1  C   UNK A   2       6.772   5.396  17.179  0.00  0.00    +0.000 C 
ENDROOT
BRANCH   1   2
ATOM      2  C   UNK A   2       5.567   5.178  18.135  0.00  0.00    +0.000 C 
ATOM      3  O   UNK A   2       5.396   3.774  18.416  0.00  0.00    +0.000 OA
ATOM      4  C   UNK A   2       4.358   3.545  19.403  0.00  0.00    +0.000 C 
ATOM      5  C   UNK A   2       3.022   3.912  18.749  0.00  0.00    +0.000 C 
ATOM      6  C   UNK A   2       3.037   5.410  18.421  0.00  0.00    +0.000 C 
ATOM      7  C   UNK A   2       4.268   5.788  17.566  0.00  0.00    +0.000 C 
BRANCH   5   8
ATOM      8  O   UNK A   2       2.846   3.190  17.520  0.00  0.00    +0.000 OA
ATOM      9  H   UNK A   2       2.009   2.688  17.597  0.00  0.00    +0.000 HD
ENDBRANCH   5   8
BRANCH   6  10
ATOM     10  O   UNK A   2       1.839   5.758  17.719  0.00  0.00    +0.000 OA
ATOM     11  H   UNK A   2       1.291   6.267  18.351  0.00  0.00    +0.000 HD
ENDBRANCH   6  10
BRANCH   7  12
ATOM     12  O   UNK A   2       4.413   7.207  17.461  0.00  0.00    +0.000 OA
ATOM     13  H   UNK A   2       5.324   7.458  17.700  0.00  0.00    +0.000 HD
ENDBRANCH   7  12
BRANCH   4  14
ATOM     14  C   UNK A   2       4.396   2.080  19.854  0.00  0.00    +0.000 C 
BRANCH  14  15
ATOM     15  O   UNK A   2       4.254   1.186  18.750  0.00  0.00    +0.000 OA
ATOM     16  H   UNK A   2       5.136   0.904  18.456  0.00  0.00    +0.000 HD
ENDBRANCH  14  15
ENDBRANCH   4  14
ENDBRANCH   1   2
BRANCH   1  19
ATOM     17  C   TYR A   1       7.969   7.375  18.124  0.00  0.00    +0.000 C 
ATOM     18  O   TYR A   1       8.325   6.734  19.107  0.00  0.00    +0.000 OA
ATOM     19  N   UNK A   2       7.246   6.794  17.087  0.00  0.00    +0.000 N 
ATOM     20  H   UNK A   2       7.036   7.370  16.272  0.00  0.00    +0.000 HD
BRANCH  17  21
ATOM     21  CA  TYR A   1       8.367   8.846  17.881  0.00  0.00    +0.000 C 
BRANCH  21  22
ATOM     22  N   TYR A   1       7.165   9.604  17.454  0.00  0.00    +0.000 NA
ATOM     23  H1  TYR A   1       7.035   9.430  16.453  0.00  0.00    +0.000 HD
ATOM     24  H2  TYR A   1       7.388  10.600  17.509  0.00  0.00    +0.000 HD
ENDBRANCH  21  22
BRANCH  21  25
ATOM     25  CB  TYR A   1       9.052   9.435  19.137  0.00  0.00    +0.000 C 
BRANCH  25  26
ATOM     26  CG  TYR A   1       9.561  10.855  18.974  0.00  0.00    +0.000 A 
ATOM     27  CD1 TYR A   1       9.394  11.798  20.001  0.00  0.00    +0.000 A 
ATOM     28  CE1 TYR A   1       9.879  13.100  19.861  0.00  0.00    +0.000 A 
ATOM     29  CZ  TYR A   1      10.533  13.467  18.690  0.00  0.00    +0.000 A 
ATOM     30  CE2 TYR A   1      10.718  12.546  17.666  0.00  0.00    +0.000 A 
ATOM     31  CD2 TYR A   1      10.240  11.243  17.810  0.00  0.00    +0.000 A 
BRANCH  29  32
ATOM     32  OH  TYR A   1      11.015  14.728  18.505  0.00  0.00    +0.000 OA
ATOM     33  HH  TYR A   1      10.569  15.327  19.126  0.00  0.00    +0.000 HD
ENDBRANCH  29  32
ENDBRANCH  25  26
ENDBRANCH  21  25
ENDBRANCH  17  21
ENDBRANCH   1  19
BRANCH   1  34
ATOM     34  C   UNK A   2       6.418   4.858  15.791  0.00  0.00    +0.000 C 
ATOM     35  O   UNK A   2       6.374   5.554  14.781  0.00  0.00    +0.000 OA
BRANCH  34  36
ATOM     36  O   UNK A   2       6.158   3.530  15.750  0.00  0.00    +0.000 OA
ATOM     37  H   UNK A   2       5.228   3.380  15.489  0.00  0.00    +0.000 HD
ENDBRANCH  34  36
ENDBRANCH   1  34
TORSDOF 14
ENDMDL
MODEL 3
REMARK VINA RESULT:      -6.9      3.963      7.097
REMARK  Name = 
REMARK  14 active torsions:
REMARK  status: ('A' for Active; 'I' for Inactive)
REMARK    1  A    between atoms: N_1  and  CA_2
REMARK    2  A    between atoms: CA_2  and  CB_3
REMARK    3  A    between atoms: CA_2  and  C_11
REMARK    4  A    between atoms: CB_3  and  CG_4
REMARK    5  A    between atoms: CZ_7  and  OH_8
REMARK    6  A    between atoms: N_13  and  C_14
REMARK    7  A    between atoms: C_14  and  C_15
REMARK    8  A    between atoms: C_14  and  C_18
REMARK    9  A    between atoms: C_15  and  O_17
REMARK   10  A    between atoms: C_20  and  C_21
REMARK   11  A    between atoms: C_21  and  O_22
REMARK   12  A    between atoms: C_23  and  O_24
REMARK   13  A    between atoms: C_25  and  O_26
REMARK   14  A    between atoms: C_27  and  O_28
REMARK                            x       y       z     vdW  Elec       q    Type
REMARK                         _______ _______ _______ _____ _____    ______ ____
ROOT
ATOM      1  C   UNK A   2       3.810   4.143  18.753  0.00  0.00    +0.000 C 
ENDROOT
BRANCH   1   2
ATOM      2  C   UNK A   2       5.220   4.295  18.118  0.00  0.00    +0.000 C 
ATOM      3  O   UNK A   2       6.026   5.205  18.893  0.00  0.00    +0.000 OA
ATOM      4  C   UNK A   2       7.387   5.273  18.398  0.00  0.00    +0.000 C 
ATOM      5  C   UNK A   2       7.338   5.963  17.031  0.00  0.00    +0.000 C 
ATOM      6  C   UNK A   2       6.533   5.081  16.070  0.00  0.00    +0.000 C 
ATOM      7  C   UNK A   2       5.136   4.749  16.645  0.00  0.00    +0.000 C 
BRANCH   5   8
ATOM      8  O   UNK A   2       6.676   7.234  17.129  0.00  0.00    +0.000 OA
ATOM      9  H   UNK A   2       6.306   7.437  16.246  0.00  0.00    +0.000 HD
ENDBRANCH   5   8
BRANCH   6  10
ATOM     10  O   UNK A   2       6.389   5.751  14.813  0.00  0.00    +0.000 OA
ATOM     11  H   UNK A   2       5.438   5.696  14.583  0.00  0.00    +0.000 HD
ENDBRANCH   6  10
BRANCH   7  12
ATOM     12  O   UNK A   2       4.481   3.741  15.870  0.00  0.00    +0.000 OA
ATOM     13  H   UNK A   2       4.912   3.671  14.999  0.00  0.00    +0.000 HD
ENDBRANCH   7  12
BRANCH   4  14
ATOM     14  C   UNK A   2       8.257   6.041  19.401  0.00  0.00    +0.000 C 
BRANCH  14  15
ATOM     15  O   UNK A   2       8.193   5.462  20.704  0.00  0.00    +0.000 OA
ATOM     16  H   UNK A   2       8.300   4.499  20.628  0.00  0.00    +0.000 HD
ENDBRANCH  14  15
ENDBRANCH   4  14
ENDBRANCH   1   2
BRANCH   1  19
ATOM     17  C   TYR A   1       2.212   6.055  18.585  0.00  0.00    +0.000 C 
ATOM     18  O   TYR A   1       1.697   5.583  17.578  0.00  0.00    +0.000 OA
ATOM     19  N   UNK A   2       3.225   5.397  19.274  0.00  0.00    +0.000 N 
ATOM     20  H   UNK A   2       3.566   5.819  20.138  0.00  0.00    +0.000 HD
BRANCH  17  21
ATOM     21  CA  TYR A   1       1.730   7.362  19.251  0.00  0.00    +0.000 C 
BRANCH  21  22
ATOM     22  N   TYR A   1       2.251   7.414  20.639  0.00  0.00    +0.000 NA
ATOM     23  H1  TYR A   1       3.271   7.491  20.579  0.00  0.00    +0.000 HD
ATOM     24  H2  TYR A   1       2.093   6.500  21.067  0.00  0.00    +0.000 HD
ENDBRANCH  21  22
BRANCH  21  25
ATOM     25  CB  TYR A   1       2.134   8.585  18.395  0.00  0.00    +0.000 C 
BRANCH  25  26
ATOM     26  CG  TYR A   1       1.131   9.723  18.402  0.00  0.00    +0.000 A 
ATOM     27  CD1 TYR A   1      -0.202   9.507  18.014  0.00  0.00    +0.000 A 
ATOM     28  CE1 TYR A   1      -1.130  10.548  18.038  0.00  0.00    +0.000 A 
ATOM     29  CZ  TYR A   1      -0.732  11.815  18.450  0.00  0.00    +0.000 A 
ATOM     30  CE2 TYR A   1       0.579  12.048  18.847  0.00  0.00    +0.000 A 
ATOM     31  CD2 TYR A   1       1.505  11.005  18.831  0.00  0.00    +0.000 A 
BRANCH  29  32
ATOM     32  OH  TYR A   1      -1.602  12.864  18.481  0.00  0.00    +0.000 OA
ATOM     33  HH  TYR A   1      -2.492  12.526  18.667  0.00  0.00    +0.000 HD
ENDBRANCH  29  32
ENDBRANCH  25  26
ENDBRANCH  21  25
ENDBRANCH  17  21
ENDBRANCH   1  19
BRANCH   1  34
ATOM     34  C   UNK A   2       3.865   3.079  19.853  0.00  0.00    +0.000 C 
ATOM     35  O   UNK A   2       2.933   2.836  20.613  0.00  0.00    +0.000 OA
BRANCH  34  36
ATOM     36  O   UNK A   2       5.037   2.404  19.926  0.00  0.00    +0.000 OA
ATOM     37  H   UNK A   2       5.437   2.527  20.808  0.00  0.00    +0.000 HD
ENDBRANCH  34  36
ENDBRANCH   1  34
TORSDOF 14
ENDMDL
MODEL 4
REMARK VINA RESULT:      -6.8      4.182      6.772
REMARK  Name = 
REMARK  14 active torsions:
REMARK  status: ('A' for Active; 'I' for Inactive)
REMARK    1  A    between atoms: N_1  and  CA_2
REMARK    2  A    between atoms: CA_2  and  CB_3
REMARK    3  A    between atoms: CA_2  and  C_11
REMARK    4  A    between atoms: CB_3  and  CG_4
REMARK    5  A    between atoms: CZ_7  and  OH_8
REMARK    6  A    between atoms: N_13  and  C_14
REMARK    7  A    between atoms: C_14  and  C_15
REMARK    8  A    between atoms: C_14  and  C_18
REMARK    9  A    between atoms: C_15  and  O_17
REMARK   10  A    between atoms: C_20  and  C_21
REMARK   11  A    between atoms: C_21  and  O_22
REMARK   12  A    between atoms: C_23  and  O_24
REMARK   13  A    between atoms: C_25  and  O_26
REMARK   14  A    between atoms: C_27  and  O_28
REMARK                            x       y       z     vdW  Elec       q    Type
REMARK                         _______ _______ _______ _____ _____    ______ ____
ROOT
ATOM      1  C   UNK A   2       4.183   3.153  18.149  0.00  0.00    +0.000 C 
ENDROOT
BRANCH   1   2
ATOM      2  C   UNK A   2       5.562   3.722  17.714  0.00  0.00    +0.000 C 
ATOM      3  O   UNK A   2       6.011   4.724  18.649  0.00  0.00    +0.000 OA
ATOM      4  C   UNK A   2       7.350   5.185  18.342  0.00  0.00    +0.000 C 
ATOM      5  C   UNK A   2       7.268   5.975  17.031  0.00  0.00    +0.000 C 
ATOM      6  C   UNK A   2       6.832   5.019  15.914  0.00  0.00    +0.000 C 
ATOM      7  C   UNK A   2       5.520   4.287  16.278  0.00  0.00    +0.000 C 
BRANCH   5   8
ATOM      8  O   UNK A   2       6.286   7.019  17.131  0.00  0.00    +0.000 OA
ATOM      9  H   UNK A   2       6.255   7.471  16.263  0.00  0.00    +0.000 HD
ENDBRANCH   5   8
BRANCH   6  10
ATOM     10  O   UNK A   2       6.652   5.754  14.699  0.00  0.00    +0.000 OA
ATOM     11  H   UNK A   2       7.449   6.316  14.600  0.00  0.00    +0.000 HD
ENDBRANCH   6  10
BRANCH   7  12
ATOM     12  O   UNK A   2       5.241   3.229  15.356  0.00  0.00    +0.000 OA
ATOM     13  H   UNK A   2       4.295   3.243  15.125  0.00  0.00    +0.000 HD
ENDBRANCH   7  12
BRANCH   4  14
ATOM     14  C   UNK A   2       7.873   6.044  19.500  0.00  0.00    +0.000 C 
BRANCH  14  15
ATOM     15  O   UNK A   2       8.023   5.278  20.695  0.00  0.00    +0.000 OA
ATOM     16  H   UNK A   2       7.303   4.627  20.747  0.00  0.00    +0.000 HD
ENDBRANCH  14  15
ENDBRANCH   4  14
ENDBRANCH   1   2
BRANCH   1  19
ATOM     17  C   TYR A   1       2.086   4.440  18.580  0.00  0.00    +0.000 C 
ATOM     18  O   TYR A   1       1.546   3.960  17.591  0.00  0.00    +0.000 OA
ATOM     19  N   UNK A   2       3.367   4.067  18.976  0.00  0.00    +0.000 N 
ATOM     20  H   UNK A   2       3.731   4.462  19.843  0.00  0.00    +0.000 HD
BRANCH  17  21
ATOM     21  CA  TYR A   1       1.379   5.418  19.542  0.00  0.00    +0.000 C 
BRANCH  21  22
ATOM     22  N   TYR A   1       0.857   4.656  20.704  0.00  0.00    +0.000 NA
ATOM     23  H1  TYR A   1       0.520   5.339  21.390  0.00  0.00    +0.000 HD
ATOM     24  H2  TYR A   1       1.651   4.207  21.165  0.00  0.00    +0.000 HD
ENDBRANCH  21  22
BRANCH  21  25
ATOM     25  CB  TYR A   1       2.332   6.569  19.940  0.00  0.00    +0.000 C 
BRANCH  25  26
ATOM     26  CG  TYR A   1       1.881   7.948  19.498  0.00  0.00    +0.000 A 
ATOM     27  CD1 TYR A   1       1.200   8.798  20.385  0.00  0.00    +0.000 A 
ATOM     28  CE1 TYR A   1       0.801  10.075  19.986  0.00  0.00    +0.000 A 
ATOM     29  CZ  TYR A   1       1.079  10.509  18.695  0.00  0.00    +0.000 A 
ATOM     30  CE2 TYR A   1       1.761   9.689  17.805  0.00  0.00    +0.000 A 
ATOM     31  CD2 TYR A   1       2.167   8.415  18.207  0.00  0.00    +0.000 A 
BRANCH  29  32
ATOM     32  OH  TYR A   1       0.701  11.744  18.259  0.00  0.00    +0.000 OA
ATOM     33  HH  TYR A   1       1.364  12.393  18.545  0.00  0.00    +0.000 HD
ENDBRANCH  29  32
ENDBRANCH  25  26
ENDBRANCH  21  25
ENDBRANCH  17  21
ENDBRANCH   1  19
BRANCH   1  34
ATOM     34  C   UNK A   2       4.393   1.820  18.871  0.00  0.00    +0.000 C 
ATOM     35  O   UNK A   2       3.811   0.782  18.570  0.00  0.00    +0.000 OA
BRANCH  34  36
ATOM     36  O   UNK A   2       5.293   1.862  19.882  0.00  0.00    +0.000 OA
ATOM     37  H   UNK A   2       5.486   2.791  20.117  0.00  0.00    +0.000 HD
ENDBRANCH  34  36
ENDBRANCH   1  34
TORSDOF 14
ENDMDL
MODEL 5
REMARK VINA RESULT:      -6.8      4.234      7.172
REMARK  Name = 
REMARK  14 active torsions:
REMARK  status: ('A' for Active; 'I' for Inactive)
REMARK    1  A    between atoms: N_1  and  CA_2
REMARK    2  A    between atoms: CA_2  and  CB_3
REMARK    3  A    between atoms: CA_2  and  C_11
REMARK    4  A    between atoms: CB_3  and  CG_4
REMARK    5  A    between atoms: CZ_7  and  OH_8
REMARK    6  A    between atoms: N_13  and  C_14
REMARK    7  A    between atoms: C_14  and  C_15
REMARK    8  A    between atoms: C_14  and  C_18
REMARK    9  A    between atoms: C_15  and  O_17
REMARK   10  A    between atoms: C_20  and  C_21
REMARK   11  A    between atoms: C_21  and  O_22
REMARK   12  A    between atoms: C_23  and  O_24
REMARK   13  A    between atoms: C_25  and  O_26
REMARK   14  A    between atoms: C_27  and  O_28
REMARK                            x       y       z     vdW  Elec       q    Type
REMARK                         _______ _______ _______ _____ _____    ______ ____
ROOT
ATOM      1  C   UNK A   2       4.038   3.339  18.423  0.00  0.00    +0.000 C 
ENDROOT
BRANCH   1   2
ATOM      2  C   UNK A   2       5.365   3.826  17.778  0.00  0.00    +0.000 C 
ATOM      3  O   UNK A   2       6.093   4.666  18.697  0.00  0.00    +0.000 OA
ATOM      4  C   UNK A   2       7.394   5.036  18.173  0.00  0.00    +0.000 C 
ATOM      5  C   UNK A   2       7.154   5.979  16.988  0.00  0.00    +0.000 C 
ATOM      6  C   UNK A   2       6.409   5.204  15.894  0.00  0.00    +0.000 C 
ATOM      7  C   UNK A   2       5.115   4.558  16.441  0.00  0.00    +0.000 C 
BRANCH   5   8
ATOM      8  O   UNK A   2       6.333   7.089  17.385  0.00  0.00    +0.000 OA
ATOM      9  H   UNK A   2       5.415   6.881  17.116  0.00  0.00    +0.000 HD
ENDBRANCH   5   8
BRANCH   6  10
ATOM     10  O   UNK A   2       6.085   6.091  14.818  0.00  0.00    +0.000 OA
ATOM     11  H   UNK A   2       5.249   5.757  14.432  0.00  0.00    +0.000 HD
ENDBRANCH   6  10
BRANCH   7  12
ATOM     12  O   UNK A   2       4.549   3.646  15.496  0.00  0.00    +0.000 OA
ATOM     13  H   UNK A   2       4.451   2.770  15.910  0.00  0.00    +0.000 HD
ENDBRANCH   7  12
BRANCH   4  14
ATOM     14  C   UNK A   2       8.220   5.700  19.281  0.00  0.00    +0.000 C 
BRANCH  14  15
ATOM     15  O   UNK A   2       7.700   5.401  20.576  0.00  0.00    +0.000 OA
ATOM     16  H   UNK A   2       6.742   5.256  20.506  0.00  0.00    +0.000 HD
ENDBRANCH  14  15
ENDBRANCH   4  14
ENDBRANCH   1   2
BRANCH   1  19
ATOM     17  C   TYR A   1       2.329   5.072  18.983  0.00  0.00    +0.000 C 
ATOM     18  O   TYR A   1       1.781   4.934  17.896  0.00  0.00    +0.000 OA
ATOM     19  N   UNK A   2       3.418   4.295  19.365  0.00  0.00    +0.000 N 
ATOM     20  H   UNK A   2       3.787   4.422  20.308  0.00  0.00    +0.000 HD
BRANCH  17  21
ATOM     21  CA  TYR A   1       1.817   6.036  20.075  0.00  0.00    +0.000 C 
BRANCH  21  22
ATOM     22  N   TYR A   1       2.234   5.521  21.404  0.00  0.00    +0.000 NA
ATOM     23  H1  TYR A   1       2.656   6.303  21.914  0.00  0.00    +0.000 HD
ATOM     24  H2  TYR A   1       3.007   4.869  21.257  0.00  0.00    +0.000 HD
ENDBRANCH  21  22
BRANCH  21  25
ATOM     25  CB  TYR A   1       2.302   7.478  19.795  0.00  0.00    +0.000 C 
BRANCH  25  26
ATOM     26  CG  TYR A   1       1.342   8.566  20.233  0.00  0.00    +0.000 A 
ATOM     27  CD1 TYR A   1       0.934   9.567  19.335  0.00  0.00    +0.000 A 
ATOM     28  CE1 TYR A   1       0.035  10.558  19.731  0.00  0.00    +0.000 A 
ATOM     29  CZ  TYR A   1      -0.460  10.557  21.031  0.00  0.00    +0.000 A 
ATOM     30  CE2 TYR A   1      -0.077   9.572  21.931  0.00  0.00    +0.000 A 
ATOM     31  CD2 TYR A   1       0.815   8.576  21.533  0.00  0.00    +0.000 A 
BRANCH  29  32
ATOM     32  OH  TYR A   1      -1.332  11.511  21.464  0.00  0.00    +0.000 OA
ATOM     33  HH  TYR A   1      -0.877  12.368  21.478  0.00  0.00    +0.000 HD
ENDBRANCH  29  32
ENDBRANCH  25  26
ENDBRANCH  21  25
ENDBRANCH  17  21
ENDBRANCH   1  19
BRANCH   1  34
ATOM     34  C   UNK A   2       4.276   1.990  19.107  0.00  0.00    +0.000 C 
ATOM     35  O   UNK A   2       3.736   0.945  18.758  0.00  0.00    +0.000 OA
BRANCH  34  36
ATOM     36  O   UNK A   2       5.151   2.028  20.140  0.00  0.00    +0.000 OA
ATOM     37  H   UNK A   2       5.244   1.137  20.531  0.00  0.00    +0.000 HD
ENDBRANCH  34  36
ENDBRANCH   1  34
TORSDOF 14
ENDMDL
MODEL 6
REMARK VINA RESULT:      -6.8      4.003      6.827
REMARK  Name = 
REMARK  14 active torsions:
REMARK  status: ('A' for Active; 'I' for Inactive)
REMARK    1  A    between atoms: N_1  and  CA_2
REMARK    2  A    between atoms: CA_2  and  CB_3
REMARK    3  A    between atoms: CA_2  and  C_11
REMARK    4  A    between atoms: CB_3  and  CG_4
REMARK    5  A    between atoms: CZ_7  and  OH_8
REMARK    6  A    between atoms: N_13  and  C_14
REMARK    7  A    between atoms: C_14  and  C_15
REMARK    8  A    between atoms: C_14  and  C_18
REMARK    9  A    between atoms: C_15  and  O_17
REMARK   10  A    between atoms: C_20  and  C_21
REMARK   11  A    between atoms: C_21  and  O_22
REMARK   12  A    between atoms: C_23  and  O_24
REMARK   13  A    between atoms: C_25  and  O_26
REMARK   14  A    between atoms: C_27  and  O_28
REMARK                            x       y       z     vdW  Elec       q    Type
REMARK                         _______ _______ _______ _____ _____    ______ ____
ROOT
ATOM      1  C   UNK A   2       4.230   3.246  17.965  0.00  0.00    +0.000 C 
ENDROOT
BRANCH   1   2
ATOM      2  C   UNK A   2       5.650   3.743  17.577  0.00  0.00    +0.000 C 
ATOM      3  O   UNK A   2       6.076   4.795  18.467  0.00  0.00    +0.000 OA
ATOM      4  C   UNK A   2       7.445   5.195  18.211  0.00  0.00    +0.000 C 
ATOM      5  C   UNK A   2       7.465   5.894  16.846  0.00  0.00    +0.000 C 
ATOM      6  C   UNK A   2       7.065   4.874  15.773  0.00  0.00    +0.000 C 
ATOM      7  C   UNK A   2       5.710   4.207  16.106  0.00  0.00    +0.000 C 
BRANCH   5   8
ATOM      8  O   UNK A   2       6.514   6.969  16.816  0.00  0.00    +0.000 OA
ATOM      9  H   UNK A   2       6.594   7.451  17.664  0.00  0.00    +0.000 HD
ENDBRANCH   5   8
BRANCH   6  10
ATOM     10  O   UNK A   2       6.979   5.528  14.502  0.00  0.00    +0.000 OA
ATOM     11  H   UNK A   2       6.874   6.483  14.694  0.00  0.00    +0.000 HD
ENDBRANCH   6  10
BRANCH   7  12
ATOM     12  O   UNK A   2       5.451   3.096  15.243  0.00  0.00    +0.000 OA
ATOM     13  H   UNK A   2       4.610   2.678  15.499  0.00  0.00    +0.000 HD
ENDBRANCH   7  12
BRANCH   4  14
ATOM     14  C   UNK A   2       7.927   6.117  19.338  0.00  0.00    +0.000 C 
BRANCH  14  15
ATOM     15  O   UNK A   2       8.435   7.350  18.828  0.00  0.00    +0.000 OA
ATOM     16  H   UNK A   2       9.364   7.444  19.094  0.00  0.00    +0.000 HD
ENDBRANCH  14  15
ENDBRANCH   4  14
ENDBRANCH   1   2
BRANCH   1  19
ATOM     17  C   TYR A   1       2.092   4.407  18.530  0.00  0.00    +0.000 C 
ATOM     18  O   TYR A   1       1.477   3.761  17.690  0.00  0.00    +0.000 OA
ATOM     19  N   UNK A   2       3.443   4.191  18.785  0.00  0.00    +0.000 N 
ATOM     20  H   UNK A   2       3.876   4.723  19.540  0.00  0.00    +0.000 HD
BRANCH  17  21
ATOM     21  CA  TYR A   1       1.423   5.443  19.460  0.00  0.00    +0.000 C 
BRANCH  21  22
ATOM     22  N   TYR A   1       0.887   4.742  20.653  0.00  0.00    +0.000 NA
ATOM     23  H1  TYR A   1       1.024   3.737  20.503  0.00  0.00    +0.000 HD
ATOM     24  H2  TYR A   1      -0.127   4.860  20.655  0.00  0.00    +0.000 HD
ENDBRANCH  21  22
BRANCH  21  25
ATOM     25  CB  TYR A   1       2.416   6.577  19.807  0.00  0.00    +0.000 C 
BRANCH  25  26
ATOM     26  CG  TYR A   1       1.950   7.967  19.419  0.00  0.00    +0.000 A 
ATOM     27  CD1 TYR A   1       2.209   8.478  18.136  0.00  0.00    +0.000 A 
ATOM     28  CE1 TYR A   1       1.764   9.750  17.772  0.00  0.00    +0.000 A 
ATOM     29  CZ  TYR A   1       1.058  10.521  18.689  0.00  0.00    +0.000 A 
ATOM     30  CE2 TYR A   1       0.783  10.031  19.959  0.00  0.00    +0.000 A 
ATOM     31  CD2 TYR A   1       1.221   8.756  20.321  0.00  0.00    +0.000 A 
BRANCH  29  32
ATOM     32  OH  TYR A   1       0.613  11.772  18.380  0.00  0.00    +0.000 OA
ATOM     33  HH  TYR A   1       0.715  12.341  19.159  0.00  0.00    +0.000 HD
ENDBRANCH  29  32
ENDBRANCH  25  26
ENDBRANCH  21  25
ENDBRANCH  17  21
ENDBRANCH   1  19
BRANCH   1  34
ATOM     34  C   UNK A   2       4.346   1.893  18.672  0.00  0.00    +0.000 C 
ATOM     35  O   UNK A   2       3.760   0.879  18.304  0.00  0.00    +0.000 OA
BRANCH  34  36
ATOM     36  O   UNK A   2       5.167   1.887  19.750  0.00  0.00    +0.000 OA
ATOM     37  H   UNK A   2       4.641   1.974  20.569  0.00  0.00    +0.000 HD
ENDBRANCH  34  36
ENDBRANCH   1  34
TORSDOF 14
ENDMDL
MODEL 7
REMARK VINA RESULT:      -6.7      3.749      7.110
REMARK  Name = 
REMARK  14 active torsions:
REMARK  status: ('A' for Active; 'I' for Inactive)
REMARK    1  A    between atoms: N_1  and  CA_2
REMARK    2  A    between atoms: CA_2  and  CB_3
REMARK    3  A    between atoms: CA_2  and  C_11
REMARK    4  A    between atoms: CB_3  and  CG_4
REMARK    5  A    between atoms: CZ_7  and  OH_8
REMARK    6  A    between atoms: N_13  and  C_14
REMARK    7  A    between atoms: C_14  and  C_15
REMARK    8  A    between atoms: C_14  and  C_18
REMARK    9  A    between atoms: C_15  and  O_17
REMARK   10  A    between atoms: C_20  and  C_21
REMARK   11  A    between atoms: C_21  and  O_22
REMARK   12  A    between atoms: C_23  and  O_24
REMARK   13  A    between atoms: C_25  and  O_26
REMARK   14  A    between atoms: C_27  and  O_28
REMARK                            x       y       z     vdW  Elec       q    Type
REMARK                         _______ _______ _______ _____ _____    ______ ____
ROOT
ATOM      1  C   UNK A   2       4.205   3.472  18.357  0.00  0.00    +0.000 C 
ENDROOT
BRANCH   1   2
ATOM      2  C   UNK A   2       5.541   3.914  17.698  0.00  0.00    +0.000 C 
ATOM      3  O   UNK A   2       5.839   5.284  18.036  0.00  0.00    +0.000 OA
ATOM      4  C   UNK A   2       7.140   5.690  17.540  0.00  0.00    +0.000 C 
ATOM      5  C   UNK A   2       7.046   5.743  16.011  0.00  0.00    +0.000 C 
ATOM      6  C   UNK A   2       6.765   4.327  15.492  0.00  0.00    +0.000 C 
ATOM      7  C   UNK A   2       5.516   3.716  16.167  0.00  0.00    +0.000 C 
BRANCH   5   8
ATOM      8  O   UNK A   2       5.961   6.590  15.601  0.00  0.00    +0.000 OA
ATOM      9  H   UNK A   2       5.936   6.575  14.622  0.00  0.00    +0.000 HD
ENDBRANCH   5   8
BRANCH   6  10
ATOM     10  O   UNK A   2       6.574   4.368  14.074  0.00  0.00    +0.000 OA
ATOM     11  H   UNK A   2       7.413   4.704  13.696  0.00  0.00    +0.000 HD
ENDBRANCH   6  10
BRANCH   7  12
ATOM     12  O   UNK A   2       5.391   2.323  15.868  0.00  0.00    +0.000 OA
ATOM     13  H   UNK A   2       4.562   2.171  15.380  0.00  0.00    +0.000 HD
ENDBRANCH   7  12
BRANCH   4  14
ATOM     14  C   UNK A   2       7.515   7.049  18.142  0.00  0.00    +0.000 C 
BRANCH  14  15
ATOM     15  O   UNK A   2       7.789   8.016  17.128  0.00  0.00    +0.000 OA
ATOM     16  H   UNK A   2       7.107   8.707  17.158  0.00  0.00    +0.000 HD
ENDBRANCH  14  15
ENDBRANCH   4  14
ENDBRANCH   1   2
BRANCH   1  19
ATOM     17  C   TYR A   1       2.369   5.097  18.836  0.00  0.00    +0.000 C 
ATOM     18  O   TYR A   1       1.749   4.743  17.840  0.00  0.00    +0.000 OA
ATOM     19  N   UNK A   2       3.566   4.494  19.212  0.00  0.00    +0.000 N 
ATOM     20  H   UNK A   2       3.997   4.797  20.086  0.00  0.00    +0.000 HD
BRANCH  17  21
ATOM     21  CA  TYR A   1       1.849   6.160  19.827  0.00  0.00    +0.000 C 
BRANCH  21  22
ATOM     22  N   TYR A   1       2.212   5.750  21.206  0.00  0.00    +0.000 NA
ATOM     23  H1  TYR A   1       3.137   6.143  21.407  0.00  0.00    +0.000 HD
ATOM     24  H2  TYR A   1       2.363   4.739  21.201  0.00  0.00    +0.000 HD
ENDBRANCH  21  22
BRANCH  21  25
ATOM     25  CB  TYR A   1       2.378   7.562  19.442  0.00  0.00    +0.000 C 
BRANCH  25  26
ATOM     26  CG  TYR A   1       1.363   8.680  19.573  0.00  0.00    +0.000 A 
ATOM     27  CD1 TYR A   1       0.999   9.453  18.458  0.00  0.00    +0.000 A 
ATOM     28  CE1 TYR A   1       0.051  10.471  18.573  0.00  0.00    +0.000 A 
ATOM     29  CZ  TYR A   1      -0.540  10.724  19.806  0.00  0.00    +0.000 A 
ATOM     30  CE2 TYR A   1      -0.203   9.964  20.920  0.00  0.00    +0.000 A 
ATOM     31  CD2 TYR A   1       0.740   8.942  20.803  0.00  0.00    +0.000 A 
BRANCH  29  32
ATOM     32  OH  TYR A   1      -1.464  11.713  19.968  0.00  0.00    +0.000 OA
ATOM     33  HH  TYR A   1      -2.255  11.489  19.451  0.00  0.00    +0.000 HD
ENDBRANCH  29  32
ENDBRANCH  25  26
ENDBRANCH  21  25
ENDBRANCH  17  21
ENDBRANCH   1  19
BRANCH   1  34
ATOM     34  C   UNK A   2       4.437   2.181  19.147  0.00  0.00    +0.000 C 
ATOM     35  O   UNK A   2       4.864   2.154  20.297  0.00  0.00    +0.000 OA
BRANCH  34  36
ATOM     36  O   UNK A   2       4.122   1.046  18.479  0.00  0.00    +0.000 OA
ATOM     37  H   UNK A   2       3.565   1.260  17.704  0.00  0.00    +0.000 HD
ENDBRANCH  34  36
ENDBRANCH   1  34
TORSDOF 14
ENDMDL
MODEL 8
REMARK VINA RESULT:      -6.7      4.029      7.105
REMARK  Name = 
REMARK  14 active torsions:
REMARK  status: ('A' for Active; 'I' for Inactive)
REMARK    1  A    between atoms: N_1  and  CA_2
REMARK    2  A    between atoms: CA_2  and  CB_3
REMARK    3  A    between atoms: CA_2  and  C_11
REMARK    4  A    between atoms: CB_3  and  CG_4
REMARK    5  A    between atoms: CZ_7  and  OH_8
REMARK    6  A    between atoms: N_13  and  C_14
REMARK    7  A    between atoms: C_14  and  C_15
REMARK    8  A    between atoms: C_14  and  C_18
REMARK    9  A    between atoms: C_15  and  O_17
REMARK   10  A    between atoms: C_20  and  C_21
REMARK   11  A    between atoms: C_21  and  O_22
REMARK   12  A    between atoms: C_23  and  O_24
REMARK   13  A    between atoms: C_25  and  O_26
REMARK   14  A    between atoms: C_27  and  O_28
REMARK                            x       y       z     vdW  Elec       q    Type
REMARK                         _______ _______ _______ _____ _____    ______ ____
ROOT
ATOM      1  C   UNK A   2       3.941   3.726  18.516  0.00  0.00    +0.000 C 
ENDROOT
BRANCH   1   2
ATOM      2  C   UNK A   2       5.355   4.075  17.975  0.00  0.00    +0.000 C 
ATOM      3  O   UNK A   2       6.007   5.023  18.845  0.00  0.00    +0.000 OA
ATOM      4  C   UNK A   2       7.375   5.275  18.436  0.00  0.00    +0.000 C 
ATOM      5  C   UNK A   2       7.317   6.038  17.107  0.00  0.00    +0.000 C 
ATOM      6  C   UNK A   2       6.672   5.129  16.054  0.00  0.00    +0.000 C 
ATOM      7  C   UNK A   2       5.296   4.606  16.526  0.00  0.00    +0.000 C 
BRANCH   5   8
ATOM      8  O   UNK A   2       6.506   7.216  17.235  0.00  0.00    +0.000 OA
ATOM      9  H   UNK A   2       5.610   6.924  17.500  0.00  0.00    +0.000 HD
ENDBRANCH   5   8
BRANCH   6  10
ATOM     10  O   UNK A   2       6.517   5.854  14.829  0.00  0.00    +0.000 OA
ATOM     11  H   UNK A   2       6.335   6.782  15.083  0.00  0.00    +0.000 HD
ENDBRANCH   6  10
BRANCH   7  12
ATOM     12  O   UNK A   2       4.804   3.580  15.660  0.00  0.00    +0.000 OA
ATOM     13  H   UNK A   2       3.838   3.511  15.756  0.00  0.00    +0.000 HD
ENDBRANCH   7  12
BRANCH   4  14
ATOM     14  C   UNK A   2       8.095   6.075  19.529  0.00  0.00    +0.000 C 
BRANCH  14  15
ATOM     15  O   UNK A   2       8.225   5.320  20.733  0.00  0.00    +0.000 OA
ATOM     16  H   UNK A   2       9.169   5.174  20.914  0.00  0.00    +0.000 HD
ENDBRANCH  14  15
ENDBRANCH   4  14
ENDBRANCH   1   2
BRANCH   1  19
ATOM     17  C   TYR A   1       2.206   5.508  18.747  0.00  0.00    +0.000 C 
ATOM     18  O   TYR A   1       1.697   5.201  17.675  0.00  0.00    +0.000 OA
ATOM     19  N   UNK A   2       3.283   4.807  19.280  0.00  0.00    +0.000 N 
ATOM     20  H   UNK A   2       3.617   5.079  20.205  0.00  0.00    +0.000 HD
BRANCH  17  21
ATOM     21  CA  TYR A   1       1.651   6.621  19.661  0.00  0.00    +0.000 C 
BRANCH  21  22
ATOM     22  N   TYR A   1       2.028   6.322  21.065  0.00  0.00    +0.000 NA
ATOM     23  H1  TYR A   1       1.177   6.029  21.553  0.00  0.00    +0.000 HD
ATOM     24  H2  TYR A   1       2.284   7.204  21.513  0.00  0.00    +0.000 HD
ENDBRANCH  21  22
BRANCH  21  25
ATOM     25  CB  TYR A   1       2.133   8.009  19.176  0.00  0.00    +0.000 C 
BRANCH  25  26
ATOM     26  CG  TYR A   1       1.132   9.131  19.372  0.00  0.00    +0.000 A 
ATOM     27  CD1 TYR A   1       0.815   9.593  20.660  0.00  0.00    +0.000 A 
ATOM     28  CE1 TYR A   1      -0.091  10.640  20.840  0.00  0.00    +0.000 A 
ATOM     29  CZ  TYR A   1      -0.689  11.230  19.732  0.00  0.00    +0.000 A 
ATOM     30  CE2 TYR A   1      -0.382  10.795  18.449  0.00  0.00    +0.000 A 
ATOM     31  CD2 TYR A   1       0.530   9.754  18.268  0.00  0.00    +0.000 A 
BRANCH  29  32
ATOM     32  OH  TYR A   1      -1.587  12.248  19.861  0.00  0.00    +0.000 OA
ATOM     33  HH  TYR A   1      -1.233  13.034  19.414  0.00  0.00    +0.000 HD
ENDBRANCH  29  32
ENDBRANCH  25  26
ENDBRANCH  21  25
ENDBRANCH  17  21
ENDBRANCH   1  19
BRANCH   1  34
ATOM     34  C   UNK A   2       4.026   2.450  19.359  0.00  0.00    +0.000 C 
ATOM     35  O   UNK A   2       3.060   1.738  19.616  0.00  0.00    +0.000 OA
BRANCH  34  36
ATOM     36  O   UNK A   2       5.269   2.149  19.802  0.00  0.00    +0.000 OA
ATOM     37  H   UNK A   2       5.648   2.915  20.277  0.00  0.00    +0.000 HD
ENDBRANCH  34  36
ENDBRANCH   1  34
TORSDOF 14
ENDMDL
MODEL 9
REMARK VINA RESULT:      -6.7      0.443      1.127
REMARK  Name = 
REMARK  14 active torsions:
REMARK  status: ('A' for Active; 'I' for Inactive)
REMARK    1  A    between atoms: N_1  and  CA_2
REMARK    2  A    between atoms: CA_2  and  CB_3
REMARK    3  A    between atoms: CA_2  and  C_11
REMARK    4  A    between atoms: CB_3  and  CG_4
REMARK    5  A    between atoms: CZ_7  and  OH_8
REMARK    6  A    between atoms: N_13  and  C_14
REMARK    7  A    between atoms: C_14  and  C_15
REMARK    8  A    between atoms: C_14  and  C_18
REMARK    9  A    between atoms: C_15  and  O_17
REMARK   10  A    between atoms: C_20  and  C_21
REMARK   11  A    between atoms: C_21  and  O_22
REMARK   12  A    between atoms: C_23  and  O_24
REMARK   13  A    between atoms: C_25  and  O_26
REMARK   14  A    between atoms: C_27  and  O_28
REMARK                            x       y       z     vdW  Elec       q    Type
REMARK                         _______ _______ _______ _____ _____    ______ ____
ROOT
ATOM      1  C   UNK A   2       6.346   5.705  16.957  0.00  0.00    +0.000 C 
ENDROOT
BRANCH   1   2
ATOM      2  C   UNK A   2       4.810   5.660  17.192  0.00  0.00    +0.000 C 
ATOM      3  O   UNK A   2       4.331   6.946  17.635  0.00  0.00    +0.000 OA
ATOM      4  C   UNK A   2       2.885   6.973  17.744  0.00  0.00    +0.000 C 
ATOM      5  C   UNK A   2       2.502   6.060  18.915  0.00  0.00    +0.000 C 
ATOM      6  C   UNK A   2       2.921   4.626  18.569  0.00  0.00    +0.000 C 
ATOM      7  C   UNK A   2       4.418   4.551  18.192  0.00  0.00    +0.000 C 
BRANCH   5   8
ATOM      8  O   UNK A   2       3.197   6.451  20.109  0.00  0.00    +0.000 OA
ATOM      9  H   UNK A   2       2.797   7.290  20.416  0.00  0.00    +0.000 HD
ENDBRANCH   5   8
BRANCH   6  10
ATOM     10  O   UNK A   2       2.663   3.770  19.688  0.00  0.00    +0.000 OA
ATOM     11  H   UNK A   2       3.483   3.252  19.828  0.00  0.00    +0.000 HD
ENDBRANCH   6  10
BRANCH   7  12
ATOM     12  O   UNK A   2       4.753   3.273  17.643  0.00  0.00    +0.000 OA
ATOM     13  H   UNK A   2       4.219   3.114  16.844  0.00  0.00    +0.000 HD
ENDBRANCH   7  12
BRANCH   4  14
ATOM     14  C   UNK A   2       2.417   8.417  17.961  0.00  0.00    +0.000 C 
BRANCH  14  15
ATOM     15  O   UNK A   2       1.697   8.557  19.186  0.00  0.00    +0.000 OA
ATOM     16  H   UNK A   2       1.798   7.743  19.707  0.00  0.00    +0.000 HD
ENDBRANCH  14  15
ENDBRANCH   4  14
ENDBRANCH   1   2
BRANCH   1  19
ATOM     17  C   TYR A   1       7.809   7.444  17.993  0.00  0.00    +0.000 C 
ATOM     18  O   TYR A   1       8.196   6.658  18.849  0.00  0.00    +0.000 OA
ATOM     19  N   UNK A   2       6.938   7.059  16.978  0.00  0.00    +0.000 N 
ATOM     20  H   UNK A   2       6.705   7.749  16.264  0.00  0.00    +0.000 HD
BRANCH  17  21
ATOM     21  CA  TYR A   1       8.318   8.897  17.882  0.00  0.00    +0.000 C 
BRANCH  21  22
ATOM     22  N   TYR A   1       7.186   9.774  17.493  0.00  0.00    +0.000 NA
ATOM     23  H1  TYR A   1       7.510  10.365  16.721  0.00  0.00    +0.000 HD
ATOM     24  H2  TYR A   1       7.021  10.429  18.259  0.00  0.00    +0.000 HD
ENDBRANCH  21  22
BRANCH  21  25
ATOM     25  CB  TYR A   1       9.007   9.330  19.197  0.00  0.00    +0.000 C 
BRANCH  25  26
ATOM     26  CG  TYR A   1       9.703  10.676  19.135  0.00  0.00    +0.000 A 
ATOM     27  CD1 TYR A   1      10.153  11.195  17.910  0.00  0.00    +0.000 A 
ATOM     28  CE1 TYR A   1      10.777  12.442  17.849  0.00  0.00    +0.000 A 
ATOM     29  CZ  TYR A   1      10.957  13.178  19.014  0.00  0.00    +0.000 A 
ATOM     30  CE2 TYR A   1      10.511  12.688  20.235  0.00  0.00    +0.000 A 
ATOM     31  CD2 TYR A   1       9.880  11.445  20.295  0.00  0.00    +0.000 A 
BRANCH  29  32
ATOM     32  OH  TYR A   1      11.569  14.397  19.003  0.00  0.00    +0.000 OA
ATOM     33  HH  TYR A   1      11.362  14.857  19.832  0.00  0.00    +0.000 HD
ENDBRANCH  29  32
ENDBRANCH  25  26
ENDBRANCH  21  25
ENDBRANCH  17  21
ENDBRANCH   1  19
BRANCH   1  34
ATOM     34  C   UNK A   2       6.674   4.997  15.639  0.00  0.00    +0.000 C 
ATOM     35  O   UNK A   2       6.957   5.588  14.601  0.00  0.00    +0.000 OA
BRANCH  34  36
ATOM     36  O   UNK A   2       6.638   3.645  15.701  0.00  0.00    +0.000 OA
ATOM     37  H   UNK A   2       5.792   3.352  16.091  0.00  0.00    +0.000 HD
ENDBRANCH  34  36
ENDBRANCH   1  34
TORSDOF 14
ENDMDL
