MODEL 1
REMARK VINA RESULT:      -7.6      0.000      0.000
REMARK  Name = 
REMARK  4 active torsions:
REMARK  status: ('A' for Active; 'I' for Inactive)
REMARK    1  A    between atoms: C_8  and  S_9
REMARK    2  A    between atoms: S_9  and  N_12
REMARK    3  A    between atoms: N_12  and  C_13
REMARK    4  A    between atoms: C_13  and  C_14
REMARK                            x       y       z     vdW  Elec       q    Type
REMARK                         _______ _______ _______ _____ _____    ______ ____
ROOT
ATOM      1  O   UNL     1       0.338   8.225  21.795  0.00  0.00    +0.000 OA
ATOM      2  C   UNL     1       1.064   8.149  20.807  0.00  0.00    +0.000 C 
ATOM      3  C   UNL     1       1.184   9.263  19.768  0.00  0.00    +0.000 C 
ATOM      4  O   UNL     1       1.686   8.957  18.476  0.00  0.00    +0.000 OA
ATOM      5  C   UNL     1       2.573   7.918  18.448  0.00  0.00    +0.000 A 
ATOM      6  C   UNL     1       3.330   7.787  17.284  0.00  0.00    +0.000 A 
ATOM      7  C   UNL     1       4.233   6.733  17.155  0.00  0.00    +0.000 A 
ATOM      8  C   UNL     1       4.367   5.806  18.195  0.00  0.00    +0.000 A 
ATOM      9  C   UNL     1       3.587   5.909  19.352  0.00  0.00    +0.000 A 
ATOM     10  C   UNL     1       2.696   6.975  19.474  0.00  0.00    +0.000 A 
ATOM     11  N   UNL     1       1.897   7.081  20.612  0.00  0.00    +0.000 N 
ATOM     12  H   UNL     1       1.887   6.361  21.324  0.00  0.00    +0.000 HD
ENDROOT
BRANCH   8  13
ATOM     13  S   UNL     1       5.471   4.423  17.979  0.00  0.00    +0.000 S 
ATOM     14  O   UNL     1       6.418   4.773  16.943  0.00  0.00    +0.000 OA
ATOM     15  O   UNL     1       5.893   4.015  19.301  0.00  0.00    +0.000 OA
BRANCH  13  16
ATOM     16  N   UNL     1       4.428   3.229  17.394  0.00  0.00    +0.000 NA
ATOM     17  H   UNL     1       4.714   2.894  16.472  0.00  0.00    +0.000 HD
BRANCH  16  18
ATOM     18  C   UNL     1       4.145   2.124  18.327  0.00  0.00    +0.000 C 
BRANCH  18  19
ATOM     19  C   UNL     1       3.013   2.421  19.286  0.00  0.00    +0.000 A 
ATOM     20  C   UNL     1       3.278   2.462  20.665  0.00  0.00    +0.000 A 
ATOM     21  C   UNL     1       2.269   2.767  21.577  0.00  0.00    +0.000 A 
ATOM     22  C   UNL     1       0.982   3.047  21.126  0.00  0.00    +0.000 A 
ATOM     23  C   UNL     1       0.709   3.038  19.758  0.00  0.00    +0.000 A 
ATOM     24  C   UNL     1       1.721   2.738  18.842  0.00  0.00    +0.000 A 
ENDBRANCH  18  19
ENDBRANCH  16  18
ENDBRANCH  13  16
ENDBRANCH   8  13
TORSDOF 4
ENDMDL
MODEL 2
REMARK VINA RESULT:      -7.4      2.419      4.490
REMARK  Name = 
REMARK  4 active torsions:
REMARK  status: ('A' for Active; 'I' for Inactive)
REMARK    1  A    between atoms: C_8  and  S_9
REMARK    2  A    between atoms: S_9  and  N_12
REMARK    3  A    between atoms: N_12  and  C_13
REMARK    4  A    between atoms: C_13  and  C_14
REMARK                            x       y       z     vdW  Elec       q    Type
REMARK                         _______ _______ _______ _____ _____    ______ ____
ROOT
ATOM      1  O   UNL     1       2.046  10.487  17.501  0.00  0.00    +0.000 OA
ATOM      2  C   UNL     1       1.937   9.486  18.205  0.00  0.00    +0.000 C 
ATOM      3  C   UNL     1       1.289   9.500  19.588  0.00  0.00    +0.000 C 
ATOM      4  O   UNL     1       1.567   8.447  20.498  0.00  0.00    +0.000 OA
ATOM      5  C   UNL     1       1.847   7.249  19.903  0.00  0.00    +0.000 A 
ATOM      6  C   UNL     1       1.808   6.127  20.731  0.00  0.00    +0.000 A 
ATOM      7  C   UNL     1       2.116   4.869  20.214  0.00  0.00    +0.000 A 
ATOM      8  C   UNL     1       2.472   4.742  18.867  0.00  0.00    +0.000 A 
ATOM      9  C   UNL     1       2.548   5.866  18.037  0.00  0.00    +0.000 A 
ATOM     10  C   UNL     1       2.225   7.118  18.562  0.00  0.00    +0.000 A 
ATOM     11  N   UNL     1       2.315   8.251  17.753  0.00  0.00    +0.000 N 
ATOM     12  H   UNL     1       2.684   8.204  16.812  0.00  0.00    +0.000 HD
ENDROOT
BRANCH   8  13
ATOM     13  S   UNL     1       2.936   3.138  18.245  0.00  0.00    +0.000 S 
ATOM     14  O   UNL     1       2.816   2.193  19.334  0.00  0.00    +0.000 OA
ATOM     15  O   UNL     1       2.241   2.958  16.990  0.00  0.00    +0.000 OA
BRANCH  13  16
ATOM     16  N   UNL     1       4.573   3.360  17.885  0.00  0.00    +0.000 NA
ATOM     17  H   UNL     1       4.703   3.832  16.989  0.00  0.00    +0.000 HD
BRANCH  16  18
ATOM     18  C   UNL     1       5.380   3.965  18.959  0.00  0.00    +0.000 C 
BRANCH  18  19
ATOM     19  C   UNL     1       6.209   5.144  18.497  0.00  0.00    +0.000 A 
ATOM     20  C   UNL     1       5.812   5.851  17.350  0.00  0.00    +0.000 A 
ATOM     21  C   UNL     1       6.529   6.964  16.913  0.00  0.00    +0.000 A 
ATOM     22  C   UNL     1       7.648   7.395  17.622  0.00  0.00    +0.000 A 
ATOM     23  C   UNL     1       8.038   6.721  18.779  0.00  0.00    +0.000 A 
ATOM     24  C   UNL     1       7.317   5.608  19.221  0.00  0.00    +0.000 A 
ENDBRANCH  18  19
ENDBRANCH  16  18
ENDBRANCH  13  16
ENDBRANCH   8  13
TORSDOF 4
ENDMDL
MODEL 3
REMARK VINA RESULT:      -7.4      1.537      2.194
REMARK  Name = 
REMARK  4 active torsions:
REMARK  status: ('A' for Active; 'I' for Inactive)
REMARK    1  A    between atoms: C_8  and  S_9
REMARK    2  A    between atoms: S_9  and  N_12
REMARK    3  A    between atoms: N_12  and  C_13
REMARK    4  A    between atoms: C_13  and  C_14
REMARK                            x       y       z     vdW  Elec       q    Type
REMARK                         _______ _______ _______ _____ _____    ______ ____
ROOT
ATOM      1  O   UNL     1       0.359  11.714  18.242  0.00  0.00    +0.000 OA
ATOM      2  C   UNL     1       0.713  10.617  18.665  0.00  0.00    +0.000 C 
ATOM      3  C   UNL     1       0.097   9.955  19.897  0.00  0.00    +0.000 C 
ATOM      4  O   UNL     1       0.813   8.927  20.565  0.00  0.00    +0.000 OA
ATOM      5  C   UNL     1       1.637   8.197  19.755  0.00  0.00    +0.000 A 
ATOM      6  C   UNL     1       2.106   6.993  20.280  0.00  0.00    +0.000 A 
ATOM      7  C   UNL     1       2.981   6.203  19.536  0.00  0.00    +0.000 A 
ATOM      8  C   UNL     1       3.391   6.629  18.268  0.00  0.00    +0.000 A 
ATOM      9  C   UNL     1       2.953   7.852  17.747  0.00  0.00    +0.000 A 
ATOM     10  C   UNL     1       2.067   8.628  18.495  0.00  0.00    +0.000 A 
ATOM     11  N   UNL     1       1.637   9.858  17.999  0.00  0.00    +0.000 N 
ATOM     12  H   UNL     1       2.010  10.245  17.141  0.00  0.00    +0.000 HD
ENDROOT
BRANCH   8  13
ATOM     13  S   UNL     1       4.569   5.642  17.365  0.00  0.00    +0.000 S 
ATOM     14  O   UNL     1       4.920   6.366  16.163  0.00  0.00    +0.000 OA
ATOM     15  O   UNL     1       5.564   5.203  18.318  0.00  0.00    +0.000 OA
BRANCH  13  16
ATOM     16  N   UNL     1       3.645   4.290  16.945  0.00  0.00    +0.000 NA
ATOM     17  H   UNL     1       3.682   4.103  15.942  0.00  0.00    +0.000 HD
BRANCH  16  18
ATOM     18  C   UNL     1       3.893   3.081  17.749  0.00  0.00    +0.000 C 
BRANCH  18  19
ATOM     19  C   UNL     1       2.964   2.946  18.936  0.00  0.00    +0.000 A 
ATOM     20  C   UNL     1       3.513   2.784  20.219  0.00  0.00    +0.000 A 
ATOM     21  C   UNL     1       2.691   2.691  21.341  0.00  0.00    +0.000 A 
ATOM     22  C   UNL     1       1.308   2.771  21.201  0.00  0.00    +0.000 A 
ATOM     23  C   UNL     1       0.748   2.960  19.937  0.00  0.00    +0.000 A 
ATOM     24  C   UNL     1       1.571   3.058  18.812  0.00  0.00    +0.000 A 
ENDBRANCH  18  19
ENDBRANCH  16  18
ENDBRANCH  13  16
ENDBRANCH   8  13
TORSDOF 4
ENDMDL
MODEL 4
REMARK VINA RESULT:      -7.4      1.680      2.549
REMARK  Name = 
REMARK  4 active torsions:
REMARK  status: ('A' for Active; 'I' for Inactive)
REMARK    1  A    between atoms: C_8  and  S_9
REMARK    2  A    between atoms: S_9  and  N_12
REMARK    3  A    between atoms: N_12  and  C_13
REMARK    4  A    between atoms: C_13  and  C_14
REMARK                            x       y       z     vdW  Elec       q    Type
REMARK                         _______ _______ _______ _____ _____    ______ ____
ROOT
ATOM      1  O   UNL     1       0.065  11.903  18.366  0.00  0.00    +0.000 OA
ATOM      2  C   UNL     1       0.456  10.812  18.773  0.00  0.00    +0.000 C 
ATOM      3  C   UNL     1      -0.130  10.115  19.999  0.00  0.00    +0.000 C 
ATOM      4  O   UNL     1       0.622   9.102  20.649  0.00  0.00    +0.000 OA
ATOM      5  C   UNL     1       1.463   8.409  19.824  0.00  0.00    +0.000 A 
ATOM      6  C   UNL     1       1.973   7.213  20.330  0.00  0.00    +0.000 A 
ATOM      7  C   UNL     1       2.867   6.460  19.570  0.00  0.00    +0.000 A 
ATOM      8  C   UNL     1       3.255   6.916  18.305  0.00  0.00    +0.000 A 
ATOM      9  C   UNL     1       2.775   8.131  17.803  0.00  0.00    +0.000 A 
ATOM     10  C   UNL     1       1.871   8.868  18.567  0.00  0.00    +0.000 A 
ATOM     11  N   UNL     1       1.399  10.091  18.090  0.00  0.00    +0.000 N 
ATOM     12  H   UNL     1       1.753  10.501  17.235  0.00  0.00    +0.000 HD
ENDROOT
BRANCH   8  13
ATOM     13  S   UNL     1       4.456   5.978  17.382  0.00  0.00    +0.000 S 
ATOM     14  O   UNL     1       4.747   6.709  16.167  0.00  0.00    +0.000 OA
ATOM     15  O   UNL     1       5.492   5.592  18.314  0.00  0.00    +0.000 OA
BRANCH  13  16
ATOM     16  N   UNL     1       3.588   4.582  16.991  0.00  0.00    +0.000 NA
ATOM     17  H   UNL     1       3.610   4.389  15.988  0.00  0.00    +0.000 HD
BRANCH  16  18
ATOM     18  C   UNL     1       3.910   3.390  17.796  0.00  0.00    +0.000 C 
BRANCH  18  19
ATOM     19  C   UNL     1       3.001   3.208  18.992  0.00  0.00    +0.000 A 
ATOM     20  C   UNL     1       1.609   3.240  18.804  0.00  0.00    +0.000 A 
ATOM     21  C   UNL     1       0.740   3.041  19.876  0.00  0.00    +0.000 A 
ATOM     22  C   UNL     1       1.246   2.797  21.149  0.00  0.00    +0.000 A 
ATOM     23  C   UNL     1       2.626   2.735  21.347  0.00  0.00    +0.000 A 
ATOM     24  C   UNL     1       3.499   2.928  20.273  0.00  0.00    +0.000 A 
ENDBRANCH  18  19
ENDBRANCH  16  18
ENDBRANCH  13  16
ENDBRANCH   8  13
TORSDOF 4
ENDMDL
MODEL 5
REMARK VINA RESULT:      -7.4      3.302      6.525
REMARK  Name = 
REMARK  4 active torsions:
REMARK  status: ('A' for Active; 'I' for Inactive)
REMARK    1  A    between atoms: C_8  and  S_9
REMARK    2  A    between atoms: S_9  and  N_12
REMARK    3  A    between atoms: N_12  and  C_13
REMARK    4  A    between atoms: C_13  and  C_14
REMARK                            x       y       z     vdW  Elec       q    Type
REMARK                         _______ _______ _______ _____ _____    ______ ____
ROOT
ATOM      1  O   UNL     1       6.668   3.098  11.753  0.00  0.00    +0.000 OA
ATOM      2  C   UNL     1       6.725   3.741  12.798  0.00  0.00    +0.000 C 
ATOM      3  C   UNL     1       7.555   5.015  12.954  0.00  0.00    +0.000 C 
ATOM      4  O   UNL     1       7.911   5.457  14.254  0.00  0.00    +0.000 OA
ATOM      5  C   UNL     1       7.015   5.120  15.229  0.00  0.00    +0.000 A 
ATOM      6  C   UNL     1       7.145   5.793  16.443  0.00  0.00    +0.000 A 
ATOM      7  C   UNL     1       6.295   5.485  17.505  0.00  0.00    +0.000 A 
ATOM      8  C   UNL     1       5.322   4.492  17.347  0.00  0.00    +0.000 A 
ATOM      9  C   UNL     1       5.207   3.786  16.144  0.00  0.00    +0.000 A 
ATOM     10  C   UNL     1       6.054   4.113  15.085  0.00  0.00    +0.000 A 
ATOM     11  N   UNL     1       5.966   3.406  13.886  0.00  0.00    +0.000 N 
ATOM     12  H   UNL     1       5.354   2.606  13.784  0.00  0.00    +0.000 HD
ENDROOT
BRANCH   8  13
ATOM     13  S   UNL     1       4.297   4.059  18.739  0.00  0.00    +0.000 S 
ATOM     14  O   UNL     1       3.165   3.311  18.237  0.00  0.00    +0.000 OA
ATOM     15  O   UNL     1       5.177   3.533  19.759  0.00  0.00    +0.000 OA
BRANCH  13  16
ATOM     16  N   UNL     1       3.766   5.574  19.269  0.00  0.00    +0.000 NA
ATOM     17  H   UNL     1       4.534   6.137  19.641  0.00  0.00    +0.000 HD
BRANCH  16  18
ATOM     18  C   UNL     1       2.937   6.325  18.309  0.00  0.00    +0.000 C 
BRANCH  18  19
ATOM     19  C   UNL     1       2.249   7.526  18.919  0.00  0.00    +0.000 A 
ATOM     20  C   UNL     1       1.955   8.632  18.106  0.00  0.00    +0.000 A 
ATOM     21  C   UNL     1       1.290   9.743  18.623  0.00  0.00    +0.000 A 
ATOM     22  C   UNL     1       0.898   9.762  19.959  0.00  0.00    +0.000 A 
ATOM     23  C   UNL     1       1.157   8.659  20.773  0.00  0.00    +0.000 A 
ATOM     24  C   UNL     1       1.819   7.543  20.255  0.00  0.00    +0.000 A 
ENDBRANCH  18  19
ENDBRANCH  16  18
ENDBRANCH  13  16
ENDBRANCH   8  13
TORSDOF 4
ENDMDL
MODEL 6
REMARK VINA RESULT:      -7.4      4.209      6.169
REMARK  Name = 
REMARK  4 active torsions:
REMARK  status: ('A' for Active; 'I' for Inactive)
REMARK    1  A    between atoms: C_8  and  S_9
REMARK    2  A    between atoms: S_9  and  N_12
REMARK    3  A    between atoms: N_12  and  C_13
REMARK    4  A    between atoms: C_13  and  C_14
REMARK                            x       y       z     vdW  Elec       q    Type
REMARK                         _______ _______ _______ _____ _____    ______ ____
ROOT
ATOM      1  O   UNL     1       0.308   1.994  18.432  0.00  0.00    +0.000 OA
ATOM      2  C   UNL     1       1.333   2.621  18.691  0.00  0.00    +0.000 C 
ATOM      3  C   UNL     1       1.873   2.795  20.109  0.00  0.00    +0.000 C 
ATOM      4  O   UNL     1       2.784   3.848  20.382  0.00  0.00    +0.000 OA
ATOM      5  C   UNL     1       3.566   4.205  19.320  0.00  0.00    +0.000 A 
ATOM      6  C   UNL     1       4.680   4.992  19.614  0.00  0.00    +0.000 A 
ATOM      7  C   UNL     1       5.512   5.432  18.585  0.00  0.00    +0.000 A 
ATOM      8  C   UNL     1       5.219   5.087  17.261  0.00  0.00    +0.000 A 
ATOM      9  C   UNL     1       4.085   4.326  16.954  0.00  0.00    +0.000 A 
ATOM     10  C   UNL     1       3.267   3.881  17.992  0.00  0.00    +0.000 A 
ATOM     11  N   UNL     1       2.122   3.139  17.701  0.00  0.00    +0.000 N 
ATOM     12  H   UNL     1       1.822   2.977  16.748  0.00  0.00    +0.000 HD
ENDROOT
BRANCH   8  13
ATOM     13  S   UNL     1       6.252   5.722  15.956  0.00  0.00    +0.000 S 
ATOM     14  O   UNL     1       5.429   6.560  15.112  0.00  0.00    +0.000 OA
ATOM     15  O   UNL     1       7.462   6.209  16.579  0.00  0.00    +0.000 OA
BRANCH  13  16
ATOM     16  N   UNL     1       6.655   4.315  15.110  0.00  0.00    +0.000 NA
ATOM     17  H   UNL     1       5.927   3.603  15.189  0.00  0.00    +0.000 HD
BRANCH  16  18
ATOM     18  C   UNL     1       7.092   4.516  13.718  0.00  0.00    +0.000 C 
BRANCH  18  19
ATOM     19  C   UNL     1       6.293   3.714  12.714  0.00  0.00    +0.000 A 
ATOM     20  C   UNL     1       6.909   2.639  12.052  0.00  0.00    +0.000 A 
ATOM     21  C   UNL     1       6.196   1.855  11.147  0.00  0.00    +0.000 A 
ATOM     22  C   UNL     1       4.853   2.124  10.897  0.00  0.00    +0.000 A 
ATOM     23  C   UNL     1       4.219   3.170  11.568  0.00  0.00    +0.000 A 
ATOM     24  C   UNL     1       4.931   3.954  12.479  0.00  0.00    +0.000 A 
ENDBRANCH  18  19
ENDBRANCH  16  18
ENDBRANCH  13  16
ENDBRANCH   8  13
TORSDOF 4
ENDMDL
MODEL 7
REMARK VINA RESULT:      -7.3      3.652      5.682
REMARK  Name = 
REMARK  4 active torsions:
REMARK  status: ('A' for Active; 'I' for Inactive)
REMARK    1  A    between atoms: C_8  and  S_9
REMARK    2  A    between atoms: S_9  and  N_12
REMARK    3  A    between atoms: N_12  and  C_13
REMARK    4  A    between atoms: C_13  and  C_14
REMARK                            x       y       z     vdW  Elec       q    Type
REMARK                         _______ _______ _______ _____ _____    ______ ____
ROOT
ATOM      1  O   UNL     1       2.781   2.019  21.961  0.00  0.00    +0.000 OA
ATOM      2  C   UNL     1       2.820   2.905  21.111  0.00  0.00    +0.000 C 
ATOM      3  C   UNL     1       1.585   3.676  20.646  0.00  0.00    +0.000 C 
ATOM      4  O   UNL     1       1.620   4.361  19.404  0.00  0.00    +0.000 OA
ATOM      5  C   UNL     1       2.860   4.803  19.039  0.00  0.00    +0.000 A 
ATOM      6  C   UNL     1       2.900   5.745  18.011  0.00  0.00    +0.000 A 
ATOM      7  C   UNL     1       4.126   6.223  17.552  0.00  0.00    +0.000 A 
ATOM      8  C   UNL     1       5.312   5.746  18.120  0.00  0.00    +0.000 A 
ATOM      9  C   UNL     1       5.284   4.776  19.128  0.00  0.00    +0.000 A 
ATOM     10  C   UNL     1       4.051   4.315  19.589  0.00  0.00    +0.000 A 
ATOM     11  N   UNL     1       4.006   3.333  20.579  0.00  0.00    +0.000 N 
ATOM     12  H   UNL     1       4.846   2.886  20.922  0.00  0.00    +0.000 HD
ENDROOT
BRANCH   8  13
ATOM     13  S   UNL     1       6.870   6.313  17.467  0.00  0.00    +0.000 S 
ATOM     14  O   UNL     1       6.587   7.302  16.450  0.00  0.00    +0.000 OA
ATOM     15  O   UNL     1       7.721   6.597  18.600  0.00  0.00    +0.000 OA
BRANCH  13  16
ATOM     16  N   UNL     1       7.470   4.917  16.727  0.00  0.00    +0.000 NA
ATOM     17  H   UNL     1       8.026   4.354  17.373  0.00  0.00    +0.000 HD
BRANCH  16  18
ATOM     18  C   UNL     1       6.476   4.111  15.996  0.00  0.00    +0.000 C 
BRANCH  18  19
ATOM     19  C   UNL     1       6.614   4.205  14.492  0.00  0.00    +0.000 A 
ATOM     20  C   UNL     1       7.635   5.001  13.947  0.00  0.00    +0.000 A 
ATOM     21  C   UNL     1       7.815   5.085  12.567  0.00  0.00    +0.000 A 
ATOM     22  C   UNL     1       6.986   4.366  11.711  0.00  0.00    +0.000 A 
ATOM     23  C   UNL     1       5.986   3.548  12.237  0.00  0.00    +0.000 A 
ATOM     24  C   UNL     1       5.807   3.459  13.620  0.00  0.00    +0.000 A 
ENDBRANCH  18  19
ENDBRANCH  16  18
ENDBRANCH  13  16
ENDBRANCH   8  13
TORSDOF 4
ENDMDL
MODEL 8
REMARK VINA RESULT:      -7.3      3.262      5.937
REMARK  Name = 
REMARK  4 active torsions:
REMARK  status: ('A' for Active; 'I' for Inactive)
REMARK    1  A    between atoms: C_8  and  S_9
REMARK    2  A    between atoms: S_9  and  N_12
REMARK    3  A    between atoms: N_12  and  C_13
REMARK    4  A    between atoms: C_13  and  C_14
REMARK                            x       y       z     vdW  Elec       q    Type
REMARK                         _______ _______ _______ _____ _____    ______ ____
ROOT
ATOM      1  O   UNL     1       8.619   6.155  12.213  0.00  0.00    +0.000 OA
ATOM      2  C   UNL     1       7.906   5.458  12.930  0.00  0.00    +0.000 C 
ATOM      3  C   UNL     1       7.187   4.204  12.433  0.00  0.00    +0.000 C 
ATOM      4  O   UNL     1       6.078   3.703  13.163  0.00  0.00    +0.000 OA
ATOM      5  C   UNL     1       6.125   3.959  14.504  0.00  0.00    +0.000 A 
ATOM      6  C   UNL     1       5.247   3.225  15.302  0.00  0.00    +0.000 A 
ATOM      7  C   UNL     1       5.202   3.448  16.677  0.00  0.00    +0.000 A 
ATOM      8  C   UNL     1       6.035   4.417  17.248  0.00  0.00    +0.000 A 
ATOM      9  C   UNL     1       6.894   5.183  16.452  0.00  0.00    +0.000 A 
ATOM     10  C   UNL     1       6.939   4.941  15.079  0.00  0.00    +0.000 A 
ATOM     11  N   UNL     1       7.775   5.709  14.269  0.00  0.00    +0.000 N 
ATOM     12  H   UNL     1       8.298   6.494  14.637  0.00  0.00    +0.000 HD
ENDROOT
BRANCH   8  13
ATOM     13  S   UNL     1       5.908   4.741  18.996  0.00  0.00    +0.000 S 
ATOM     14  O   UNL     1       5.369   3.555  19.625  0.00  0.00    +0.000 OA
ATOM     15  O   UNL     1       7.166   5.325  19.406  0.00  0.00    +0.000 OA
BRANCH  13  16
ATOM     16  N   UNL     1       4.746   5.967  19.043  0.00  0.00    +0.000 NA
ATOM     17  H   UNL     1       5.163   6.890  18.907  0.00  0.00    +0.000 HD
BRANCH  16  18
ATOM     18  C   UNL     1       3.567   5.754  18.187  0.00  0.00    +0.000 C 
BRANCH  18  19
ATOM     19  C   UNL     1       2.534   4.836  18.803  0.00  0.00    +0.000 A 
ATOM     20  C   UNL     1       1.973   3.814  18.019  0.00  0.00    +0.000 A 
ATOM     21  C   UNL     1       1.044   2.927  18.560  0.00  0.00    +0.000 A 
ATOM     22  C   UNL     1       0.669   3.039  19.896  0.00  0.00    +0.000 A 
ATOM     23  C   UNL     1       1.238   4.030  20.696  0.00  0.00    +0.000 A 
ATOM     24  C   UNL     1       2.173   4.917  20.156  0.00  0.00    +0.000 A 
ENDBRANCH  18  19
ENDBRANCH  16  18
ENDBRANCH  13  16
ENDBRANCH   8  13
TORSDOF 4
ENDMDL
MODEL 9
REMARK VINA RESULT:      -7.3      3.330      6.425
REMARK  Name = 
REMARK  4 active torsions:
REMARK  status: ('A' for Active; 'I' for Inactive)
REMARK    1  A    between atoms: C_8  and  S_9
REMARK    2  A    between atoms: S_9  and  N_12
REMARK    3  A    between atoms: N_12  and  C_13
REMARK    4  A    between atoms: C_13  and  C_14
REMARK                            x       y       z     vdW  Elec       q    Type
REMARK                         _______ _______ _______ _____ _____    ______ ____
ROOT
ATOM      1  O   UNL     1       6.634   3.046  11.795  0.00  0.00    +0.000 OA
ATOM      2  C   UNL     1       6.694   3.692  12.838  0.00  0.00    +0.000 C 
ATOM      3  C   UNL     1       7.448   5.015  12.962  0.00  0.00    +0.000 C 
ATOM      4  O   UNL     1       7.830   5.480  14.248  0.00  0.00    +0.000 OA
ATOM      5  C   UNL     1       6.997   5.088  15.258  0.00  0.00    +0.000 A 
ATOM      6  C   UNL     1       7.135   5.769  16.468  0.00  0.00    +0.000 A 
ATOM      7  C   UNL     1       6.351   5.409  17.563  0.00  0.00    +0.000 A 
ATOM      8  C   UNL     1       5.435   4.357  17.443  0.00  0.00    +0.000 A 
ATOM      9  C   UNL     1       5.315   3.645  16.245  0.00  0.00    +0.000 A 
ATOM     10  C   UNL     1       6.095   4.023  15.152  0.00  0.00    +0.000 A 
ATOM     11  N   UNL     1       6.002   3.311  13.956  0.00  0.00    +0.000 N 
ATOM     12  H   UNL     1       5.438   2.474  13.879  0.00  0.00    +0.000 HD
ENDROOT
BRANCH   8  13
ATOM     13  S   UNL     1       4.498   3.863  18.876  0.00  0.00    +0.000 S 
ATOM     14  O   UNL     1       3.521   2.885  18.447  0.00  0.00    +0.000 OA
ATOM     15  O   UNL     1       5.452   3.587  19.926  0.00  0.00    +0.000 OA
BRANCH  13  16
ATOM     16  N   UNL     1       3.701   5.296  19.286  0.00  0.00    +0.000 NA
ATOM     17  H   UNL     1       4.275   5.892  19.884  0.00  0.00    +0.000 HD
BRANCH  16  18
ATOM     18  C   UNL     1       3.113   6.038  18.157  0.00  0.00    +0.000 C 
BRANCH  18  19
ATOM     19  C   UNL     1       2.401   7.306  18.575  0.00  0.00    +0.000 A 
ATOM     20  C   UNL     1       1.992   7.451  19.911  0.00  0.00    +0.000 A 
ATOM     21  C   UNL     1       1.364   8.619  20.343  0.00  0.00    +0.000 A 
ATOM     22  C   UNL     1       1.147   9.665  19.450  0.00  0.00    +0.000 A 
ATOM     23  C   UNL     1       1.573   9.548  18.127  0.00  0.00    +0.000 A 
ATOM     24  C   UNL     1       2.206   8.380  17.694  0.00  0.00    +0.000 A 
ENDBRANCH  18  19
ENDBRANCH  16  18
ENDBRANCH  13  16
ENDBRANCH   8  13
TORSDOF 4
ENDMDL
