MODEL 1
REMARK VINA RESULT:      -8.8      0.000      0.000
REMARK  Name = 
REMARK  7 active torsions:
REMARK  status: ('A' for Active; 'I' for Inactive)
REMARK    1  A    between atoms: C_1  and  C_2
REMARK    2  A    between atoms: C_2  and  N_3
REMARK    3  A    between atoms: N_6  and  C_7
REMARK    4  A    between atoms: N_10  and  C_11
REMARK    5  A    between atoms: C_11  and  C_12
REMARK    6  A    between atoms: C_22  and  C_23
REMARK    7  A    between atoms: C_23  and  O_24
REMARK                            x       y       z     vdW  Elec       q    Type
REMARK                         _______ _______ _______ _____ _____    ______ ____
ROOT
ATOM      1  C   UNL     1       3.373   3.553  18.152  0.00  0.00    +0.000 C 
ATOM      2  C   UNL     1       2.310   4.467  17.538  0.00  0.00    +0.000 C 
ATOM      3  C   UNL     1       2.008   5.712  18.368  0.00  0.00    +0.000 C 
ATOM      4  N   UNL     1       1.898   5.515  19.833  0.00  0.00    +0.000 NA
ATOM      5  C   UNL     1       2.927   4.622  20.397  0.00  0.00    +0.000 C 
ATOM      6  C   UNL     1       3.117   3.304  19.649  0.00  0.00    +0.000 C 
ENDROOT
BRANCH   1  10
ATOM      7  N   UNL     1       6.863   4.827  18.060  0.00  0.00    +0.000 N 
ATOM      8  C   UNL     1       5.732   4.448  18.800  0.00  0.00    +0.000 A 
ATOM      9  O   UNL     1       5.674   4.529  20.015  0.00  0.00    +0.000 OA
ATOM     10  N   UNL     1       4.751   4.009  17.872  0.00  0.00    +0.000 N 
ATOM     11  C   UNL     1       5.301   4.148  16.577  0.00  0.00    +0.000 A 
ATOM     12  C   UNL     1       4.763   3.878  15.335  0.00  0.00    +0.000 A 
ATOM     13  C   UNL     1       5.560   4.148  14.212  0.00  0.00    +0.000 A 
ATOM     14  C   UNL     1       6.858   4.676  14.350  0.00  0.00    +0.000 A 
ATOM     15  C   UNL     1       7.392   4.941  15.612  0.00  0.00    +0.000 A 
ATOM     16  C   UNL     1       6.597   4.664  16.704  0.00  0.00    +0.000 A 
BRANCH   7  18
ATOM     17  C   UNL     1       7.971   6.978  18.416  0.00  0.00    +0.000 C 
ATOM     18  C   UNL     1       8.003   5.477  18.651  0.00  0.00    +0.000 C 
ENDBRANCH   7  18
ENDBRANCH   1  10
BRANCH   4  19
ATOM     19  C   UNL     1       2.003   6.863  20.469  0.00  0.00    +0.000 C 
BRANCH  19  20
ATOM     20  C   UNL     1       1.198   8.000  19.787  0.00  0.00    +0.000 C 
ATOM     21  C   UNL     1       2.097   8.673  18.735  0.00  0.00    +0.000 C 
ATOM     22  C   UNL     1       1.416   9.850  18.059  0.00  0.00    +0.000 C 
ATOM     23  C   UNL     1       1.020  10.875  19.106  0.00  0.00    +0.000 C 
ATOM     24  C   UNL     1       0.018  10.265  20.076  0.00  0.00    +0.000 C 
ATOM     25  C   UNL     1       0.604   9.024  20.798  0.00  0.00    +0.000 C 
ATOM     26  C   UNL     1      -0.510   8.416  21.727  0.00  0.00    +0.000 C 
ATOM     27  C   UNL     1       0.014   9.303  22.870  0.00  0.00    +0.000 C 
ATOM     28  C   UNL     1       1.366   9.367  22.127  0.00  0.00    +0.000 C 
ENDBRANCH  19  20
ENDBRANCH   4  19
BRANCH   6  29
ATOM     29  C   UNL     1       1.920   2.364  19.912  0.00  0.00    +0.000 C 
BRANCH  29  30
ATOM     30  O   UNL     1       0.784   3.012  20.465  0.00  0.00    +0.000 OA
ATOM     31  H   UNL     1       1.110   3.801  20.951  0.00  0.00    +0.000 HD
ENDBRANCH  29  30
ENDBRANCH   6  29
TORSDOF 6
ENDMDL
MODEL 2
REMARK VINA RESULT:      -8.2      3.725      8.893
REMARK  Name = 
REMARK  7 active torsions:
REMARK  status: ('A' for Active; 'I' for Inactive)
REMARK    1  A    between atoms: C_1  and  C_2
REMARK    2  A    between atoms: C_2  and  N_3
REMARK    3  A    between atoms: N_6  and  C_7
REMARK    4  A    between atoms: N_10  and  C_11
REMARK    5  A    between atoms: C_11  and  C_12
REMARK    6  A    between atoms: C_22  and  C_23
REMARK    7  A    between atoms: C_23  and  O_24
REMARK                            x       y       z     vdW  Elec       q    Type
REMARK                         _______ _______ _______ _____ _____    ______ ____
ROOT
ATOM      1  C   UNL     1      -0.111  10.991  19.762  0.00  0.00    +0.000 C 
ATOM      2  C   UNL     1       1.102  11.316  18.888  0.00  0.00    +0.000 C 
ATOM      3  C   UNL     1       1.714  10.098  18.198  0.00  0.00    +0.000 C 
ATOM      4  N   UNL     1       1.842   8.872  19.021  0.00  0.00    +0.000 NA
ATOM      5  C   UNL     1       0.665   8.589  19.863  0.00  0.00    +0.000 C 
ATOM      6  C   UNL     1       0.150   9.778  20.672  0.00  0.00    +0.000 C 
ENDROOT
BRANCH   1  10
ATOM      7  N   UNL     1      -2.911  10.350  17.406  0.00  0.00    +0.000 N 
ATOM      8  C   UNL     1      -1.588  10.111  17.806  0.00  0.00    +0.000 A 
ATOM      9  O   UNL     1      -0.827   9.385  17.189  0.00  0.00    +0.000 OA
ATOM     10  N   UNL     1      -1.362  10.869  18.985  0.00  0.00    +0.000 N 
ATOM     11  C   UNL     1      -2.554  11.574  19.270  0.00  0.00    +0.000 A 
ATOM     12  C   UNL     1      -2.860  12.455  20.286  0.00  0.00    +0.000 A 
ATOM     13  C   UNL     1      -4.143  13.022  20.288  0.00  0.00    +0.000 A 
ATOM     14  C   UNL     1      -5.081  12.703  19.287  0.00  0.00    +0.000 A 
ATOM     15  C   UNL     1      -4.761  11.808  18.265  0.00  0.00    +0.000 A 
ATOM     16  C   UNL     1      -3.497  11.256  18.285  0.00  0.00    +0.000 A 
BRANCH   7  18
ATOM     17  C   UNL     1      -3.121  10.821  15.015  0.00  0.00    +0.000 C 
ATOM     18  C   UNL     1      -3.450   9.875  16.158  0.00  0.00    +0.000 C 
ENDBRANCH   7  18
ENDBRANCH   1  10
BRANCH   4  19
ATOM     19  C   UNL     1       2.072   7.733  18.083  0.00  0.00    +0.000 C 
BRANCH  19  20
ATOM     20  C   UNL     1       3.301   6.838  18.392  0.00  0.00    +0.000 C 
ATOM     21  C   UNL     1       4.326   7.005  17.256  0.00  0.00    +0.000 C 
ATOM     22  C   UNL     1       5.541   6.111  17.434  0.00  0.00    +0.000 C 
ATOM     23  C   UNL     1       5.095   4.660  17.495  0.00  0.00    +0.000 C 
ATOM     24  C   UNL     1       4.190   4.445  18.699  0.00  0.00    +0.000 C 
ATOM     25  C   UNL     1       2.929   5.345  18.634  0.00  0.00    +0.000 C 
ATOM     26  C   UNL     1       2.083   5.113  19.940  0.00  0.00    +0.000 C 
ATOM     27  C   UNL     1       1.310   4.011  19.197  0.00  0.00    +0.000 C 
ATOM     28  C   UNL     1       1.723   4.690  17.873  0.00  0.00    +0.000 C 
ENDBRANCH  19  20
ENDBRANCH   4  19
BRANCH   6  29
ATOM     29  C   UNL     1       1.115  10.088  21.837  0.00  0.00    +0.000 C 
BRANCH  29  30
ATOM     30  O   UNL     1       1.911   8.984  22.241  0.00  0.00    +0.000 OA
ATOM     31  H   UNL     1       1.363   8.442  22.850  0.00  0.00    +0.000 HD
ENDBRANCH  29  30
ENDBRANCH   6  29
TORSDOF 6
ENDMDL
MODEL 3
REMARK VINA RESULT:      -7.3      5.795      9.424
REMARK  Name = 
REMARK  7 active torsions:
REMARK  status: ('A' for Active; 'I' for Inactive)
REMARK    1  A    between atoms: C_1  and  C_2
REMARK    2  A    between atoms: C_2  and  N_3
REMARK    3  A    between atoms: N_6  and  C_7
REMARK    4  A    between atoms: N_10  and  C_11
REMARK    5  A    between atoms: C_11  and  C_12
REMARK    6  A    between atoms: C_22  and  C_23
REMARK    7  A    between atoms: C_23  and  O_24
REMARK                            x       y       z     vdW  Elec       q    Type
REMARK                         _______ _______ _______ _____ _____    ______ ____
ROOT
ATOM      1  C   UNL     1      -0.540  10.235  19.533  0.00  0.00    +0.000 C 
ATOM      2  C   UNL     1      -0.159  10.494  20.992  0.00  0.00    +0.000 C 
ATOM      3  C   UNL     1       0.572  11.816  21.216  0.00  0.00    +0.000 C 
ATOM      4  N   UNL     1       1.612  12.170  20.222  0.00  0.00    +0.000 NA
ATOM      5  C   UNL     1       1.224  11.898  18.826  0.00  0.00    +0.000 C 
ATOM      6  C   UNL     1       0.634  10.512  18.578  0.00  0.00    +0.000 C 
ENDROOT
BRANCH   1  10
ATOM      7  N   UNL     1      -3.686  12.171  19.125  0.00  0.00    +0.000 N 
ATOM      8  C   UNL     1      -2.584  11.805  19.913  0.00  0.00    +0.000 A 
ATOM      9  O   UNL     1      -2.423  12.197  21.056  0.00  0.00    +0.000 OA
ATOM     10  N   UNL     1      -1.783  10.928  19.134  0.00  0.00    +0.000 N 
ATOM     11  C   UNL     1      -2.428  10.762  17.886  0.00  0.00    +0.000 A 
ATOM     12  C   UNL     1      -2.080  10.008  16.785  0.00  0.00    +0.000 A 
ATOM     13  C   UNL     1      -2.951  10.028  15.685  0.00  0.00    +0.000 A 
ATOM     14  C   UNL     1      -4.137  10.788  15.709  0.00  0.00    +0.000 A 
ATOM     15  C   UNL     1      -4.476  11.549  16.829  0.00  0.00    +0.000 A 
ATOM     16  C   UNL     1      -3.604  11.522  17.897  0.00  0.00    +0.000 A 
BRANCH   7  18
ATOM     17  C   UNL     1      -5.865  12.016  20.226  0.00  0.00    +0.000 C 
ATOM     18  C   UNL     1      -4.799  12.926  19.639  0.00  0.00    +0.000 C 
ENDBRANCH   7  18
ENDBRANCH   1  10
BRANCH   4  19
ATOM     19  C   UNL     1       1.905  13.625  20.386  0.00  0.00    +0.000 C 
BRANCH  19  20
ATOM     20  C   UNL     1       2.239  14.402  19.085  0.00  0.00    +0.000 C 
ATOM     21  C   UNL     1       3.769  14.514  18.962  0.00  0.00    +0.000 C 
ATOM     22  C   UNL     1       4.196  15.322  17.750  0.00  0.00    +0.000 C 
ATOM     23  C   UNL     1       3.598  16.715  17.836  0.00  0.00    +0.000 C 
ATOM     24  C   UNL     1       2.079  16.631  17.816  0.00  0.00    +0.000 C 
ATOM     25  C   UNL     1       1.538  15.789  19.001  0.00  0.00    +0.000 C 
ATOM     26  C   UNL     1      -0.027  15.695  18.871  0.00  0.00    +0.000 C 
ATOM     27  C   UNL     1      -0.136  16.957  19.744  0.00  0.00    +0.000 C 
ATOM     28  C   UNL     1       1.267  16.627  20.300  0.00  0.00    +0.000 C 
ENDBRANCH  19  20
ENDBRANCH   4  19
BRANCH   6  29
ATOM     29  C   UNL     1       1.743   9.440  18.651  0.00  0.00    +0.000 C 
BRANCH  29  30
ATOM     30  O   UNL     1       2.221   9.013  17.385  0.00  0.00    +0.000 OA
ATOM     31  H   UNL     1       2.373   9.820  16.847  0.00  0.00    +0.000 HD
ENDBRANCH  29  30
ENDBRANCH   6  29
TORSDOF 6
ENDMDL
MODEL 4
REMARK VINA RESULT:      -7.1      0.983      2.112
REMARK  Name = 
REMARK  7 active torsions:
REMARK  status: ('A' for Active; 'I' for Inactive)
REMARK    1  A    between atoms: C_1  and  C_2
REMARK    2  A    between atoms: C_2  and  N_3
REMARK    3  A    between atoms: N_6  and  C_7
REMARK    4  A    between atoms: N_10  and  C_11
REMARK    5  A    between atoms: C_11  and  C_12
REMARK    6  A    between atoms: C_22  and  C_23
REMARK    7  A    between atoms: C_23  and  O_24
REMARK                            x       y       z     vdW  Elec       q    Type
REMARK                         _______ _______ _______ _____ _____    ______ ____
ROOT
ATOM      1  C   UNL     1       3.420   4.251  18.709  0.00  0.00    +0.000 C 
ATOM      2  C   UNL     1       2.333   4.662  17.713  0.00  0.00    +0.000 C 
ATOM      3  C   UNL     1       1.955   6.140  17.782  0.00  0.00    +0.000 C 
ATOM      4  N   UNL     1       1.817   6.720  19.140  0.00  0.00    +0.000 NA
ATOM      5  C   UNL     1       2.870   6.298  20.082  0.00  0.00    +0.000 C 
ATOM      6  C   UNL     1       3.137   4.795  20.120  0.00  0.00    +0.000 C 
ENDROOT
BRANCH   1  10
ATOM      7  N   UNL     1       6.936   5.276  18.084  0.00  0.00    +0.000 N 
ATOM      8  C   UNL     1       5.867   5.101  18.976  0.00  0.00    +0.000 A 
ATOM      9  O   UNL     1       5.930   5.397  20.157  0.00  0.00    +0.000 OA
ATOM     10  N   UNL     1       4.782   4.566  18.232  0.00  0.00    +0.000 N 
ATOM     11  C   UNL     1       5.209   4.443  16.890  0.00  0.00    +0.000 A 
ATOM     12  C   UNL     1       4.543   3.994  15.769  0.00  0.00    +0.000 A 
ATOM     13  C   UNL     1       5.238   4.014  14.550  0.00  0.00    +0.000 A 
ATOM     14  C   UNL     1       6.565   4.479  14.477  0.00  0.00    +0.000 A 
ATOM     15  C   UNL     1       7.230   4.928  15.619  0.00  0.00    +0.000 A 
ATOM     16  C   UNL     1       6.533   4.894  16.808  0.00  0.00    +0.000 A 
BRANCH   7  18
ATOM     17  C   UNL     1       8.056   7.447  18.210  0.00  0.00    +0.000 C 
ATOM     18  C   UNL     1       8.156   5.950  18.446  0.00  0.00    +0.000 C 
ENDBRANCH   7  18
ENDBRANCH   1  10
BRANCH   4  19
ATOM     19  C   UNL     1       1.846   8.206  18.989  0.00  0.00    +0.000 C 
BRANCH  19  20
ATOM     20  C   UNL     1       1.493   9.024  20.260  0.00  0.00    +0.000 C 
ATOM     21  C   UNL     1       0.810   8.086  21.271  0.00  0.00    +0.000 C 
ATOM     22  C   UNL     1       0.362   8.814  22.526  0.00  0.00    +0.000 C 
ATOM     23  C   UNL     1      -0.600   9.926  22.149  0.00  0.00    +0.000 C 
ATOM     24  C   UNL     1       0.103  10.941  21.259  0.00  0.00    +0.000 C 
ATOM     25  C   UNL     1       0.636  10.288  19.957  0.00  0.00    +0.000 C 
ATOM     26  C   UNL     1       1.404  11.383  19.129  0.00  0.00    +0.000 C 
ATOM     27  C   UNL     1       0.085  11.703  18.404  0.00  0.00    +0.000 C 
ATOM     28  C   UNL     1      -0.401  10.287  18.780  0.00  0.00    +0.000 C 
ENDBRANCH  19  20
ENDBRANCH   4  19
BRANCH   6  29
ATOM     29  C   UNL     1       1.977   4.066  20.832  0.00  0.00    +0.000 C 
BRANCH  29  30
ATOM     30  O   UNL     1       2.370   3.335  21.983  0.00  0.00    +0.000 OA
ATOM     31  H   UNL     1       1.778   2.554  22.045  0.00  0.00    +0.000 HD
ENDBRANCH  29  30
ENDBRANCH   6  29
TORSDOF 6
ENDMDL
MODEL 5
REMARK VINA RESULT:      -6.9      7.203     10.748
REMARK  Name = 
REMARK  7 active torsions:
REMARK  status: ('A' for Active; 'I' for Inactive)
REMARK    1  A    between atoms: C_1  and  C_2
REMARK    2  A    between atoms: C_2  and  N_3
REMARK    3  A    between atoms: N_6  and  C_7
REMARK    4  A    between atoms: N_10  and  C_11
REMARK    5  A    between atoms: C_11  and  C_12
REMARK    6  A    between atoms: C_22  and  C_23
REMARK    7  A    between atoms: C_23  and  O_24
REMARK                            x       y       z     vdW  Elec       q    Type
REMARK                         _______ _______ _______ _____ _____    ______ ____
ROOT
ATOM      1  C   UNL     1      -0.664  11.628  20.079  0.00  0.00    +0.000 C 
ATOM      2  C   UNL     1       0.074  12.079  21.341  0.00  0.00    +0.000 C 
ATOM      3  C   UNL     1       0.557  13.526  21.293  0.00  0.00    +0.000 C 
ATOM      4  N   UNL     1       1.162  13.976  20.016  0.00  0.00    +0.000 NA
ATOM      5  C   UNL     1       0.438  13.518  18.817  0.00  0.00    +0.000 C 
ATOM      6  C   UNL     1       0.092  12.031  18.801  0.00  0.00    +0.000 C 
ENDROOT
BRANCH   1  10
ATOM      7  N   UNL     1      -4.145  12.793  20.654  0.00  0.00    +0.000 N 
ATOM      8  C   UNL     1      -2.835  12.617  21.124  0.00  0.00    +0.000 A 
ATOM      9  O   UNL     1      -2.489  12.910  22.255  0.00  0.00    +0.000 OA
ATOM     10  N   UNL     1      -2.082  12.045  20.065  0.00  0.00    +0.000 N 
ATOM     11  C   UNL     1      -2.959  11.866  18.970  0.00  0.00    +0.000 A 
ATOM     12  C   UNL     1      -2.738  11.339  17.714  0.00  0.00    +0.000 A 
ATOM     13  C   UNL     1      -3.833  11.270  16.839  0.00  0.00    +0.000 A 
ATOM     14  C   UNL     1      -5.108  11.720  17.232  0.00  0.00    +0.000 A 
ATOM     15  C   UNL     1      -5.319  12.253  18.505  0.00  0.00    +0.000 A 
ATOM     16  C   UNL     1      -4.229  12.319  19.348  0.00  0.00    +0.000 A 
BRANCH   7  18
ATOM     17  C   UNL     1      -5.488  14.697  21.399  0.00  0.00    +0.000 C 
ATOM     18  C   UNL     1      -5.234  13.202  21.503  0.00  0.00    +0.000 C 
ENDBRANCH   7  18
ENDBRANCH   1  10
BRANCH   4  19
ATOM     19  C   UNL     1       1.191  15.469  20.043  0.00  0.00    +0.000 C 
BRANCH  19  20
ATOM     20  C   UNL     1       0.906  16.178  18.693  0.00  0.00    +0.000 C 
ATOM     21  C   UNL     1       2.242  16.660  18.101  0.00  0.00    +0.000 C 
ATOM     22  C   UNL     1       2.058  17.431  16.806  0.00  0.00    +0.000 C 
ATOM     23  C   UNL     1       1.162  18.631  17.056  0.00  0.00    +0.000 C 
ATOM     24  C   UNL     1      -0.214  18.165  17.509  0.00  0.00    +0.000 C 
ATOM     25  C   UNL     1      -0.135  17.330  18.813  0.00  0.00    +0.000 C 
ATOM     26  C   UNL     1      -1.583  16.833  19.175  0.00  0.00    +0.000 C 
ATOM     27  C   UNL     1      -1.764  18.104  20.024  0.00  0.00    +0.000 C 
ATOM     28  C   UNL     1      -0.225  18.192  20.122  0.00  0.00    +0.000 C 
ENDBRANCH  19  20
ENDBRANCH   4  19
BRANCH   6  29
ATOM     29  C   UNL     1       1.364  11.190  18.556  0.00  0.00    +0.000 C 
BRANCH  29  30
ATOM     30  O   UNL     1       2.397  11.885  17.875  0.00  0.00    +0.000 OA
ATOM     31  H   UNL     1       3.250  11.510  18.185  0.00  0.00    +0.000 HD
ENDBRANCH  29  30
ENDBRANCH   6  29
TORSDOF 6
ENDMDL
MODEL 6
REMARK VINA RESULT:      -6.9      8.517     12.541
REMARK  Name = 
REMARK  7 active torsions:
REMARK  status: ('A' for Active; 'I' for Inactive)
REMARK    1  A    between atoms: C_1  and  C_2
REMARK    2  A    between atoms: C_2  and  N_3
REMARK    3  A    between atoms: N_6  and  C_7
REMARK    4  A    between atoms: N_10  and  C_11
REMARK    5  A    between atoms: C_11  and  C_12
REMARK    6  A    between atoms: C_22  and  C_23
REMARK    7  A    between atoms: C_23  and  O_24
REMARK                            x       y       z     vdW  Elec       q    Type
REMARK                         _______ _______ _______ _____ _____    ______ ____
ROOT
ATOM      1  C   UNL     1      -6.039  14.893  21.509  0.00  0.00    +0.000 C 
ATOM      2  C   UNL     1      -5.083  16.043  21.181  0.00  0.00    +0.000 C 
ATOM      3  C   UNL     1      -3.610  15.639  21.161  0.00  0.00    +0.000 C 
ATOM      4  N   UNL     1      -3.161  14.737  22.249  0.00  0.00    +0.000 NA
ATOM      5  C   UNL     1      -4.105  13.647  22.552  0.00  0.00    +0.000 C 
ATOM      6  C   UNL     1      -5.559  14.081  22.724  0.00  0.00    +0.000 C 
ENDROOT
BRANCH   1  10
ATOM      7  N   UNL     1      -6.650  12.289  18.930  0.00  0.00    +0.000 N 
ATOM      8  C   UNL     1      -6.363  12.631  20.260  0.00  0.00    +0.000 A 
ATOM      9  O   UNL     1      -6.164  11.802  21.131  0.00  0.00    +0.000 OA
ATOM     10  N   UNL     1      -6.341  14.049  20.335  0.00  0.00    +0.000 N 
ATOM     11  C   UNL     1      -6.598  14.545  19.036  0.00  0.00    +0.000 A 
ATOM     12  C   UNL     1      -6.672  15.839  18.563  0.00  0.00    +0.000 A 
ATOM     13  C   UNL     1      -6.922  16.015  17.194  0.00  0.00    +0.000 A 
ATOM     14  C   UNL     1      -7.089  14.910  16.336  0.00  0.00    +0.000 A 
ATOM     15  C   UNL     1      -7.014  13.606  16.827  0.00  0.00    +0.000 A 
ATOM     16  C   UNL     1      -6.775  13.453  18.176  0.00  0.00    +0.000 A 
BRANCH   7  18
ATOM     17  C   UNL     1      -5.192  10.564  17.992  0.00  0.00    +0.000 C 
ATOM     18  C   UNL     1      -6.596  10.937  18.438  0.00  0.00    +0.000 C 
ENDBRANCH   7  18
ENDBRANCH   1  10
BRANCH   4  19
ATOM     19  C   UNL     1      -1.848  14.161  21.830  0.00  0.00    +0.000 C 
BRANCH  19  20
ATOM     20  C   UNL     1      -1.786  12.614  21.732  0.00  0.00    +0.000 C 
ATOM     21  C   UNL     1      -1.012  12.077  22.949  0.00  0.00    +0.000 C 
ATOM     22  C   UNL     1      -0.837  10.569  22.906  0.00  0.00    +0.000 C 
ATOM     23  C   UNL     1      -0.102  10.181  21.635  0.00  0.00    +0.000 C 
ATOM     24  C   UNL     1      -0.923  10.581  20.418  0.00  0.00    +0.000 C 
ATOM     25  C   UNL     1      -1.192  12.108  20.385  0.00  0.00    +0.000 C 
ATOM     26  C   UNL     1      -2.098  12.427  19.139  0.00  0.00    +0.000 C 
ATOM     27  C   UNL     1      -0.818  12.656  18.317  0.00  0.00    +0.000 C 
ATOM     28  C   UNL     1      -0.079  12.930  19.645  0.00  0.00    +0.000 C 
ENDBRANCH  19  20
ENDBRANCH   4  19
BRANCH   6  29
ATOM     29  C   UNL     1      -5.736  14.829  24.064  0.00  0.00    +0.000 C 
BRANCH  29  30
ATOM     30  O   UNL     1      -4.516  15.166  24.706  0.00  0.00    +0.000 OA
ATOM     31  H   UNL     1      -3.886  14.434  24.529  0.00  0.00    +0.000 HD
ENDBRANCH  29  30
ENDBRANCH   6  29
TORSDOF 6
ENDMDL
MODEL 7
REMARK VINA RESULT:      -6.8      3.676      9.047
REMARK  Name = 
REMARK  7 active torsions:
REMARK  status: ('A' for Active; 'I' for Inactive)
REMARK    1  A    between atoms: C_1  and  C_2
REMARK    2  A    between atoms: C_2  and  N_3
REMARK    3  A    between atoms: N_6  and  C_7
REMARK    4  A    between atoms: N_10  and  C_11
REMARK    5  A    between atoms: C_11  and  C_12
REMARK    6  A    between atoms: C_22  and  C_23
REMARK    7  A    between atoms: C_23  and  O_24
REMARK                            x       y       z     vdW  Elec       q    Type
REMARK                         _______ _______ _______ _____ _____    ______ ____
ROOT
ATOM      1  C   UNL     1      -0.099  10.805  21.533  0.00  0.00    +0.000 C 
ATOM      2  C   UNL     1       1.295  10.702  20.911  0.00  0.00    +0.000 C 
ATOM      3  C   UNL     1       1.570   9.367  20.222  0.00  0.00    +0.000 C 
ATOM      4  N   UNL     1       1.107   8.152  20.935  0.00  0.00    +0.000 NA
ATOM      5  C   UNL     1      -0.233   8.283  21.535  0.00  0.00    +0.000 C 
ATOM      6  C   UNL     1      -0.452   9.553  22.354  0.00  0.00    +0.000 C 
ENDROOT
BRANCH   1  10
ATOM      7  N   UNL     1      -2.332  11.444  18.633  0.00  0.00    +0.000 N 
ATOM      8  C   UNL     1      -1.174  10.854  19.161  0.00  0.00    +0.000 A 
ATOM      9  O   UNL     1      -0.380  10.224  18.484  0.00  0.00    +0.000 OA
ATOM     10  N   UNL     1      -1.141  11.160  20.547  0.00  0.00    +0.000 N 
ATOM     11  C   UNL     1      -2.278  11.952  20.833  0.00  0.00    +0.000 A 
ATOM     12  C   UNL     1      -2.707  12.521  22.014  0.00  0.00    +0.000 A 
ATOM     13  C   UNL     1      -3.882  13.287  21.975  0.00  0.00    +0.000 A 
ATOM     14  C   UNL     1      -4.593  13.468  20.772  0.00  0.00    +0.000 A 
ATOM     15  C   UNL     1      -4.150  12.885  19.584  0.00  0.00    +0.000 A 
ATOM     16  C   UNL     1      -2.997  12.130  19.644  0.00  0.00    +0.000 A 
BRANCH   7  18
ATOM     17  C   UNL     1      -3.508  10.322  16.804  0.00  0.00    +0.000 C 
ATOM     18  C   UNL     1      -2.618  11.482  17.222  0.00  0.00    +0.000 C 
ENDBRANCH   7  18
ENDBRANCH   1  10
BRANCH   4  19
ATOM     19  C   UNL     1       1.105   7.033  19.946  0.00  0.00    +0.000 C 
BRANCH  19  20
ATOM     20  C   UNL     1       2.482   6.377  19.660  0.00  0.00    +0.000 C 
ATOM     21  C   UNL     1       2.938   6.792  18.250  0.00  0.00    +0.000 C 
ATOM     22  C   UNL     1       4.250   6.140  17.850  0.00  0.00    +0.000 C 
ATOM     23  C   UNL     1       4.101   4.630  17.903  0.00  0.00    +0.000 C 
ATOM     24  C   UNL     1       3.787   4.189  19.325  0.00  0.00    +0.000 C 
ATOM     25  C   UNL     1       2.477   4.832  19.847  0.00  0.00    +0.000 C 
ATOM     26  C   UNL     1       2.260   4.380  21.339  0.00  0.00    +0.000 C 
ATOM     27  C   UNL     1       1.443   3.186  20.817  0.00  0.00    +0.000 C 
ATOM     28  C   UNL     1       1.190   3.993  19.525  0.00  0.00    +0.000 C 
ENDBRANCH  19  20
ENDBRANCH   4  19
BRANCH   6  29
ATOM     29  C   UNL     1       0.318   9.465  23.690  0.00  0.00    +0.000 C 
BRANCH  29  30
ATOM     30  O   UNL     1       1.729   9.412  23.544  0.00  0.00    +0.000 OA
ATOM     31  H   UNL     1       1.967   8.472  23.385  0.00  0.00    +0.000 HD
ENDBRANCH  29  30
ENDBRANCH   6  29
TORSDOF 6
ENDMDL
MODEL 8
REMARK VINA RESULT:      -6.8      6.310     10.075
REMARK  Name = 
REMARK  7 active torsions:
REMARK  status: ('A' for Active; 'I' for Inactive)
REMARK    1  A    between atoms: C_1  and  C_2
REMARK    2  A    between atoms: C_2  and  N_3
REMARK    3  A    between atoms: N_6  and  C_7
REMARK    4  A    between atoms: N_10  and  C_11
REMARK    5  A    between atoms: C_11  and  C_12
REMARK    6  A    between atoms: C_22  and  C_23
REMARK    7  A    between atoms: C_23  and  O_24
REMARK                            x       y       z     vdW  Elec       q    Type
REMARK                         _______ _______ _______ _____ _____    ______ ____
ROOT
ATOM      1  C   UNL     1      -1.011  10.681  19.763  0.00  0.00    +0.000 C 
ATOM      2  C   UNL     1      -0.178  10.705  21.046  0.00  0.00    +0.000 C 
ATOM      3  C   UNL     1       0.773  11.896  21.147  0.00  0.00    +0.000 C 
ATOM      4  N   UNL     1       1.509  12.255  19.912  0.00  0.00    +0.000 NA
ATOM      5  C   UNL     1       0.687  12.212  18.689  0.00  0.00    +0.000 C 
ATOM      6  C   UNL     1      -0.147  10.945  18.517  0.00  0.00    +0.000 C 
ENDROOT
BRANCH   1  10
ATOM      7  N   UNL     1      -3.800  13.015  20.524  0.00  0.00    +0.000 N 
ATOM      8  C   UNL     1      -2.570  12.443  20.880  0.00  0.00    +0.000 A 
ATOM      9  O   UNL     1      -1.994  12.699  21.924  0.00  0.00    +0.000 OA
ATOM     10  N   UNL     1      -2.199  11.555  19.836  0.00  0.00    +0.000 N 
ATOM     11  C   UNL     1      -3.228  11.591  18.866  0.00  0.00    +0.000 A 
ATOM     12  C   UNL     1      -3.368  10.911  17.674  0.00  0.00    +0.000 A 
ATOM     13  C   UNL     1      -4.534  11.143  16.928  0.00  0.00    +0.000 A 
ATOM     14  C   UNL     1      -5.523  12.036  17.383  0.00  0.00    +0.000 A 
ATOM     15  C   UNL     1      -5.369  12.720  18.590  0.00  0.00    +0.000 A 
ATOM     16  C   UNL     1      -4.214  12.483  19.305  0.00  0.00    +0.000 A 
BRANCH   7  18
ATOM     17  C   UNL     1      -4.339  15.322  21.131  0.00  0.00    +0.000 C 
ATOM     18  C   UNL     1      -4.566  13.846  21.415  0.00  0.00    +0.000 C 
ENDBRANCH   7  18
ENDBRANCH   1  10
BRANCH   4  19
ATOM     19  C   UNL     1       2.048  13.635  20.105  0.00  0.00    +0.000 C 
BRANCH  19  20
ATOM     20  C   UNL     1       1.981  14.569  18.868  0.00  0.00    +0.000 C 
ATOM     21  C   UNL     1       3.404  14.740  18.307  0.00  0.00    +0.000 C 
ATOM     22  C   UNL     1       3.452  15.698  17.130  0.00  0.00    +0.000 C 
ATOM     23  C   UNL     1       2.918  17.053  17.559  0.00  0.00    +0.000 C 
ATOM     24  C   UNL     1       1.463  16.927  17.986  0.00  0.00    +0.000 C 
ATOM     25  C   UNL     1       1.297  15.935  19.166  0.00  0.00    +0.000 C 
ATOM     26  C   UNL     1      -0.235  15.811  19.501  0.00  0.00    +0.000 C 
ATOM     27  C   UNL     1      -0.067  16.957  20.513  0.00  0.00    +0.000 C 
ATOM     28  C   UNL     1       1.435  16.606  20.578  0.00  0.00    +0.000 C 
ENDBRANCH  19  20
ENDBRANCH   4  19
BRANCH   6  29
ATOM     29  C   UNL     1       0.763   9.755  18.145  0.00  0.00    +0.000 C 
BRANCH  29  30
ATOM     30  O   UNL     1       1.941  10.122  17.442  0.00  0.00    +0.000 OA
ATOM     31  H   UNL     1       2.675   9.584  17.809  0.00  0.00    +0.000 HD
ENDBRANCH  29  30
ENDBRANCH   6  29
TORSDOF 6
ENDMDL
MODEL 9
REMARK VINA RESULT:      -6.8      6.731      9.870
REMARK  Name = 
REMARK  7 active torsions:
REMARK  status: ('A' for Active; 'I' for Inactive)
REMARK    1  A    between atoms: C_1  and  C_2
REMARK    2  A    between atoms: C_2  and  N_3
REMARK    3  A    between atoms: N_6  and  C_7
REMARK    4  A    between atoms: N_10  and  C_11
REMARK    5  A    between atoms: C_11  and  C_12
REMARK    6  A    between atoms: C_22  and  C_23
REMARK    7  A    between atoms: C_23  and  O_24
REMARK                            x       y       z     vdW  Elec       q    Type
REMARK                         _______ _______ _______ _____ _____    ______ ____
ROOT
ATOM      1  C   UNL     1      -0.017  12.488  19.050  0.00  0.00    +0.000 C 
ATOM      2  C   UNL     1      -1.531  12.268  19.086  0.00  0.00    +0.000 C 
ATOM      3  C   UNL     1      -2.122  12.255  20.494  0.00  0.00    +0.000 C 
ATOM      4  N   UNL     1      -1.354  11.513  21.522  0.00  0.00    +0.000 NA
ATOM      5  C   UNL     1       0.103  11.733  21.457  0.00  0.00    +0.000 C 
ATOM      6  C   UNL     1       0.714  11.592  20.065  0.00  0.00    +0.000 C 
ENDROOT
BRANCH   1  10
ATOM      7  N   UNL     1       0.327  16.160  19.496  0.00  0.00    +0.000 N 
ATOM      8  C   UNL     1      -0.442  14.994  19.617  0.00  0.00    +0.000 A 
ATOM      9  O   UNL     1      -1.590  14.994  20.029  0.00  0.00    +0.000 OA
ATOM     10  N   UNL     1       0.358  13.912  19.163  0.00  0.00    +0.000 N 
ATOM     11  C   UNL     1       1.601  14.449  18.754  0.00  0.00    +0.000 A 
ATOM     12  C   UNL     1       2.718  13.835  18.226  0.00  0.00    +0.000 A 
ATOM     13  C   UNL     1       3.808  14.652  17.890  0.00  0.00    +0.000 A 
ATOM     14  C   UNL     1       3.760  16.047  18.084  0.00  0.00    +0.000 A 
ATOM     15  C   UNL     1       2.625  16.655  18.622  0.00  0.00    +0.000 A 
ATOM     16  C   UNL     1       1.567  15.835  18.953  0.00  0.00    +0.000 A 
BRANCH   7  18
ATOM     17  C   UNL     1      -0.853  18.030  18.450  0.00  0.00    +0.000 C 
ATOM     18  C   UNL     1      -0.209  17.479  19.711  0.00  0.00    +0.000 C 
ENDBRANCH   7  18
ENDBRANCH   1  10
BRANCH   4  19
ATOM     19  C   UNL     1      -1.866  11.949  22.856  0.00  0.00    +0.000 C 
BRANCH  19  20
ATOM     20  C   UNL     1      -2.296  13.436  22.966  0.00  0.00    +0.000 C 
ATOM     21  C   UNL     1      -1.185  14.214  23.693  0.00  0.00    +0.000 C 
ATOM     22  C   UNL     1      -1.546  15.673  23.911  0.00  0.00    +0.000 C 
ATOM     23  C   UNL     1      -2.828  15.760  24.719  0.00  0.00    +0.000 C 
ATOM     24  C   UNL     1      -3.972  15.117  23.949  0.00  0.00    +0.000 C 
ATOM     25  C   UNL     1      -3.686  13.625  23.640  0.00  0.00    +0.000 C 
ATOM     26  C   UNL     1      -4.880  13.055  22.788  0.00  0.00    +0.000 C 
ATOM     27  C   UNL     1      -5.562  12.631  24.101  0.00  0.00    +0.000 C 
ATOM     28  C   UNL     1      -4.168  12.643  24.765  0.00  0.00    +0.000 C 
ENDBRANCH  19  20
ENDBRANCH   4  19
BRANCH   6  29
ATOM     29  C   UNL     1       0.753  10.106  19.647  0.00  0.00    +0.000 C 
BRANCH  29  30
ATOM     30  O   UNL     1       0.598   9.196  20.726  0.00  0.00    +0.000 OA
ATOM     31  H   UNL     1       0.426   8.312  20.334  0.00  0.00    +0.000 HD
ENDBRANCH  29  30
ENDBRANCH   6  29
TORSDOF 6
ENDMDL
