MODEL 1
REMARK VINA RESULT:      -6.7      0.000      0.000
REMARK  Name = 
REMARK  13 active torsions:
REMARK  status: ('A' for Active; 'I' for Inactive)
REMARK    1  A    between atoms: C_1  and  C_2
REMARK    2  A    between atoms: C_2  and  O_3
REMARK    3  A    between atoms: O_3  and  C_4
REMARK    4  A    between atoms: C_4  and  C_6
REMARK    5  A    between atoms: C_9  and  N_10
REMARK    6  A    between atoms: C_12  and  C_13
REMARK    7  A    between atoms: C_13  and  O_15
REMARK    8  A    between atoms: O_15  and  C_16
REMARK    9  A    between atoms: C_17  and  C_18
REMARK   10  A    between atoms: C_22  and  O_23
REMARK   11  A    between atoms: C_25  and  C_26
REMARK   12  A    between atoms: C_26  and  O_28
REMARK   13  A    between atoms: O_28  and  C_29
REMARK                            x       y       z     vdW  Elec       q    Type
REMARK                         _______ _______ _______ _____ _____    ______ ____
ROOT
ATOM      1  N   UNL     1      -3.091  11.886  19.314  0.00  0.00    +0.000 N 
ATOM      2  C   UNL     1      -1.922  11.908  20.070  0.00  0.00    +0.000 C 
ATOM      3  C   UNL     1      -1.860  12.259  21.371  0.00  0.00    +0.000 C 
ATOM      4  C   UNL     1      -3.143  12.592  22.141  0.00  0.00    +0.000 C 
ATOM      5  C   UNL     1      -4.323  12.798  21.187  0.00  0.00    +0.000 C 
ATOM      6  C   UNL     1      -4.237  12.409  19.901  0.00  0.00    +0.000 C 
ENDROOT
BRANCH   1  10
ATOM      7  C   UNL     1      -3.124  10.343  15.338  0.00  0.00    +0.000 A 
ATOM      8  C   UNL     1      -4.144  11.189  15.778  0.00  0.00    +0.000 A 
ATOM      9  C   UNL     1      -4.138  11.682  17.085  0.00  0.00    +0.000 A 
ATOM     10  C   UNL     1      -3.116  11.338  17.991  0.00  0.00    +0.000 A 
ATOM     11  C   UNL     1      -2.110  10.467  17.535  0.00  0.00    +0.000 A 
ATOM     12  C   UNL     1      -2.108   9.981  16.226  0.00  0.00    +0.000 A 
BRANCH   7  13
ATOM     13  C   UNL     1      -3.203   9.810  13.956  0.00  0.00    +0.000 C 
ATOM     14  O   UNL     1      -2.224   9.578  13.266  0.00  0.00    +0.000 OA
BRANCH  13  15
ATOM     15  O   UNL     1      -4.498   9.730  13.567  0.00  0.00    +0.000 OA
BRANCH  15  17
ATOM     16  C   UNL     1      -6.117   9.275  11.879  0.00  0.00    +0.000 C 
ATOM     17  C   UNL     1      -4.710   9.771  12.152  0.00  0.00    +0.000 C 
ENDBRANCH  15  17
ENDBRANCH  13  15
ENDBRANCH   7  13
ENDBRANCH   1  10
BRANCH   4  18
ATOM     18  C   UNL     1      -2.991  13.739  23.130  0.00  0.00    +0.000 A 
ATOM     19  C   UNL     1      -3.274  13.516  24.492  0.00  0.00    +0.000 A 
ATOM     20  C   UNL     1      -3.220  14.561  25.415  0.00  0.00    +0.000 A 
ATOM     21  C   UNL     1      -2.874  15.842  24.992  0.00  0.00    +0.000 A 
ATOM     22  C   UNL     1      -2.580  16.063  23.648  0.00  0.00    +0.000 A 
ATOM     23  C   UNL     1      -2.630  15.027  22.718  0.00  0.00    +0.000 A 
BRANCH  22  24
ATOM     24  O   UNL     1      -2.241  17.301  23.193  0.00  0.00    +0.000 OA
ATOM     25  H   UNL     1      -3.022  17.873  23.265  0.00  0.00    +0.000 HD
ENDBRANCH  22  24
ENDBRANCH   4  18
BRANCH   3  26
ATOM     26  C   UNL     1      -0.541  12.249  22.049  0.00  0.00    +0.000 C 
ATOM     27  O   UNL     1       0.438  12.866  21.667  0.00  0.00    +0.000 OA
BRANCH  26  28
ATOM     28  O   UNL     1      -0.596  11.451  23.150  0.00  0.00    +0.000 OA
ATOM     29  C   UNL     1      -0.462  10.048  22.920  0.00  0.00    +0.000 C 
ENDBRANCH  26  28
ENDBRANCH   3  26
BRANCH   5  30
ATOM     30  C   UNL     1      -5.606  13.376  21.657  0.00  0.00    +0.000 C 
ATOM     31  O   UNL     1      -5.980  14.514  21.429  0.00  0.00    +0.000 OA
BRANCH  30  32
ATOM     32  O   UNL     1      -6.299  12.438  22.362  0.00  0.00    +0.000 OA
ATOM     33  C   UNL     1      -7.537  12.863  22.930  0.00  0.00    +0.000 C 
ENDBRANCH  30  32
ENDBRANCH   5  30
TORSDOF 10
ENDMDL
MODEL 2
REMARK VINA RESULT:      -6.5      1.015      1.539
REMARK  Name = 
REMARK  13 active torsions:
REMARK  status: ('A' for Active; 'I' for Inactive)
REMARK    1  A    between atoms: C_1  and  C_2
REMARK    2  A    between atoms: C_2  and  O_3
REMARK    3  A    between atoms: O_3  and  C_4
REMARK    4  A    between atoms: C_4  and  C_6
REMARK    5  A    between atoms: C_9  and  N_10
REMARK    6  A    between atoms: C_12  and  C_13
REMARK    7  A    between atoms: C_13  and  O_15
REMARK    8  A    between atoms: O_15  and  C_16
REMARK    9  A    between atoms: C_17  and  C_18
REMARK   10  A    between atoms: C_22  and  O_23
REMARK   11  A    between atoms: C_25  and  C_26
REMARK   12  A    between atoms: C_26  and  O_28
REMARK   13  A    between atoms: O_28  and  C_29
REMARK                            x       y       z     vdW  Elec       q    Type
REMARK                         _______ _______ _______ _____ _____    ______ ____
ROOT
ATOM      1  N   UNL     1      -3.256  11.902  19.078  0.00  0.00    +0.000 N 
ATOM      2  C   UNL     1      -2.081  12.056  19.809  0.00  0.00    +0.000 C 
ATOM      3  C   UNL     1      -2.030  12.426  21.104  0.00  0.00    +0.000 C 
ATOM      4  C   UNL     1      -3.325  12.633  21.898  0.00  0.00    +0.000 C 
ATOM      5  C   UNL     1      -4.539  12.703  20.968  0.00  0.00    +0.000 C 
ATOM      6  C   UNL     1      -4.438  12.310  19.684  0.00  0.00    +0.000 C 
ENDROOT
BRANCH   1  10
ATOM      7  C   UNL     1      -3.199  10.315  15.120  0.00  0.00    +0.000 A 
ATOM      8  C   UNL     1      -4.239  11.150  15.534  0.00  0.00    +0.000 A 
ATOM      9  C   UNL     1      -4.263  11.657  16.835  0.00  0.00    +0.000 A 
ATOM     10  C   UNL     1      -3.250  11.340  17.761  0.00  0.00    +0.000 A 
ATOM     11  C   UNL     1      -2.223  10.480  17.332  0.00  0.00    +0.000 A 
ATOM     12  C   UNL     1      -2.192   9.979  16.028  0.00  0.00    +0.000 A 
BRANCH   7  13
ATOM     13  C   UNL     1      -3.247   9.765  13.743  0.00  0.00    +0.000 C 
ATOM     14  O   UNL     1      -2.251   9.502  13.088  0.00  0.00    +0.000 OA
BRANCH  13  15
ATOM     15  O   UNL     1      -4.530   9.709  13.314  0.00  0.00    +0.000 OA
BRANCH  15  17
ATOM     16  C   UNL     1      -6.172   9.582  11.593  0.00  0.00    +0.000 C 
ATOM     17  C   UNL     1      -4.698   9.770  11.894  0.00  0.00    +0.000 C 
ENDBRANCH  15  17
ENDBRANCH  13  15
ENDBRANCH   7  13
ENDBRANCH   1  10
BRANCH   4  18
ATOM     18  C   UNL     1      -3.273  13.801  22.873  0.00  0.00    +0.000 A 
ATOM     19  C   UNL     1      -3.211  15.115  22.371  0.00  0.00    +0.000 A 
ATOM     20  C   UNL     1      -3.086  16.206  23.231  0.00  0.00    +0.000 A 
ATOM     21  C   UNL     1      -3.029  16.000  24.607  0.00  0.00    +0.000 A 
ATOM     22  C   UNL     1      -3.103  14.702  25.109  0.00  0.00    +0.000 A 
ATOM     23  C   UNL     1      -3.229  13.606  24.258  0.00  0.00    +0.000 A 
BRANCH  22  24
ATOM     24  O   UNL     1      -3.046  14.456  26.447  0.00  0.00    +0.000 OA
ATOM     25  H   UNL     1      -3.948  14.283  26.761  0.00  0.00    +0.000 HD
ENDBRANCH  22  24
ENDBRANCH   4  18
BRANCH   3  26
ATOM     26  C   UNL     1      -0.704  12.562  21.754  0.00  0.00    +0.000 C 
ATOM     27  O   UNL     1      -0.325  11.895  22.702  0.00  0.00    +0.000 OA
BRANCH  26  28
ATOM     28  O   UNL     1       0.015  13.538  21.135  0.00  0.00    +0.000 OA
ATOM     29  C   UNL     1       1.257  13.136  20.557  0.00  0.00    +0.000 C 
ENDBRANCH  26  28
ENDBRANCH   3  26
BRANCH   5  30
ATOM     30  C   UNL     1      -5.866  13.149  21.460  0.00  0.00    +0.000 C 
ATOM     31  O   UNL     1      -6.440  14.158  21.089  0.00  0.00    +0.000 OA
BRANCH  30  32
ATOM     32  O   UNL     1      -6.341  12.253  22.369  0.00  0.00    +0.000 OA
ATOM     33  C   UNL     1      -6.893  12.800  23.566  0.00  0.00    +0.000 C 
ENDBRANCH  30  32
ENDBRANCH   5  30
TORSDOF 10
ENDMDL
MODEL 3
REMARK VINA RESULT:      -6.4      0.598      1.308
REMARK  Name = 
REMARK  13 active torsions:
REMARK  status: ('A' for Active; 'I' for Inactive)
REMARK    1  A    between atoms: C_1  and  C_2
REMARK    2  A    between atoms: C_2  and  O_3
REMARK    3  A    between atoms: O_3  and  C_4
REMARK    4  A    between atoms: C_4  and  C_6
REMARK    5  A    between atoms: C_9  and  N_10
REMARK    6  A    between atoms: C_12  and  C_13
REMARK    7  A    between atoms: C_13  and  O_15
REMARK    8  A    between atoms: O_15  and  C_16
REMARK    9  A    between atoms: C_17  and  C_18
REMARK   10  A    between atoms: C_22  and  O_23
REMARK   11  A    between atoms: C_25  and  C_26
REMARK   12  A    between atoms: C_26  and  O_28
REMARK   13  A    between atoms: O_28  and  C_29
REMARK                            x       y       z     vdW  Elec       q    Type
REMARK                         _______ _______ _______ _____ _____    ______ ____
ROOT
ATOM      1  N   UNL     1      -3.228  11.988  19.204  0.00  0.00    +0.000 N 
ATOM      2  C   UNL     1      -2.045  12.071  19.932  0.00  0.00    +0.000 C 
ATOM      3  C   UNL     1      -1.973  12.393  21.240  0.00  0.00    +0.000 C 
ATOM      4  C   UNL     1      -3.256  12.620  22.049  0.00  0.00    +0.000 C 
ATOM      5  C   UNL     1      -4.470  12.770  21.129  0.00  0.00    +0.000 C 
ATOM      6  C   UNL     1      -4.391  12.419  19.831  0.00  0.00    +0.000 C 
ENDROOT
BRANCH   1  10
ATOM      7  C   UNL     1      -3.329  10.366  15.261  0.00  0.00    +0.000 A 
ATOM      8  C   UNL     1      -2.242  10.117  16.102  0.00  0.00    +0.000 A 
ATOM      9  C   UNL     1      -2.205  10.661  17.387  0.00  0.00    +0.000 A 
ATOM     10  C   UNL     1      -3.251  11.473  17.868  0.00  0.00    +0.000 A 
ATOM     11  C   UNL     1      -4.326  11.729  16.998  0.00  0.00    +0.000 A 
ATOM     12  C   UNL     1      -4.370  11.178  15.715  0.00  0.00    +0.000 A 
BRANCH   7  13
ATOM     13  C   UNL     1      -3.296   9.803  13.889  0.00  0.00    +0.000 C 
ATOM     14  O   UNL     1      -2.265   9.579  13.277  0.00  0.00    +0.000 OA
BRANCH  13  15
ATOM     15  O   UNL     1      -4.558   9.685  13.410  0.00  0.00    +0.000 OA
BRANCH  15  17
ATOM     16  C   UNL     1      -6.128   9.526  11.625  0.00  0.00    +0.000 C 
ATOM     17  C   UNL     1      -4.677   9.780  11.987  0.00  0.00    +0.000 C 
ENDBRANCH  15  17
ENDBRANCH  13  15
ENDBRANCH   7  13
ENDBRANCH   1  10
BRANCH   4  18
ATOM     18  C   UNL     1      -3.155  13.750  23.063  0.00  0.00    +0.000 A 
ATOM     19  C   UNL     1      -3.379  13.474  24.426  0.00  0.00    +0.000 A 
ATOM     20  C   UNL     1      -3.370  14.496  25.376  0.00  0.00    +0.000 A 
ATOM     21  C   UNL     1      -3.130  15.809  24.978  0.00  0.00    +0.000 A 
ATOM     22  C   UNL     1      -2.895  16.084  23.632  0.00  0.00    +0.000 A 
ATOM     23  C   UNL     1      -2.901  15.071  22.676  0.00  0.00    +0.000 A 
BRANCH  22  24
ATOM     24  O   UNL     1      -2.661  17.355  23.200  0.00  0.00    +0.000 OA
ATOM     25  H   UNL     1      -3.390  17.614  22.615  0.00  0.00    +0.000 HD
ENDBRANCH  22  24
ENDBRANCH   4  18
BRANCH   3  26
ATOM     26  C   UNL     1      -0.640  12.455  21.886  0.00  0.00    +0.000 C 
ATOM     27  O   UNL     1      -0.260  11.701  22.766  0.00  0.00    +0.000 OA
BRANCH  26  28
ATOM     28  O   UNL     1       0.085  13.475  21.349  0.00  0.00    +0.000 OA
ATOM     29  C   UNL     1       1.389  13.140  20.876  0.00  0.00    +0.000 C 
ENDBRANCH  26  28
ENDBRANCH   3  26
BRANCH   5  30
ATOM     30  C   UNL     1      -5.777  13.249  21.644  0.00  0.00    +0.000 C 
ATOM     31  O   UNL     1      -6.221  14.371  21.475  0.00  0.00    +0.000 OA
BRANCH  30  32
ATOM     32  O   UNL     1      -6.401  12.240  22.315  0.00  0.00    +0.000 OA
ATOM     33  C   UNL     1      -7.705  11.888  21.855  0.00  0.00    +0.000 C 
ENDBRANCH  30  32
ENDBRANCH   5  30
TORSDOF 10
ENDMDL
MODEL 4
REMARK VINA RESULT:      -6.4      4.078      6.463
REMARK  Name = 
REMARK  13 active torsions:
REMARK  status: ('A' for Active; 'I' for Inactive)
REMARK    1  A    between atoms: C_1  and  C_2
REMARK    2  A    between atoms: C_2  and  O_3
REMARK    3  A    between atoms: O_3  and  C_4
REMARK    4  A    between atoms: C_4  and  C_6
REMARK    5  A    between atoms: C_9  and  N_10
REMARK    6  A    between atoms: C_12  and  C_13
REMARK    7  A    between atoms: C_13  and  O_15
REMARK    8  A    between atoms: O_15  and  C_16
REMARK    9  A    between atoms: C_17  and  C_18
REMARK   10  A    between atoms: C_22  and  O_23
REMARK   11  A    between atoms: C_25  and  C_26
REMARK   12  A    between atoms: C_26  and  O_28
REMARK   13  A    between atoms: O_28  and  C_29
REMARK                            x       y       z     vdW  Elec       q    Type
REMARK                         _______ _______ _______ _____ _____    ______ ____
ROOT
ATOM      1  N   UNL     1      -0.108  10.397  19.785  0.00  0.00    +0.000 N 
ATOM      2  C   UNL     1      -1.289  10.533  19.062  0.00  0.00    +0.000 C 
ATOM      3  C   UNL     1      -2.129  11.583  19.160  0.00  0.00    +0.000 C 
ATOM      4  C   UNL     1      -1.772  12.773  20.058  0.00  0.00    +0.000 C 
ATOM      5  C   UNL     1      -0.615  12.429  20.999  0.00  0.00    +0.000 C 
ATOM      6  C   UNL     1       0.136  11.332  20.785  0.00  0.00    +0.000 C 
ENDROOT
BRANCH   1  10
ATOM      7  C   UNL     1       2.588   7.201  18.945  0.00  0.00    +0.000 A 
ATOM      8  C   UNL     1       2.041   7.349  20.221  0.00  0.00    +0.000 A 
ATOM      9  C   UNL     1       1.170   8.405  20.498  0.00  0.00    +0.000 A 
ATOM     10  C   UNL     1       0.824   9.345  19.508  0.00  0.00    +0.000 A 
ATOM     11  C   UNL     1       1.403   9.191  18.235  0.00  0.00    +0.000 A 
ATOM     12  C   UNL     1       2.267   8.130  17.953  0.00  0.00    +0.000 A 
BRANCH   7  13
ATOM     13  C   UNL     1       3.544   6.090  18.717  0.00  0.00    +0.000 C 
ATOM     14  O   UNL     1       4.260   5.628  19.591  0.00  0.00    +0.000 OA
BRANCH  13  15
ATOM     15  O   UNL     1       3.565   5.762  17.403  0.00  0.00    +0.000 OA
BRANCH  15  17
ATOM     16  C   UNL     1       5.248   6.250  15.790  0.00  0.00    +0.000 C 
ATOM     17  C   UNL     1       4.831   5.315  16.909  0.00  0.00    +0.000 C 
ENDBRANCH  15  17
ENDBRANCH  13  15
ENDBRANCH   7  13
ENDBRANCH   1  10
BRANCH   4  18
ATOM     18  C   UNL     1      -2.962  13.369  20.796  0.00  0.00    +0.000 A 
ATOM     19  C   UNL     1      -3.327  14.707  20.549  0.00  0.00    +0.000 A 
ATOM     20  C   UNL     1      -4.363  15.311  21.262  0.00  0.00    +0.000 A 
ATOM     21  C   UNL     1      -5.054  14.584  22.228  0.00  0.00    +0.000 A 
ATOM     22  C   UNL     1      -4.704  13.257  22.467  0.00  0.00    +0.000 A 
ATOM     23  C   UNL     1      -3.673  12.644  21.760  0.00  0.00    +0.000 A 
BRANCH  22  24
ATOM     24  O   UNL     1      -5.352  12.513  23.406  0.00  0.00    +0.000 OA
ATOM     25  H   UNL     1      -5.321  11.583  23.129  0.00  0.00    +0.000 HD
ENDBRANCH  22  24
ENDBRANCH   4  18
BRANCH   3  26
ATOM     26  C   UNL     1      -3.362  11.588  18.335  0.00  0.00    +0.000 C 
ATOM     27  O   UNL     1      -4.494  11.530  18.783  0.00  0.00    +0.000 OA
BRANCH  26  28
ATOM     28  O   UNL     1      -3.033  11.666  17.017  0.00  0.00    +0.000 OA
ATOM     29  C   UNL     1      -3.854  10.920  16.118  0.00  0.00    +0.000 C 
ENDBRANCH  26  28
ENDBRANCH   3  26
BRANCH   5  30
ATOM     30  C   UNL     1      -0.251  13.314  22.133  0.00  0.00    +0.000 C 
ATOM     31  O   UNL     1      -0.410  13.036  23.309  0.00  0.00    +0.000 OA
BRANCH  30  32
ATOM     32  O   UNL     1       0.300  14.465  21.656  0.00  0.00    +0.000 OA
ATOM     33  C   UNL     1       1.695  14.423  21.361  0.00  0.00    +0.000 C 
ENDBRANCH  30  32
ENDBRANCH   5  30
TORSDOF 10
ENDMDL
MODEL 5
REMARK VINA RESULT:      -6.3      4.243      6.499
REMARK  Name = 
REMARK  13 active torsions:
REMARK  status: ('A' for Active; 'I' for Inactive)
REMARK    1  A    between atoms: C_1  and  C_2
REMARK    2  A    between atoms: C_2  and  O_3
REMARK    3  A    between atoms: O_3  and  C_4
REMARK    4  A    between atoms: C_4  and  C_6
REMARK    5  A    between atoms: C_9  and  N_10
REMARK    6  A    between atoms: C_12  and  C_13
REMARK    7  A    between atoms: C_13  and  O_15
REMARK    8  A    between atoms: O_15  and  C_16
REMARK    9  A    between atoms: C_17  and  C_18
REMARK   10  A    between atoms: C_22  and  O_23
REMARK   11  A    between atoms: C_25  and  C_26
REMARK   12  A    between atoms: C_26  and  O_28
REMARK   13  A    between atoms: O_28  and  C_29
REMARK                            x       y       z     vdW  Elec       q    Type
REMARK                         _______ _______ _______ _____ _____    ______ ____
ROOT
ATOM      1  N   UNL     1       0.317  10.098  19.543  0.00  0.00    +0.000 N 
ATOM      2  C   UNL     1      -0.820  10.284  18.761  0.00  0.00    +0.000 C 
ATOM      3  C   UNL     1      -1.607  11.377  18.805  0.00  0.00    +0.000 C 
ATOM      4  C   UNL     1      -1.232  12.561  19.703  0.00  0.00    +0.000 C 
ATOM      5  C   UNL     1      -0.140  12.172  20.704  0.00  0.00    +0.000 C 
ATOM      6  C   UNL     1       0.561  11.034  20.541  0.00  0.00    +0.000 C 
ENDROOT
BRANCH   1  10
ATOM      7  C   UNL     1       3.036   6.873  18.916  0.00  0.00    +0.000 A 
ATOM      8  C   UNL     1       2.812   7.816  17.911  0.00  0.00    +0.000 A 
ATOM      9  C   UNL     1       1.911   8.863  18.114  0.00  0.00    +0.000 A 
ATOM     10  C   UNL     1       1.203   8.994  19.325  0.00  0.00    +0.000 A 
ATOM     11  C   UNL     1       1.426   8.022  20.316  0.00  0.00    +0.000 A 
ATOM     12  C   UNL     1       2.334   6.979  20.120  0.00  0.00    +0.000 A 
BRANCH   7  13
ATOM     13  C   UNL     1       3.968   5.754  18.633  0.00  0.00    +0.000 C 
ATOM     14  O   UNL     1       4.832   5.383  19.410  0.00  0.00    +0.000 OA
BRANCH  13  15
ATOM     15  O   UNL     1       3.775   5.303  17.370  0.00  0.00    +0.000 OA
BRANCH  15  17
ATOM     16  C   UNL     1       2.115   3.613  17.621  0.00  0.00    +0.000 C 
ATOM     17  C   UNL     1       3.560   3.893  17.255  0.00  0.00    +0.000 C 
ENDBRANCH  15  17
ENDBRANCH  13  15
ENDBRANCH   7  13
ENDBRANCH   1  10
BRANCH   4  18
ATOM     18  C   UNL     1      -2.422  13.230  20.376  0.00  0.00    +0.000 A 
ATOM     19  C   UNL     1      -2.545  14.632  20.323  0.00  0.00    +0.000 A 
ATOM     20  C   UNL     1      -3.580  15.287  20.991  0.00  0.00    +0.000 A 
ATOM     21  C   UNL     1      -4.512  14.549  21.717  0.00  0.00    +0.000 A 
ATOM     22  C   UNL     1      -4.401  13.160  21.761  0.00  0.00    +0.000 A 
ATOM     23  C   UNL     1      -3.372  12.497  21.096  0.00  0.00    +0.000 A 
BRANCH  22  24
ATOM     24  O   UNL     1      -5.288  12.402  22.463  0.00  0.00    +0.000 OA
ATOM     25  H   UNL     1      -5.211  11.485  22.155  0.00  0.00    +0.000 HD
ENDBRANCH  22  24
ENDBRANCH   4  18
BRANCH   3  26
ATOM     26  C   UNL     1      -2.797  11.434  17.922  0.00  0.00    +0.000 C 
ATOM     27  O   UNL     1      -3.946  11.271  18.296  0.00  0.00    +0.000 OA
BRANCH  26  28
ATOM     28  O   UNL     1      -2.409  11.694  16.643  0.00  0.00    +0.000 OA
ATOM     29  C   UNL     1      -3.026  10.905  15.625  0.00  0.00    +0.000 C 
ENDBRANCH  26  28
ENDBRANCH   3  26
BRANCH   5  30
ATOM     30  C   UNL     1       0.216  13.054  21.843  0.00  0.00    +0.000 C 
ATOM     31  O   UNL     1       1.029  13.960  21.791  0.00  0.00    +0.000 OA
BRANCH  30  32
ATOM     32  O   UNL     1      -0.516  12.704  22.938  0.00  0.00    +0.000 OA
ATOM     33  C   UNL     1      -1.160  13.771  23.633  0.00  0.00    +0.000 C 
ENDBRANCH  30  32
ENDBRANCH   5  30
TORSDOF 10
ENDMDL
MODEL 6
REMARK VINA RESULT:      -6.3      4.073      6.336
REMARK  Name = 
REMARK  13 active torsions:
REMARK  status: ('A' for Active; 'I' for Inactive)
REMARK    1  A    between atoms: C_1  and  C_2
REMARK    2  A    between atoms: C_2  and  O_3
REMARK    3  A    between atoms: O_3  and  C_4
REMARK    4  A    between atoms: C_4  and  C_6
REMARK    5  A    between atoms: C_9  and  N_10
REMARK    6  A    between atoms: C_12  and  C_13
REMARK    7  A    between atoms: C_13  and  O_15
REMARK    8  A    between atoms: O_15  and  C_16
REMARK    9  A    between atoms: C_17  and  C_18
REMARK   10  A    between atoms: C_22  and  O_23
REMARK   11  A    between atoms: C_25  and  C_26
REMARK   12  A    between atoms: C_26  and  O_28
REMARK   13  A    between atoms: O_28  and  C_29
REMARK                            x       y       z     vdW  Elec       q    Type
REMARK                         _______ _______ _______ _____ _____    ______ ____
ROOT
ATOM      1  N   UNL     1      -0.200  10.604  19.760  0.00  0.00    +0.000 N 
ATOM      2  C   UNL     1      -1.423  10.730  19.107  0.00  0.00    +0.000 C 
ATOM      3  C   UNL     1      -2.292  11.742  19.300  0.00  0.00    +0.000 C 
ATOM      4  C   UNL     1      -1.929  12.902  20.235  0.00  0.00    +0.000 C 
ATOM      5  C   UNL     1      -0.710  12.557  21.096  0.00  0.00    +0.000 C 
ATOM      6  C   UNL     1       0.065  11.500  20.789  0.00  0.00    +0.000 C 
ENDROOT
BRANCH   1  10
ATOM      7  C   UNL     1       2.555   7.554  18.623  0.00  0.00    +0.000 A 
ATOM      8  C   UNL     1       2.063   7.613  19.928  0.00  0.00    +0.000 A 
ATOM      9  C   UNL     1       1.172   8.621  20.302  0.00  0.00    +0.000 A 
ATOM     10  C   UNL     1       0.751   9.602  19.383  0.00  0.00    +0.000 A 
ATOM     11  C   UNL     1       1.276   9.538  18.079  0.00  0.00    +0.000 A 
ATOM     12  C   UNL     1       2.160   8.525  17.700  0.00  0.00    +0.000 A 
BRANCH   7  13
ATOM     13  C   UNL     1       3.535   6.491  18.291  0.00  0.00    +0.000 C 
ATOM     14  O   UNL     1       4.315   6.561  17.355  0.00  0.00    +0.000 OA
BRANCH  13  15
ATOM     15  O   UNL     1       3.352   5.425  19.106  0.00  0.00    +0.000 OA
BRANCH  15  17
ATOM     16  C   UNL     1       4.084   3.214  18.606  0.00  0.00    +0.000 C 
ATOM     17  C   UNL     1       2.959   4.217  18.446  0.00  0.00    +0.000 C 
ENDBRANCH  15  17
ENDBRANCH  13  15
ENDBRANCH   7  13
ENDBRANCH   1  10
BRANCH   4  18
ATOM     18  C   UNL     1      -3.096  13.418  21.064  0.00  0.00    +0.000 A 
ATOM     19  C   UNL     1      -3.552  14.736  20.866  0.00  0.00    +0.000 A 
ATOM     20  C   UNL     1      -4.569  15.270  21.659  0.00  0.00    +0.000 A 
ATOM     21  C   UNL     1      -5.150  14.490  22.656  0.00  0.00    +0.000 A 
ATOM     22  C   UNL     1      -4.711  13.181  22.846  0.00  0.00    +0.000 A 
ATOM     23  C   UNL     1      -3.697  12.639  22.059  0.00  0.00    +0.000 A 
BRANCH  22  24
ATOM     24  O   UNL     1      -5.250  12.388  23.813  0.00  0.00    +0.000 OA
ATOM     25  H   UNL     1      -6.064  11.995  23.461  0.00  0.00    +0.000 HD
ENDBRANCH  22  24
ENDBRANCH   4  18
BRANCH   3  26
ATOM     26  C   UNL     1      -3.567  11.740  18.544  0.00  0.00    +0.000 C 
ATOM     27  O   UNL     1      -4.675  11.782  19.052  0.00  0.00    +0.000 OA
BRANCH  26  28
ATOM     28  O   UNL     1      -3.310  11.683  17.208  0.00  0.00    +0.000 OA
ATOM     29  C   UNL     1      -4.367  11.191  16.383  0.00  0.00    +0.000 C 
ENDBRANCH  26  28
ENDBRANCH   3  26
BRANCH   5  30
ATOM     30  C   UNL     1      -0.316  13.401  22.251  0.00  0.00    +0.000 C 
ATOM     31  O   UNL     1      -0.504  13.110  23.420  0.00  0.00    +0.000 OA
BRANCH  30  32
ATOM     32  O   UNL     1       0.298  14.532  21.803  0.00  0.00    +0.000 OA
ATOM     33  C   UNL     1      -0.106  15.755  22.416  0.00  0.00    +0.000 C 
ENDBRANCH  30  32
ENDBRANCH   5  30
TORSDOF 10
ENDMDL
MODEL 7
REMARK VINA RESULT:      -6.3      7.083     11.026
REMARK  Name = 
REMARK  13 active torsions:
REMARK  status: ('A' for Active; 'I' for Inactive)
REMARK    1  A    between atoms: C_1  and  C_2
REMARK    2  A    between atoms: C_2  and  O_3
REMARK    3  A    between atoms: O_3  and  C_4
REMARK    4  A    between atoms: C_4  and  C_6
REMARK    5  A    between atoms: C_9  and  N_10
REMARK    6  A    between atoms: C_12  and  C_13
REMARK    7  A    between atoms: C_13  and  O_15
REMARK    8  A    between atoms: O_15  and  C_16
REMARK    9  A    between atoms: C_17  and  C_18
REMARK   10  A    between atoms: C_22  and  O_23
REMARK   11  A    between atoms: C_25  and  C_26
REMARK   12  A    between atoms: C_26  and  O_28
REMARK   13  A    between atoms: O_28  and  C_29
REMARK                            x       y       z     vdW  Elec       q    Type
REMARK                         _______ _______ _______ _____ _____    ______ ____
ROOT
ATOM      1  N   UNL     1       2.205   8.043  18.921  0.00  0.00    +0.000 N 
ATOM      2  C   UNL     1       1.785   7.058  19.810  0.00  0.00    +0.000 C 
ATOM      3  C   UNL     1       2.402   5.871  19.983  0.00  0.00    +0.000 C 
ATOM      4  C   UNL     1       3.703   5.562  19.232  0.00  0.00    +0.000 C 
ATOM      5  C   UNL     1       3.941   6.567  18.102  0.00  0.00    +0.000 C 
ATOM      6  C   UNL     1       3.235   7.713  18.047  0.00  0.00    +0.000 C 
ENDROOT
BRANCH   1  10
ATOM      7  C   UNL     1       0.476  11.941  18.978  0.00  0.00    +0.000 A 
ATOM      8  C   UNL     1      -0.122  10.890  19.678  0.00  0.00    +0.000 A 
ATOM      9  C   UNL     1       0.439   9.611  19.646  0.00  0.00    +0.000 A 
ATOM     10  C   UNL     1       1.610   9.345  18.910  0.00  0.00    +0.000 A 
ATOM     11  C   UNL     1       2.183  10.412  18.195  0.00  0.00    +0.000 A 
ATOM     12  C   UNL     1       1.631  11.694  18.232  0.00  0.00    +0.000 A 
BRANCH   7  13
ATOM     13  C   UNL     1      -0.186  13.268  19.007  0.00  0.00    +0.000 C 
ATOM     14  O   UNL     1      -1.328  13.443  19.402  0.00  0.00    +0.000 OA
BRANCH  13  15
ATOM     15  O   UNL     1       0.621  14.197  18.442  0.00  0.00    +0.000 OA
BRANCH  15  17
ATOM     16  C   UNL     1       0.429  16.563  18.649  0.00  0.00    +0.000 C 
ATOM     17  C   UNL     1       0.965  15.298  19.290  0.00  0.00    +0.000 C 
ENDBRANCH  15  17
ENDBRANCH  13  15
ENDBRANCH   7  13
ENDBRANCH   1  10
BRANCH   4  18
ATOM     18  C   UNL     1       3.816   4.120  18.758  0.00  0.00    +0.000 A 
ATOM     19  C   UNL     1       3.161   3.731  17.573  0.00  0.00    +0.000 A 
ATOM     20  C   UNL     1       3.179   2.403  17.148  0.00  0.00    +0.000 A 
ATOM     21  C   UNL     1       3.857   1.444  17.897  0.00  0.00    +0.000 A 
ATOM     22  C   UNL     1       4.516   1.828  19.064  0.00  0.00    +0.000 A 
ATOM     23  C   UNL     1       4.506   3.152  19.496  0.00  0.00    +0.000 A 
BRANCH  22  24
ATOM     24  O   UNL     1       5.187   0.921  19.828  0.00  0.00    +0.000 OA
ATOM     25  H   UNL     1       4.762   0.057  19.712  0.00  0.00    +0.000 HD
ENDBRANCH  22  24
ENDBRANCH   4  18
BRANCH   3  26
ATOM     26  C   UNL     1       1.835   4.909  20.959  0.00  0.00    +0.000 C 
ATOM     27  O   UNL     1       2.364   4.597  22.012  0.00  0.00    +0.000 OA
BRANCH  26  28
ATOM     28  O   UNL     1       0.645   4.435  20.499  0.00  0.00    +0.000 OA
ATOM     29  C   UNL     1       0.640   3.082  20.043  0.00  0.00    +0.000 C 
ENDBRANCH  26  28
ENDBRANCH   3  26
BRANCH   5  30
ATOM     30  C   UNL     1       4.986   6.341  17.073  0.00  0.00    +0.000 C 
ATOM     31  O   UNL     1       4.814   6.456  15.872  0.00  0.00    +0.000 OA
BRANCH  30  32
ATOM     32  O   UNL     1       6.159   6.005  17.679  0.00  0.00    +0.000 OA
ATOM     33  C   UNL     1       7.274   6.855  17.412  0.00  0.00    +0.000 C 
ENDBRANCH  30  32
ENDBRANCH   5  30
TORSDOF 10
ENDMDL
MODEL 8
REMARK VINA RESULT:      -6.3      4.312      6.813
REMARK  Name = 
REMARK  13 active torsions:
REMARK  status: ('A' for Active; 'I' for Inactive)
REMARK    1  A    between atoms: C_1  and  C_2
REMARK    2  A    between atoms: C_2  and  O_3
REMARK    3  A    between atoms: O_3  and  C_4
REMARK    4  A    between atoms: C_4  and  C_6
REMARK    5  A    between atoms: C_9  and  N_10
REMARK    6  A    between atoms: C_12  and  C_13
REMARK    7  A    between atoms: C_13  and  O_15
REMARK    8  A    between atoms: O_15  and  C_16
REMARK    9  A    between atoms: C_17  and  C_18
REMARK   10  A    between atoms: C_22  and  O_23
REMARK   11  A    between atoms: C_25  and  C_26
REMARK   12  A    between atoms: C_26  and  O_28
REMARK   13  A    between atoms: O_28  and  C_29
REMARK                            x       y       z     vdW  Elec       q    Type
REMARK                         _______ _______ _______ _____ _____    ______ ____
ROOT
ATOM      1  N   UNL     1       0.135  10.220  19.609  0.00  0.00    +0.000 N 
ATOM      2  C   UNL     1      -1.050  10.411  18.904  0.00  0.00    +0.000 C 
ATOM      3  C   UNL     1      -1.858  11.481  19.042  0.00  0.00    +0.000 C 
ATOM      4  C   UNL     1      -1.457  12.634  19.970  0.00  0.00    +0.000 C 
ATOM      5  C   UNL     1      -0.300  12.229  20.888  0.00  0.00    +0.000 C 
ATOM      6  C   UNL     1       0.416  11.118  20.633  0.00  0.00    +0.000 C 
ENDROOT
BRANCH   1  10
ATOM      7  C   UNL     1       2.886   7.098  18.678  0.00  0.00    +0.000 A 
ATOM      8  C   UNL     1       2.562   8.064  17.724  0.00  0.00    +0.000 A 
ATOM      9  C   UNL     1       1.650   9.077  18.026  0.00  0.00    +0.000 A 
ATOM     10  C   UNL     1       1.033   9.151  19.290  0.00  0.00    +0.000 A 
ATOM     11  C   UNL     1       1.356   8.156  20.230  0.00  0.00    +0.000 A 
ATOM     12  C   UNL     1       2.275   7.147  19.933  0.00  0.00    +0.000 A 
BRANCH   7  13
ATOM     13  C   UNL     1       3.825   6.016  18.290  0.00  0.00    +0.000 C 
ATOM     14  O   UNL     1       3.917   5.580  17.154  0.00  0.00    +0.000 OA
BRANCH  13  15
ATOM     15  O   UNL     1       4.459   5.540  19.388  0.00  0.00    +0.000 OA
BRANCH  15  17
ATOM     16  C   UNL     1       6.831   5.605  19.178  0.00  0.00    +0.000 C 
ATOM     17  C   UNL     1       5.601   4.720  19.122  0.00  0.00    +0.000 C 
ENDBRANCH  15  17
ENDBRANCH  13  15
ENDBRANCH   7  13
ENDBRANCH   1  10
BRANCH   4  18
ATOM     18  C   UNL     1      -2.621  13.241  20.740  0.00  0.00    +0.000 A 
ATOM     19  C   UNL     1      -2.891  14.618  20.609  0.00  0.00    +0.000 A 
ATOM     20  C   UNL     1      -3.900  15.225  21.356  0.00  0.00    +0.000 A 
ATOM     21  C   UNL     1      -4.660  14.464  22.241  0.00  0.00    +0.000 A 
ATOM     22  C   UNL     1      -4.405  13.100  22.364  0.00  0.00    +0.000 A 
ATOM     23  C   UNL     1      -3.401  12.483  21.622  0.00  0.00    +0.000 A 
BRANCH  22  24
ATOM     24  O   UNL     1      -5.122  12.321  23.221  0.00  0.00    +0.000 OA
ATOM     25  H   UNL     1      -4.592  11.535  23.430  0.00  0.00    +0.000 HD
ENDBRANCH  22  24
ENDBRANCH   4  18
BRANCH   3  26
ATOM     26  C   UNL     1      -3.099  11.546  18.233  0.00  0.00    +0.000 C 
ATOM     27  O   UNL     1      -4.227  11.460  18.687  0.00  0.00    +0.000 OA
BRANCH  26  28
ATOM     28  O   UNL     1      -2.783  11.714  16.919  0.00  0.00    +0.000 OA
ATOM     29  C   UNL     1      -3.384  10.796  16.005  0.00  0.00    +0.000 C 
ENDBRANCH  26  28
ENDBRANCH   3  26
BRANCH   5  30
ATOM     30  C   UNL     1       0.102  13.069  22.043  0.00  0.00    +0.000 C 
ATOM     31  O   UNL     1      -0.398  13.007  23.153  0.00  0.00    +0.000 OA
BRANCH  30  32
ATOM     32  O   UNL     1       1.118  13.898  21.674  0.00  0.00    +0.000 OA
ATOM     33  C   UNL     1       1.037  15.243  22.145  0.00  0.00    +0.000 C 
ENDBRANCH  30  32
ENDBRANCH   5  30
TORSDOF 10
ENDMDL
MODEL 9
REMARK VINA RESULT:      -6.3      7.068     11.145
REMARK  Name = 
REMARK  13 active torsions:
REMARK  status: ('A' for Active; 'I' for Inactive)
REMARK    1  A    between atoms: C_1  and  C_2
REMARK    2  A    between atoms: C_2  and  O_3
REMARK    3  A    between atoms: O_3  and  C_4
REMARK    4  A    between atoms: C_4  and  C_6
REMARK    5  A    between atoms: C_9  and  N_10
REMARK    6  A    between atoms: C_12  and  C_13
REMARK    7  A    between atoms: C_13  and  O_15
REMARK    8  A    between atoms: O_15  and  C_16
REMARK    9  A    between atoms: C_17  and  C_18
REMARK   10  A    between atoms: C_22  and  O_23
REMARK   11  A    between atoms: C_25  and  C_26
REMARK   12  A    between atoms: C_26  and  O_28
REMARK   13  A    between atoms: O_28  and  C_29
REMARK                            x       y       z     vdW  Elec       q    Type
REMARK                         _______ _______ _______ _____ _____    ______ ____
ROOT
ATOM      1  N   UNL     1       2.300   8.001  18.922  0.00  0.00    +0.000 N 
ATOM      2  C   UNL     1       1.853   7.033  19.818  0.00  0.00    +0.000 C 
ATOM      3  C   UNL     1       2.436   5.831  19.999  0.00  0.00    +0.000 C 
ATOM      4  C   UNL     1       3.726   5.480  19.248  0.00  0.00    +0.000 C 
ATOM      5  C   UNL     1       3.992   6.471  18.111  0.00  0.00    +0.000 C 
ATOM      6  C   UNL     1       3.318   7.636  18.050  0.00  0.00    +0.000 C 
ENDROOT
BRANCH   1  10
ATOM      7  C   UNL     1       0.687  11.948  18.953  0.00  0.00    +0.000 A 
ATOM      8  C   UNL     1       0.101  10.938  19.718  0.00  0.00    +0.000 A 
ATOM      9  C   UNL     1       0.622   9.643  19.695  0.00  0.00    +0.000 A 
ATOM     10  C   UNL     1       1.741   9.319  18.904  0.00  0.00    +0.000 A 
ATOM     11  C   UNL     1       2.303  10.346  18.124  0.00  0.00    +0.000 A 
ATOM     12  C   UNL     1       1.790  11.645  18.152  0.00  0.00    +0.000 A 
BRANCH   7  13
ATOM     13  C   UNL     1       0.065  13.295  18.977  0.00  0.00    +0.000 C 
ATOM     14  O   UNL     1      -0.642  13.727  18.081  0.00  0.00    +0.000 OA
BRANCH  13  15
ATOM     15  O   UNL     1       0.487  13.977  20.069  0.00  0.00    +0.000 OA
BRANCH  15  17
ATOM     16  C   UNL     1      -0.424  13.693  22.252  0.00  0.00    +0.000 C 
ATOM     17  C   UNL     1      -0.555  14.436  20.937  0.00  0.00    +0.000 C 
ENDBRANCH  15  17
ENDBRANCH  13  15
ENDBRANCH   7  13
ENDBRANCH   1  10
BRANCH   4  18
ATOM     18  C   UNL     1       3.797   4.033  18.783  0.00  0.00    +0.000 A 
ATOM     19  C   UNL     1       3.077   3.641  17.638  0.00  0.00    +0.000 A 
ATOM     20  C   UNL     1       3.057   2.308  17.226  0.00  0.00    +0.000 A 
ATOM     21  C   UNL     1       3.762   1.349  17.948  0.00  0.00    +0.000 A 
ATOM     22  C   UNL     1       4.486   1.735  19.074  0.00  0.00    +0.000 A 
ATOM     23  C   UNL     1       4.514   3.063  19.494  0.00  0.00    +0.000 A 
BRANCH  22  24
ATOM     24  O   UNL     1       5.186   0.828  19.811  0.00  0.00    +0.000 OA
ATOM     25  H   UNL     1       6.108   0.842  19.510  0.00  0.00    +0.000 HD
ENDBRANCH  22  24
ENDBRANCH   4  18
BRANCH   3  26
ATOM     26  C   UNL     1       1.842   4.892  20.981  0.00  0.00    +0.000 C 
ATOM     27  O   UNL     1       2.356   4.585  22.043  0.00  0.00    +0.000 OA
BRANCH  26  28
ATOM     28  O   UNL     1       0.649   4.431  20.515  0.00  0.00    +0.000 OA
ATOM     29  C   UNL     1       0.609   3.054  20.139  0.00  0.00    +0.000 C 
ENDBRANCH  26  28
ENDBRANCH   3  26
BRANCH   5  30
ATOM     30  C   UNL     1       5.028   6.208  17.083  0.00  0.00    +0.000 C 
ATOM     31  O   UNL     1       4.854   6.309  15.880  0.00  0.00    +0.000 OA
BRANCH  30  32
ATOM     32  O   UNL     1       6.197   5.858  17.690  0.00  0.00    +0.000 OA
ATOM     33  C   UNL     1       6.980   4.867  17.026  0.00  0.00    +0.000 C 
ENDBRANCH  30  32
ENDBRANCH   5  30
TORSDOF 10
ENDMDL
