MODEL 1
REMARK VINA RESULT:     -10.8      0.000      0.000
REMARK  Name = 
REMARK  5 active torsions:
REMARK  status: ('A' for Active; 'I' for Inactive)
REMARK    1  A    between atoms: C_1  and  C_2
REMARK    2  A    between atoms: C_4  and  C_5
REMARK    3  A    between atoms: C_13  and  N_14
REMARK    4  A    between atoms: C_16  and  C_17
REMARK    5  A    between atoms: C_24  and  N_25
REMARK                            x       y       z     vdW  Elec       q    Type
REMARK                         _______ _______ _______ _____ _____    ______ ____
ROOT
ATOM      1  N   UNL     1       6.543   6.272  16.743  0.00  0.00    +0.000 N 
ATOM      2  N   UNL     1       6.994   5.886  15.514  0.00  0.00    +0.000 NA
ATOM      3  C   UNL     1       6.217   4.965  15.056  0.00  0.00    +0.000 C 
ATOM      4  C   UNL     1       5.104   4.573  15.975  0.00  0.00    +0.000 C 
ATOM      5  C   UNL     1       5.500   5.369  17.256  0.00  0.00    +0.000 C 
ENDROOT
BRANCH   5   6
ATOM      6  N   UNL     1       4.325   5.770  18.053  0.00  0.00    +0.000 NA
ATOM      7  C   UNL     1       4.541   5.555  19.490  0.00  0.00    +0.000 C 
ATOM      8  C   UNL     1       3.287   5.882  20.290  0.00  0.00    +0.000 C 
ATOM      9  C   UNL     1       2.320   4.800  19.913  0.00  0.00    +0.000 A 
ATOM     10  C   UNL     1       1.736   3.970  20.872  0.00  0.00    +0.000 A 
ATOM     11  C   UNL     1       0.935   2.908  20.459  0.00  0.00    +0.000 A 
ATOM     12  C   UNL     1       0.667   2.727  19.102  0.00  0.00    +0.000 A 
ATOM     13  C   UNL     1       1.262   3.552  18.140  0.00  0.00    +0.000 A 
ATOM     14  C   UNL     1       2.158   4.551  18.536  0.00  0.00    +0.000 A 
ATOM     15  C   UNL     1       3.003   5.348  17.542  0.00  0.00    +0.000 C 
ENDBRANCH   5   6
BRANCH   1  21
ATOM     16  C   UNL     1       8.177   5.506  19.362  0.00  0.00    +0.000 C 
ATOM     17  C   UNL     1       7.988   6.761  18.613  0.00  0.00    +0.000 A 
ATOM     18  O   UNL     1       8.619   7.861  19.094  0.00  0.00    +0.000 OA
ATOM     19  C   UNL     1       8.268   8.857  18.223  0.00  0.00    +0.000 A 
ATOM     20  N   UNL     1       7.457   8.473  17.250  0.00  0.00    +0.000 NA
ATOM     21  C   UNL     1       7.283   7.130  17.487  0.00  0.00    +0.000 A 
BRANCH  19  22
ATOM     22  C   UNL     1       8.834  10.175  18.521  0.00  0.00    +0.000 A 
ATOM     23  C   UNL     1       9.809  10.304  19.514  0.00  0.00    +0.000 A 
ATOM     24  C   UNL     1      10.375  11.549  19.816  0.00  0.00    +0.000 A 
ATOM     25  C   UNL     1       9.963  12.689  19.124  0.00  0.00    +0.000 A 
ATOM     26  C   UNL     1       8.986  12.580  18.141  0.00  0.00    +0.000 A 
ATOM     27  C   UNL     1       8.428  11.336  17.846  0.00  0.00    +0.000 A 
ATOM     28  F   UNL     1       7.485  11.302  16.892  0.00  0.00    +0.000 F 
ENDBRANCH  19  22
ENDBRANCH   1  21
BRANCH   3  29
ATOM     29  C   UNL     1       6.401   4.454  13.679  0.00  0.00    +0.000 A 
ATOM     30  C   UNL     1       5.520   3.455  13.235  0.00  0.00    +0.000 A 
ATOM     31  C   UNL     1       5.739   2.812  12.012  0.00  0.00    +0.000 A 
ATOM     32  C   UNL     1       6.834   3.169  11.236  0.00  0.00    +0.000 A 
ATOM     33  C   UNL     1       7.695   4.184  11.663  0.00  0.00    +0.000 A 
ATOM     34  C   UNL     1       7.477   4.836  12.882  0.00  0.00    +0.000 A 
ENDBRANCH   3  29
TORSDOF 4
ENDMDL
MODEL 2
REMARK VINA RESULT:     -10.2      0.806      1.413
REMARK  Name = 
REMARK  5 active torsions:
REMARK  status: ('A' for Active; 'I' for Inactive)
REMARK    1  A    between atoms: C_1  and  C_2
REMARK    2  A    between atoms: C_4  and  C_5
REMARK    3  A    between atoms: C_13  and  N_14
REMARK    4  A    between atoms: C_16  and  C_17
REMARK    5  A    between atoms: C_24  and  N_25
REMARK                            x       y       z     vdW  Elec       q    Type
REMARK                         _______ _______ _______ _____ _____    ______ ____
ROOT
ATOM      1  N   UNL     1       6.481   6.235  16.726  0.00  0.00    +0.000 N 
ATOM      2  N   UNL     1       6.957   5.791  15.526  0.00  0.00    +0.000 NA
ATOM      3  C   UNL     1       6.219   4.814  15.122  0.00  0.00    +0.000 C 
ATOM      4  C   UNL     1       5.114   4.437  16.057  0.00  0.00    +0.000 C 
ATOM      5  C   UNL     1       5.469   5.327  17.288  0.00  0.00    +0.000 C 
ENDROOT
BRANCH   5   6
ATOM      6  N   UNL     1       4.274   5.732  18.052  0.00  0.00    +0.000 NA
ATOM      7  C   UNL     1       4.481   5.601  19.500  0.00  0.00    +0.000 C 
ATOM      8  C   UNL     1       3.207   5.929  20.269  0.00  0.00    +0.000 C 
ATOM      9  C   UNL     1       2.280   4.798  19.942  0.00  0.00    +0.000 A 
ATOM     10  C   UNL     1       1.712   4.002  20.939  0.00  0.00    +0.000 A 
ATOM     11  C   UNL     1       0.950   2.894  20.577  0.00  0.00    +0.000 A 
ATOM     12  C   UNL     1       0.702   2.632  19.229  0.00  0.00    +0.000 A 
ATOM     13  C   UNL     1       1.282   3.424  18.230  0.00  0.00    +0.000 A 
ATOM     14  C   UNL     1       2.141   4.471  18.580  0.00  0.00    +0.000 A 
ATOM     15  C   UNL     1       2.971   5.240  17.552  0.00  0.00    +0.000 C 
ENDBRANCH   5   6
BRANCH   1  21
ATOM     16  C   UNL     1       8.244   5.669  19.311  0.00  0.00    +0.000 C 
ATOM     17  C   UNL     1       7.945   6.883  18.532  0.00  0.00    +0.000 A 
ATOM     18  O   UNL     1       8.512   8.039  18.958  0.00  0.00    +0.000 OA
ATOM     19  C   UNL     1       8.066   8.979  18.069  0.00  0.00    +0.000 A 
ATOM     20  N   UNL     1       7.255   8.509  17.135  0.00  0.00    +0.000 NA
ATOM     21  C   UNL     1       7.182   7.165  17.418  0.00  0.00    +0.000 A 
BRANCH  19  22
ATOM     22  C   UNL     1       8.548  10.342  18.308  0.00  0.00    +0.000 A 
ATOM     23  C   UNL     1       8.232  11.358  17.401  0.00  0.00    +0.000 A 
ATOM     24  C   UNL     1       8.671  12.673  17.606  0.00  0.00    +0.000 A 
ATOM     25  C   UNL     1       9.442  12.985  18.726  0.00  0.00    +0.000 A 
ATOM     26  C   UNL     1       9.776  11.983  19.631  0.00  0.00    +0.000 A 
ATOM     27  C   UNL     1       9.334  10.676  19.421  0.00  0.00    +0.000 A 
ATOM     28  F   UNL     1       9.697   9.757  20.327  0.00  0.00    +0.000 F 
ENDBRANCH  19  22
ENDBRANCH   1  21
BRANCH   3  29
ATOM     29  C   UNL     1       6.432   4.225  13.781  0.00  0.00    +0.000 A 
ATOM     30  C   UNL     1       7.448   4.777  12.984  0.00  0.00    +0.000 A 
ATOM     31  C   UNL     1       7.593   4.384  11.650  0.00  0.00    +0.000 A 
ATOM     32  C   UNL     1       6.727   3.439  11.116  0.00  0.00    +0.000 A 
ATOM     33  C   UNL     1       5.734   2.866  11.916  0.00  0.00    +0.000 A 
ATOM     34  C   UNL     1       5.588   3.251  13.253  0.00  0.00    +0.000 A 
ENDBRANCH   3  29
TORSDOF 4
ENDMDL
MODEL 3
REMARK VINA RESULT:      -9.2      1.085      1.424
REMARK  Name = 
REMARK  5 active torsions:
REMARK  status: ('A' for Active; 'I' for Inactive)
REMARK    1  A    between atoms: C_1  and  C_2
REMARK    2  A    between atoms: C_4  and  C_5
REMARK    3  A    between atoms: C_13  and  N_14
REMARK    4  A    between atoms: C_16  and  C_17
REMARK    5  A    between atoms: C_24  and  N_25
REMARK                            x       y       z     vdW  Elec       q    Type
REMARK                         _______ _______ _______ _____ _____    ______ ____
ROOT
ATOM      1  N   UNL     1       6.771   6.105  16.898  0.00  0.00    +0.000 N 
ATOM      2  N   UNL     1       7.015   5.895  15.571  0.00  0.00    +0.000 NA
ATOM      3  C   UNL     1       6.430   4.805  15.209  0.00  0.00    +0.000 C 
ATOM      4  C   UNL     1       5.705   4.091  16.305  0.00  0.00    +0.000 C 
ATOM      5  C   UNL     1       6.156   4.933  17.538  0.00  0.00    +0.000 C 
ENDROOT
BRANCH   5   6
ATOM      6  N   UNL     1       5.132   4.966  18.599  0.00  0.00    +0.000 NA
ATOM      7  C   UNL     1       5.137   3.735  19.402  0.00  0.00    +0.000 C 
ATOM      8  C   UNL     1       4.012   3.744  20.429  0.00  0.00    +0.000 C 
ATOM      9  C   UNL     1       2.764   3.623  19.607  0.00  0.00    +0.000 A 
ATOM     10  C   UNL     1       1.849   2.588  19.809  0.00  0.00    +0.000 A 
ATOM     11  C   UNL     1       0.766   2.456  18.944  0.00  0.00    +0.000 A 
ATOM     12  C   UNL     1       0.567   3.396  17.932  0.00  0.00    +0.000 A 
ATOM     13  C   UNL     1       1.492   4.426  17.722  0.00  0.00    +0.000 A 
ATOM     14  C   UNL     1       2.643   4.502  18.514  0.00  0.00    +0.000 A 
ATOM     15  C   UNL     1       3.793   5.463  18.213  0.00  0.00    +0.000 C 
ENDBRANCH   5   6
BRANCH   1  21
ATOM     16  C   UNL     1       8.430   5.825  19.597  0.00  0.00    +0.000 C 
ATOM     17  C   UNL     1       8.123   6.959  18.706  0.00  0.00    +0.000 A 
ATOM     18  O   UNL     1       8.627   8.167  19.058  0.00  0.00    +0.000 OA
ATOM     19  C   UNL     1       8.189   9.012  18.075  0.00  0.00    +0.000 A 
ATOM     20  N   UNL     1       7.440   8.435  17.149  0.00  0.00    +0.000 NA
ATOM     21  C   UNL     1       7.404   7.117  17.540  0.00  0.00    +0.000 A 
BRANCH  19  22
ATOM     22  C   UNL     1       8.608  10.409  18.220  0.00  0.00    +0.000 A 
ATOM     23  C   UNL     1       8.065  11.387  17.381  0.00  0.00    +0.000 A 
ATOM     24  C   UNL     1       8.440  12.732  17.500  0.00  0.00    +0.000 A 
ATOM     25  C   UNL     1       9.374  13.114  18.464  0.00  0.00    +0.000 A 
ATOM     26  C   UNL     1       9.932  12.151  19.298  0.00  0.00    +0.000 A 
ATOM     27  C   UNL     1       9.553  10.814  19.174  0.00  0.00    +0.000 A 
ATOM     28  F   UNL     1      10.135   9.936  20.005  0.00  0.00    +0.000 F 
ENDBRANCH  19  22
ENDBRANCH   1  21
BRANCH   3  29
ATOM     29  C   UNL     1       6.423   4.402  13.785  0.00  0.00    +0.000 A 
ATOM     30  C   UNL     1       5.402   3.539  13.360  0.00  0.00    +0.000 A 
ATOM     31  C   UNL     1       5.430   2.987  12.074  0.00  0.00    +0.000 A 
ATOM     32  C   UNL     1       6.476   3.302  11.217  0.00  0.00    +0.000 A 
ATOM     33  C   UNL     1       7.479   4.185  11.628  0.00  0.00    +0.000 A 
ATOM     34  C   UNL     1       7.452   4.744  12.910  0.00  0.00    +0.000 A 
ENDBRANCH   3  29
TORSDOF 4
ENDMDL
MODEL 4
REMARK VINA RESULT:      -9.1      6.873     10.532
REMARK  Name = 
REMARK  5 active torsions:
REMARK  status: ('A' for Active; 'I' for Inactive)
REMARK    1  A    between atoms: C_1  and  C_2
REMARK    2  A    between atoms: C_4  and  C_5
REMARK    3  A    between atoms: C_13  and  N_14
REMARK    4  A    between atoms: C_16  and  C_17
REMARK    5  A    between atoms: C_24  and  N_25
REMARK                            x       y       z     vdW  Elec       q    Type
REMARK                         _______ _______ _______ _____ _____    ______ ____
ROOT
ATOM      1  N   UNL     1       0.271  10.529  19.021  0.00  0.00    +0.000 N 
ATOM      2  N   UNL     1      -1.035  10.402  18.646  0.00  0.00    +0.000 NA
ATOM      3  C   UNL     1      -1.627  11.536  18.812  0.00  0.00    +0.000 C 
ATOM      4  C   UNL     1      -0.760  12.617  19.374  0.00  0.00    +0.000 C 
ATOM      5  C   UNL     1       0.525  11.801  19.715  0.00  0.00    +0.000 C 
ENDROOT
BRANCH   5   6
ATOM      6  N   UNL     1       1.751  12.614  19.607  0.00  0.00    +0.000 NA
ATOM      7  C   UNL     1       2.194  13.110  20.918  0.00  0.00    +0.000 C 
ATOM      8  C   UNL     1       3.403  14.026  20.779  0.00  0.00    +0.000 C 
ATOM      9  C   UNL     1       2.860  15.250  20.106  0.00  0.00    +0.000 A 
ATOM     10  C   UNL     1       2.980  16.518  20.678  0.00  0.00    +0.000 A 
ATOM     11  C   UNL     1       2.358  17.604  20.068  0.00  0.00    +0.000 A 
ATOM     12  C   UNL     1       1.684  17.429  18.859  0.00  0.00    +0.000 A 
ATOM     13  C   UNL     1       1.553  16.155  18.292  0.00  0.00    +0.000 A 
ATOM     14  C   UNL     1       2.077  15.040  18.954  0.00  0.00    +0.000 A 
ATOM     15  C   UNL     1       1.795  13.605  18.509  0.00  0.00    +0.000 C 
ENDBRANCH   5   6
BRANCH   1  21
ATOM     16  C   UNL     1       0.984   8.889  21.650  0.00  0.00    +0.000 C 
ATOM     17  C   UNL     1       1.342   8.735  20.229  0.00  0.00    +0.000 A 
ATOM     18  O   UNL     1       2.145   7.690  19.910  0.00  0.00    +0.000 OA
ATOM     19  C   UNL     1       2.311   7.796  18.556  0.00  0.00    +0.000 A 
ATOM     20  N   UNL     1       1.693   8.830  18.007  0.00  0.00    +0.000 NA
ATOM     21  C   UNL     1       1.060   9.429  19.071  0.00  0.00    +0.000 A 
BRANCH  19  22
ATOM     22  C   UNL     1       3.152   6.762  17.947  0.00  0.00    +0.000 A 
ATOM     23  C   UNL     1       4.332   7.124  17.291  0.00  0.00    +0.000 A 
ATOM     24  C   UNL     1       5.161   6.158  16.707  0.00  0.00    +0.000 A 
ATOM     25  C   UNL     1       4.811   4.808  16.768  0.00  0.00    +0.000 A 
ATOM     26  C   UNL     1       3.634   4.432  17.406  0.00  0.00    +0.000 A 
ATOM     27  C   UNL     1       2.814   5.400  17.987  0.00  0.00    +0.000 A 
ATOM     28  F   UNL     1       1.691   4.972  18.581  0.00  0.00    +0.000 F 
ENDBRANCH  19  22
ENDBRANCH   1  21
BRANCH   3  29
ATOM     29  C   UNL     1      -3.025  11.718  18.361  0.00  0.00    +0.000 A 
ATOM     30  C   UNL     1      -3.957  12.176  19.306  0.00  0.00    +0.000 A 
ATOM     31  C   UNL     1      -5.320  12.210  18.996  0.00  0.00    +0.000 A 
ATOM     32  C   UNL     1      -5.749  11.790  17.743  0.00  0.00    +0.000 A 
ATOM     33  C   UNL     1      -4.820  11.361  16.791  0.00  0.00    +0.000 A 
ATOM     34  C   UNL     1      -3.454  11.331  17.094  0.00  0.00    +0.000 A 
ENDBRANCH   3  29
TORSDOF 4
ENDMDL
MODEL 5
REMARK VINA RESULT:      -8.9      6.292     10.066
REMARK  Name = 
REMARK  5 active torsions:
REMARK  status: ('A' for Active; 'I' for Inactive)
REMARK    1  A    between atoms: C_1  and  C_2
REMARK    2  A    between atoms: C_4  and  C_5
REMARK    3  A    between atoms: C_13  and  N_14
REMARK    4  A    between atoms: C_16  and  C_17
REMARK    5  A    between atoms: C_24  and  N_25
REMARK                            x       y       z     vdW  Elec       q    Type
REMARK                         _______ _______ _______ _____ _____    ______ ____
ROOT
ATOM      1  N   UNL     1       0.600  10.146  18.887  0.00  0.00    +0.000 N 
ATOM      2  N   UNL     1      -0.654  10.088  18.351  0.00  0.00    +0.000 NA
ATOM      3  C   UNL     1      -1.231  11.228  18.519  0.00  0.00    +0.000 C 
ATOM      4  C   UNL     1      -0.410  12.242  19.251  0.00  0.00    +0.000 C 
ATOM      5  C   UNL     1       0.802  11.363  19.688  0.00  0.00    +0.000 C 
ENDROOT
BRANCH   5   6
ATOM      6  N   UNL     1       2.053  12.139  19.782  0.00  0.00    +0.000 NA
ATOM      7  C   UNL     1       2.079  12.990  20.980  0.00  0.00    +0.000 C 
ATOM      8  C   UNL     1       3.332  13.856  21.012  0.00  0.00    +0.000 C 
ATOM      9  C   UNL     1       3.132  14.831  19.892  0.00  0.00    +0.000 A 
ATOM     10  C   UNL     1       3.153  16.211  20.106  0.00  0.00    +0.000 A 
ATOM     11  C   UNL     1       2.848  17.070  19.054  0.00  0.00    +0.000 A 
ATOM     12  C   UNL     1       2.595  16.550  17.784  0.00  0.00    +0.000 A 
ATOM     13  C   UNL     1       2.561  15.166  17.572  0.00  0.00    +0.000 A 
ATOM     14  C   UNL     1       2.755  14.292  18.647  0.00  0.00    +0.000 A 
ATOM     15  C   UNL     1       2.527  12.784  18.538  0.00  0.00    +0.000 C 
ENDBRANCH   5   6
BRANCH   1  21
ATOM     16  C   UNL     1       1.282   8.550  21.552  0.00  0.00    +0.000 C 
ATOM     17  C   UNL     1       1.617   8.346  20.131  0.00  0.00    +0.000 A 
ATOM     18  O   UNL     1       2.377   7.263  19.832  0.00  0.00    +0.000 OA
ATOM     19  C   UNL     1       2.532   7.327  18.474  0.00  0.00    +0.000 A 
ATOM     20  N   UNL     1       1.947   8.368  17.904  0.00  0.00    +0.000 NA
ATOM     21  C   UNL     1       1.349   9.019  18.958  0.00  0.00    +0.000 A 
BRANCH  19  22
ATOM     22  C   UNL     1       3.326   6.246  17.884  0.00  0.00    +0.000 A 
ATOM     23  C   UNL     1       2.805   4.950  17.834  0.00  0.00    +0.000 A 
ATOM     24  C   UNL     1       3.537   3.897  17.269  0.00  0.00    +0.000 A 
ATOM     25  C   UNL     1       4.811   4.132  16.749  0.00  0.00    +0.000 A 
ATOM     26  C   UNL     1       5.348   5.414  16.802  0.00  0.00    +0.000 A 
ATOM     27  C   UNL     1       4.612   6.457  17.365  0.00  0.00    +0.000 A 
ATOM     28  F   UNL     1       5.192   7.666  17.391  0.00  0.00    +0.000 F 
ENDBRANCH  19  22
ENDBRANCH   1  21
BRANCH   3  29
ATOM     29  C   UNL     1      -2.559  11.485  17.918  0.00  0.00    +0.000 A 
ATOM     30  C   UNL     1      -3.579  11.940  18.768  0.00  0.00    +0.000 A 
ATOM     31  C   UNL     1      -4.894  12.042  18.303  0.00  0.00    +0.000 A 
ATOM     32  C   UNL     1      -5.186  11.694  16.991  0.00  0.00    +0.000 A 
ATOM     33  C   UNL     1      -4.166  11.270  16.135  0.00  0.00    +0.000 A 
ATOM     34  C   UNL     1      -2.848  11.171  16.592  0.00  0.00    +0.000 A 
ENDBRANCH   3  29
TORSDOF 4
ENDMDL
MODEL 6
REMARK VINA RESULT:      -8.7      7.038     10.098
REMARK  Name = 
REMARK  5 active torsions:
REMARK  status: ('A' for Active; 'I' for Inactive)
REMARK    1  A    between atoms: C_1  and  C_2
REMARK    2  A    between atoms: C_4  and  C_5
REMARK    3  A    between atoms: C_13  and  N_14
REMARK    4  A    between atoms: C_16  and  C_17
REMARK    5  A    between atoms: C_24  and  N_25
REMARK                            x       y       z     vdW  Elec       q    Type
REMARK                         _______ _______ _______ _____ _____    ______ ____
ROOT
ATOM      1  N   UNL     1       0.960  11.011  18.783  0.00  0.00    +0.000 N 
ATOM      2  N   UNL     1       1.885  12.015  18.768  0.00  0.00    +0.000 NA
ATOM      3  C   UNL     1       1.294  13.120  18.470  0.00  0.00    +0.000 C 
ATOM      4  C   UNL     1      -0.172  12.993  18.205  0.00  0.00    +0.000 C 
ATOM      5  C   UNL     1      -0.330  11.442  18.222  0.00  0.00    +0.000 C 
ENDROOT
BRANCH   5   6
ATOM      6  N   UNL     1      -1.662  11.018  18.693  0.00  0.00    +0.000 NA
ATOM      7  C   UNL     1      -2.648  11.004  17.604  0.00  0.00    +0.000 C 
ATOM      8  C   UNL     1      -4.037  10.659  18.124  0.00  0.00    +0.000 C 
ATOM      9  C   UNL     1      -4.430  11.854  18.940  0.00  0.00    +0.000 A 
ATOM     10  C   UNL     1      -5.594  12.577  18.671  0.00  0.00    +0.000 A 
ATOM     11  C   UNL     1      -5.853  13.744  19.384  0.00  0.00    +0.000 A 
ATOM     12  C   UNL     1      -4.988  14.142  20.404  0.00  0.00    +0.000 A 
ATOM     13  C   UNL     1      -3.815  13.423  20.665  0.00  0.00    +0.000 A 
ATOM     14  C   UNL     1      -3.487  12.313  19.880  0.00  0.00    +0.000 A 
ATOM     15  C   UNL     1      -2.133  11.608  19.965  0.00  0.00    +0.000 C 
ENDBRANCH   5   6
BRANCH   1  21
ATOM     16  C   UNL     1       0.755   9.308  21.461  0.00  0.00    +0.000 C 
ATOM     17  C   UNL     1       1.257   9.015  20.106  0.00  0.00    +0.000 A 
ATOM     18  O   UNL     1       1.751   7.770  19.893  0.00  0.00    +0.000 OA
ATOM     19  C   UNL     1       2.140   7.784  18.582  0.00  0.00    +0.000 A 
ATOM     20  N   UNL     1       1.946   8.938  17.964  0.00  0.00    +0.000 NA
ATOM     21  C   UNL     1       1.370   9.728  18.931  0.00  0.00    +0.000 A 
BRANCH  19  22
ATOM     22  C   UNL     1       2.716   6.530  18.088  0.00  0.00    +0.000 A 
ATOM     23  C   UNL     1       1.955   5.358  18.118  0.00  0.00    +0.000 A 
ATOM     24  C   UNL     1       2.475   4.145  17.645  0.00  0.00    +0.000 A 
ATOM     25  C   UNL     1       3.774   4.092  17.138  0.00  0.00    +0.000 A 
ATOM     26  C   UNL     1       4.548   5.248  17.112  0.00  0.00    +0.000 A 
ATOM     27  C   UNL     1       4.023   6.451  17.584  0.00  0.00    +0.000 A 
ATOM     28  F   UNL     1       4.824   7.526  17.537  0.00  0.00    +0.000 F 
ENDBRANCH  19  22
ENDBRANCH   1  21
BRANCH   3  29
ATOM     29  C   UNL     1       2.041  14.397  18.509  0.00  0.00    +0.000 A 
ATOM     30  C   UNL     1       1.328  15.556  18.856  0.00  0.00    +0.000 A 
ATOM     31  C   UNL     1       1.929  16.815  18.750  0.00  0.00    +0.000 A 
ATOM     32  C   UNL     1       3.240  16.913  18.303  0.00  0.00    +0.000 A 
ATOM     33  C   UNL     1       3.961  15.758  17.985  0.00  0.00    +0.000 A 
ATOM     34  C   UNL     1       3.367  14.496  18.095  0.00  0.00    +0.000 A 
ENDBRANCH   3  29
TORSDOF 4
ENDMDL
MODEL 7
REMARK VINA RESULT:      -8.6      7.073     10.025
REMARK  Name = 
REMARK  5 active torsions:
REMARK  status: ('A' for Active; 'I' for Inactive)
REMARK    1  A    between atoms: C_1  and  C_2
REMARK    2  A    between atoms: C_4  and  C_5
REMARK    3  A    between atoms: C_13  and  N_14
REMARK    4  A    between atoms: C_16  and  C_17
REMARK    5  A    between atoms: C_24  and  N_25
REMARK                            x       y       z     vdW  Elec       q    Type
REMARK                         _______ _______ _______ _____ _____    ______ ____
ROOT
ATOM      1  N   UNL     1       0.993  10.892  18.750  0.00  0.00    +0.000 N 
ATOM      2  N   UNL     1       1.815  11.976  18.862  0.00  0.00    +0.000 NA
ATOM      3  C   UNL     1       1.137  13.040  18.599  0.00  0.00    +0.000 C 
ATOM      4  C   UNL     1      -0.292  12.796  18.231  0.00  0.00    +0.000 C 
ATOM      5  C   UNL     1      -0.298  11.240  18.136  0.00  0.00    +0.000 C 
ENDROOT
BRANCH   5   6
ATOM      6  N   UNL     1      -1.608  10.661  18.490  0.00  0.00    +0.000 NA
ATOM      7  C   UNL     1      -2.383  10.293  17.298  0.00  0.00    +0.000 C 
ATOM      8  C   UNL     1      -3.769   9.789  17.677  0.00  0.00    +0.000 C 
ATOM      9  C   UNL     1      -4.474  11.006  18.194  0.00  0.00    +0.000 A 
ATOM     10  C   UNL     1      -5.675  11.452  17.638  0.00  0.00    +0.000 A 
ATOM     11  C   UNL     1      -6.228  12.651  18.079  0.00  0.00    +0.000 A 
ATOM     12  C   UNL     1      -5.618  13.358  19.116  0.00  0.00    +0.000 A 
ATOM     13  C   UNL     1      -4.408  12.916  19.665  0.00  0.00    +0.000 A 
ATOM     14  C   UNL     1      -3.785  11.774  19.153  0.00  0.00    +0.000 A 
ATOM     15  C   UNL     1      -2.371  11.351  19.553  0.00  0.00    +0.000 C 
ENDBRANCH   5   6
BRANCH   1  21
ATOM     16  C   UNL     1       0.877   9.025  21.322  0.00  0.00    +0.000 C 
ATOM     17  C   UNL     1       1.440   8.858  19.970  0.00  0.00    +0.000 A 
ATOM     18  O   UNL     1       2.053   7.678  19.704  0.00  0.00    +0.000 OA
ATOM     19  C   UNL     1       2.473   7.803  18.408  0.00  0.00    +0.000 A 
ATOM     20  N   UNL     1       2.189   8.969  17.850  0.00  0.00    +0.000 NA
ATOM     21  C   UNL     1       1.516   9.645  18.840  0.00  0.00    +0.000 A 
BRANCH  19  22
ATOM     22  C   UNL     1       3.176   6.638  17.864  0.00  0.00    +0.000 A 
ATOM     23  C   UNL     1       4.407   6.807  17.223  0.00  0.00    +0.000 A 
ATOM     24  C   UNL     1       5.107   5.712  16.699  0.00  0.00    +0.000 A 
ATOM     25  C   UNL     1       4.574   4.427  16.808  0.00  0.00    +0.000 A 
ATOM     26  C   UNL     1       3.345   4.243  17.432  0.00  0.00    +0.000 A 
ATOM     27  C   UNL     1       2.655   5.339  17.952  0.00  0.00    +0.000 A 
ATOM     28  F   UNL     1       1.472   5.093  18.534  0.00  0.00    +0.000 F 
ENDBRANCH  19  22
ENDBRANCH   1  21
BRANCH   3  29
ATOM     29  C   UNL     1       1.752  14.375  18.771  0.00  0.00    +0.000 A 
ATOM     30  C   UNL     1       1.083  15.298  19.590  0.00  0.00    +0.000 A 
ATOM     31  C   UNL     1       1.517  16.626  19.663  0.00  0.00    +0.000 A 
ATOM     32  C   UNL     1       2.620  17.027  18.920  0.00  0.00    +0.000 A 
ATOM     33  C   UNL     1       3.306  16.103  18.128  0.00  0.00    +0.000 A 
ATOM     34  C   UNL     1       2.880  14.772  18.056  0.00  0.00    +0.000 A 
ENDBRANCH   3  29
TORSDOF 4
ENDMDL
MODEL 8
REMARK VINA RESULT:      -8.6      6.774     10.506
REMARK  Name = 
REMARK  5 active torsions:
REMARK  status: ('A' for Active; 'I' for Inactive)
REMARK    1  A    between atoms: C_1  and  C_2
REMARK    2  A    between atoms: C_4  and  C_5
REMARK    3  A    between atoms: C_13  and  N_14
REMARK    4  A    between atoms: C_16  and  C_17
REMARK    5  A    between atoms: C_24  and  N_25
REMARK                            x       y       z     vdW  Elec       q    Type
REMARK                         _______ _______ _______ _____ _____    ______ ____
ROOT
ATOM      1  N   UNL     1       0.196  10.450  19.117  0.00  0.00    +0.000 N 
ATOM      2  N   UNL     1      -1.119  10.311  18.778  0.00  0.00    +0.000 NA
ATOM      3  C   UNL     1      -1.708  11.448  18.926  0.00  0.00    +0.000 C 
ATOM      4  C   UNL     1      -0.829  12.546  19.435  0.00  0.00    +0.000 C 
ATOM      5  C   UNL     1       0.465  11.741  19.768  0.00  0.00    +0.000 C 
ENDROOT
BRANCH   5   6
ATOM      6  N   UNL     1       1.687  12.552  19.608  0.00  0.00    +0.000 NA
ATOM      7  C   UNL     1       2.180  13.057  20.897  0.00  0.00    +0.000 C 
ATOM      8  C   UNL     1       3.383  13.971  20.705  0.00  0.00    +0.000 C 
ATOM      9  C   UNL     1       2.816  15.190  20.043  0.00  0.00    +0.000 A 
ATOM     10  C   UNL     1       2.959  16.463  20.600  0.00  0.00    +0.000 A 
ATOM     11  C   UNL     1       2.316  17.545  20.006  0.00  0.00    +0.000 A 
ATOM     12  C   UNL     1       1.595  17.361  18.824  0.00  0.00    +0.000 A 
ATOM     13  C   UNL     1       1.442  16.083  18.273  0.00  0.00    +0.000 A 
ATOM     14  C   UNL     1       1.990  14.972  18.923  0.00  0.00    +0.000 A 
ATOM     15  C   UNL     1       1.689  13.534  18.501  0.00  0.00    +0.000 C 
ENDBRANCH   5   6
BRANCH   1  21
ATOM     16  C   UNL     1       1.162   9.022  21.789  0.00  0.00    +0.000 C 
ATOM     17  C   UNL     1       1.381   8.752  20.357  0.00  0.00    +0.000 A 
ATOM     18  O   UNL     1       2.151   7.680  20.048  0.00  0.00    +0.000 OA
ATOM     19  C   UNL     1       2.186   7.675  18.680  0.00  0.00    +0.000 A 
ATOM     20  N   UNL     1       1.516   8.665  18.111  0.00  0.00    +0.000 NA
ATOM     21  C   UNL     1       0.988   9.352  19.179  0.00  0.00    +0.000 A 
BRANCH  19  22
ATOM     22  C   UNL     1       2.965   6.590  18.078  0.00  0.00    +0.000 A 
ATOM     23  C   UNL     1       2.458   5.288  18.080  0.00  0.00    +0.000 A 
ATOM     24  C   UNL     1       3.175   4.230  17.505  0.00  0.00    +0.000 A 
ATOM     25  C   UNL     1       4.421   4.467  16.923  0.00  0.00    +0.000 A 
ATOM     26  C   UNL     1       4.946   5.755  16.923  0.00  0.00    +0.000 A 
ATOM     27  C   UNL     1       4.225   6.803  17.497  0.00  0.00    +0.000 A 
ATOM     28  F   UNL     1       4.790   8.019  17.471  0.00  0.00    +0.000 F 
ENDBRANCH  19  22
ENDBRANCH   1  21
BRANCH   3  29
ATOM     29  C   UNL     1      -3.117  11.616  18.504  0.00  0.00    +0.000 A 
ATOM     30  C   UNL     1      -3.437  11.307  17.173  0.00  0.00    +0.000 A 
ATOM     31  C   UNL     1      -4.707  11.601  16.664  0.00  0.00    +0.000 A 
ATOM     32  C   UNL     1      -5.653  12.198  17.487  0.00  0.00    +0.000 A 
ATOM     33  C   UNL     1      -5.345  12.480  18.821  0.00  0.00    +0.000 A 
ATOM     34  C   UNL     1      -4.079  12.183  19.337  0.00  0.00    +0.000 A 
ENDBRANCH   3  29
TORSDOF 4
ENDMDL
MODEL 9
REMARK VINA RESULT:      -8.5      6.872     10.571
REMARK  Name = 
REMARK  5 active torsions:
REMARK  status: ('A' for Active; 'I' for Inactive)
REMARK    1  A    between atoms: C_1  and  C_2
REMARK    2  A    between atoms: C_4  and  C_5
REMARK    3  A    between atoms: C_13  and  N_14
REMARK    4  A    between atoms: C_16  and  C_17
REMARK    5  A    between atoms: C_24  and  N_25
REMARK                            x       y       z     vdW  Elec       q    Type
REMARK                         _______ _______ _______ _____ _____    ______ ____
ROOT
ATOM      1  N   UNL     1      -0.101  10.648  19.944  0.00  0.00    +0.000 N 
ATOM      2  N   UNL     1      -1.285  10.544  19.274  0.00  0.00    +0.000 NA
ATOM      3  C   UNL     1      -1.929  11.654  19.393  0.00  0.00    +0.000 C 
ATOM      4  C   UNL     1      -1.240  12.690  20.223  0.00  0.00    +0.000 C 
ATOM      5  C   UNL     1      -0.044  11.858  20.779  0.00  0.00    +0.000 C 
ENDROOT
BRANCH   5   6
ATOM      6  N   UNL     1       1.153  12.686  21.019  0.00  0.00    +0.000 NA
ATOM      7  C   UNL     1       0.806  13.990  21.602  0.00  0.00    +0.000 C 
ATOM      8  C   UNL     1       2.040  14.869  21.754  0.00  0.00    +0.000 C 
ATOM      9  C   UNL     1       2.427  15.205  20.345  0.00  0.00    +0.000 A 
ATOM     10  C   UNL     1       2.533  16.527  19.908  0.00  0.00    +0.000 A 
ATOM     11  C   UNL     1       2.782  16.783  18.562  0.00  0.00    +0.000 A 
ATOM     12  C   UNL     1       2.993  15.721  17.680  0.00  0.00    +0.000 A 
ATOM     13  C   UNL     1       2.874  14.396  18.117  0.00  0.00    +0.000 A 
ATOM     14  C   UNL     1       2.512  14.128  19.442  0.00  0.00    +0.000 A 
ATOM     15  C   UNL     1       2.160  12.725  19.936  0.00  0.00    +0.000 C 
ENDBRANCH   5   6
BRANCH   1  21
ATOM     16  C   UNL     1       0.643   9.247  22.701  0.00  0.00    +0.000 C 
ATOM     17  C   UNL     1       0.981   8.965  21.294  0.00  0.00    +0.000 A 
ATOM     18  O   UNL     1       1.776   7.892  21.060  0.00  0.00    +0.000 OA
ATOM     19  C   UNL     1       1.924   7.875  19.700  0.00  0.00    +0.000 A 
ATOM     20  N   UNL     1       1.302   8.858  19.069  0.00  0.00    +0.000 NA
ATOM     21  C   UNL     1       0.686   9.553  20.082  0.00  0.00    +0.000 A 
BRANCH  19  22
ATOM     22  C   UNL     1       2.753   6.787  19.175  0.00  0.00    +0.000 A 
ATOM     23  C   UNL     1       2.908   5.612  19.917  0.00  0.00    +0.000 A 
ATOM     24  C   UNL     1       3.688   4.551  19.439  0.00  0.00    +0.000 A 
ATOM     25  C   UNL     1       4.330   4.658  18.205  0.00  0.00    +0.000 A 
ATOM     26  C   UNL     1       4.196   5.824  17.459  0.00  0.00    +0.000 A 
ATOM     27  C   UNL     1       3.417   6.876  17.942  0.00  0.00    +0.000 A 
ATOM     28  F   UNL     1       3.335   7.975  17.178  0.00  0.00    +0.000 F 
ENDBRANCH  19  22
ENDBRANCH   1  21
BRANCH   3  29
ATOM     29  C   UNL     1      -3.194  11.864  18.653  0.00  0.00    +0.000 A 
ATOM     30  C   UNL     1      -4.295  12.350  19.375  0.00  0.00    +0.000 A 
ATOM     31  C   UNL     1      -5.560  12.412  18.780  0.00  0.00    +0.000 A 
ATOM     32  C   UNL     1      -5.720  11.992  17.466  0.00  0.00    +0.000 A 
ATOM     33  C   UNL     1      -4.619  11.536  16.737  0.00  0.00    +0.000 A 
ATOM     34  C   UNL     1      -3.351  11.477  17.324  0.00  0.00    +0.000 A 
ENDBRANCH   3  29
TORSDOF 4
ENDMDL
