MODEL 1
REMARK VINA RESULT:      -8.5      0.000      0.000
REMARK  Name = 
REMARK  3 active torsions:
REMARK  status: ('A' for Active; 'I' for Inactive)
REMARK    1  A    between atoms: C_1  and  N_2
REMARK    2  A    between atoms: N_9  and  C_10
REMARK    3  A    between atoms: C_17  and  C_18
REMARK                            x       y       z     vdW  Elec       q    Type
REMARK                         _______ _______ _______ _____ _____    ______ ____
ROOT
ATOM      1  C   UNL     1       7.162   5.115  14.244  0.00  0.00    +0.000 C 
ATOM      2  N   UNL     1       6.196   5.201  15.313  0.00  0.00    +0.000 N 
ATOM      3  C   UNL     1       5.441   6.290  15.664  0.00  0.00    +0.000 A 
ATOM      4  C   UNL     1       4.672   5.854  16.713  0.00  0.00    +0.000 A 
ATOM      5  C   UNL     1       3.714   6.529  17.461  0.00  0.00    +0.000 A 
ATOM      6  N   UNL     1       3.327   7.860  17.278  0.00  0.00    +0.000 N 
ATOM      7  C   UNL     1       2.434   8.499  18.123  0.00  0.00    +0.000 C 
ATOM      8  O   UNL     1       1.978   8.034  19.159  0.00  0.00    +0.000 OA
ATOM      9  N   UNL     1       2.073   9.747  17.625  0.00  0.00    +0.000 N 
ATOM     10  N   UNL     1       3.138   5.742  18.398  0.00  0.00    +0.000 NA
ATOM     11  C   UNL     1       3.516   4.437  18.581  0.00  0.00    +0.000 A 
ATOM     12  N   UNL     1       4.454   3.738  17.883  0.00  0.00    +0.000 NA
ATOM     13  C   UNL     1       5.026   4.496  16.925  0.00  0.00    +0.000 A 
ATOM     14  N   UNL     1       5.967   4.104  16.061  0.00  0.00    +0.000 NA
ATOM     15  H   UNL     1       3.823   8.411  16.600  0.00  0.00    +0.000 HD
ATOM     16  H   UNL     1       2.018   9.797  16.620  0.00  0.00    +0.000 HD
ENDROOT
BRANCH   9  17
ATOM     17  C   UNL     1       1.191  10.597  18.337  0.00  0.00    +0.000 A 
ATOM     18  C   UNL     1      -0.176  10.315  18.451  0.00  0.00    +0.000 A 
ATOM     19  C   UNL     1      -1.021  11.188  19.137  0.00  0.00    +0.000 A 
ATOM     20  C   UNL     1      -0.508  12.356  19.698  0.00  0.00    +0.000 A 
ATOM     21  C   UNL     1       0.853  12.639  19.591  0.00  0.00    +0.000 A 
ATOM     22  C   UNL     1       1.707  11.750  18.933  0.00  0.00    +0.000 A 
ENDBRANCH   9  17
BRANCH  11  23
ATOM     23  C   UNL     1       2.808   3.725  19.670  0.00  0.00    +0.000 A 
ATOM     24  C   UNL     1       1.412   3.856  19.838  0.00  0.00    +0.000 A 
ATOM     25  C   UNL     1       0.731   3.193  20.864  0.00  0.00    +0.000 A 
ATOM     26  C   UNL     1       1.431   2.379  21.747  0.00  0.00    +0.000 A 
ATOM     27  C   UNL     1       2.810   2.229  21.606  0.00  0.00    +0.000 A 
ATOM     28  C   UNL     1       3.486   2.895  20.580  0.00  0.00    +0.000 A 
ENDBRANCH  11  23
TORSDOF 2
ENDMDL
MODEL 2
REMARK VINA RESULT:      -8.5      0.179      1.343
REMARK  Name = 
REMARK  3 active torsions:
REMARK  status: ('A' for Active; 'I' for Inactive)
REMARK    1  A    between atoms: C_1  and  N_2
REMARK    2  A    between atoms: N_9  and  C_10
REMARK    3  A    between atoms: C_17  and  C_18
REMARK                            x       y       z     vdW  Elec       q    Type
REMARK                         _______ _______ _______ _____ _____    ______ ____
ROOT
ATOM      1  C   UNL     1       7.074   5.133  14.220  0.00  0.00    +0.000 C 
ATOM      2  N   UNL     1       6.127   5.210  15.306  0.00  0.00    +0.000 N 
ATOM      3  C   UNL     1       5.355   6.285  15.660  0.00  0.00    +0.000 A 
ATOM      4  C   UNL     1       4.617   5.845  16.730  0.00  0.00    +0.000 A 
ATOM      5  C   UNL     1       3.659   6.507  17.489  0.00  0.00    +0.000 A 
ATOM      6  N   UNL     1       3.238   7.827  17.298  0.00  0.00    +0.000 N 
ATOM      7  C   UNL     1       2.349   8.456  18.154  0.00  0.00    +0.000 C 
ATOM      8  O   UNL     1       1.924   7.993  19.203  0.00  0.00    +0.000 OA
ATOM      9  N   UNL     1       1.950   9.690  17.649  0.00  0.00    +0.000 N 
ATOM     10  N   UNL     1       3.119   5.718  18.445  0.00  0.00    +0.000 NA
ATOM     11  C   UNL     1       3.529   4.424  18.635  0.00  0.00    +0.000 A 
ATOM     12  N   UNL     1       4.469   3.738  17.927  0.00  0.00    +0.000 NA
ATOM     13  C   UNL     1       5.004   4.498  16.949  0.00  0.00    +0.000 A 
ATOM     14  N   UNL     1       5.937   4.117  16.071  0.00  0.00    +0.000 NA
ATOM     15  H   UNL     1       3.709   8.381  16.605  0.00  0.00    +0.000 HD
ATOM     16  H   UNL     1       1.875   9.727  16.644  0.00  0.00    +0.000 HD
ENDROOT
BRANCH   9  17
ATOM     17  C   UNL     1       1.063  10.528  18.369  0.00  0.00    +0.000 A 
ATOM     18  C   UNL     1       1.521  11.621  19.115  0.00  0.00    +0.000 A 
ATOM     19  C   UNL     1       0.622  12.410  19.835  0.00  0.00    +0.000 A 
ATOM     20  C   UNL     1      -0.736  12.101  19.825  0.00  0.00    +0.000 A 
ATOM     21  C   UNL     1      -1.198  11.017  19.080  0.00  0.00    +0.000 A 
ATOM     22  C   UNL     1      -0.304  10.246  18.332  0.00  0.00    +0.000 A 
ENDBRANCH   9  17
BRANCH  11  23
ATOM     23  C   UNL     1       2.859   3.709  19.746  0.00  0.00    +0.000 A 
ATOM     24  C   UNL     1       3.563   2.783  20.546  0.00  0.00    +0.000 A 
ATOM     25  C   UNL     1       2.942   2.098  21.596  0.00  0.00    +0.000 A 
ATOM     26  C   UNL     1       1.600   2.326  21.872  0.00  0.00    +0.000 A 
ATOM     27  C   UNL     1       0.878   3.235  21.100  0.00  0.00    +0.000 A 
ATOM     28  C   UNL     1       1.502   3.916  20.052  0.00  0.00    +0.000 A 
ENDBRANCH  11  23
TORSDOF 2
ENDMDL
MODEL 3
REMARK VINA RESULT:      -7.5      1.957      7.560
REMARK  Name = 
REMARK  3 active torsions:
REMARK  status: ('A' for Active; 'I' for Inactive)
REMARK    1  A    between atoms: C_1  and  N_2
REMARK    2  A    between atoms: N_9  and  C_10
REMARK    3  A    between atoms: C_17  and  C_18
REMARK                            x       y       z     vdW  Elec       q    Type
REMARK                         _______ _______ _______ _____ _____    ______ ____
ROOT
ATOM      1  C   UNL     1       2.253   1.429  22.234  0.00  0.00    +0.000 C 
ATOM      2  N   UNL     1       2.467   2.549  21.350  0.00  0.00    +0.000 N 
ATOM      3  C   UNL     1       3.218   2.571  20.204  0.00  0.00    +0.000 A 
ATOM      4  C   UNL     1       3.081   3.849  19.724  0.00  0.00    +0.000 A 
ATOM      5  C   UNL     1       3.614   4.439  18.584  0.00  0.00    +0.000 A 
ATOM      6  N   UNL     1       4.443   3.807  17.651  0.00  0.00    +0.000 N 
ATOM      7  C   UNL     1       5.018   4.482  16.588  0.00  0.00    +0.000 C 
ATOM      8  O   UNL     1       4.968   5.691  16.402  0.00  0.00    +0.000 OA
ATOM      9  N   UNL     1       5.642   3.602  15.709  0.00  0.00    +0.000 N 
ATOM     10  N   UNL     1       3.215   5.722  18.428  0.00  0.00    +0.000 NA
ATOM     11  C   UNL     1       2.403   6.345  19.340  0.00  0.00    +0.000 A 
ATOM     12  N   UNL     1       1.866   5.814  20.474  0.00  0.00    +0.000 NA
ATOM     13  C   UNL     1       2.230   4.525  20.638  0.00  0.00    +0.000 A 
ATOM     14  N   UNL     1       1.861   3.718  21.637  0.00  0.00    +0.000 NA
ATOM     15  H   UNL     1       4.746   2.869  17.845  0.00  0.00    +0.000 HD
ATOM     16  H   UNL     1       5.185   2.708  15.617  0.00  0.00    +0.000 HD
ENDROOT
BRANCH   9  17
ATOM     17  C   UNL     1       6.326   4.070  14.561  0.00  0.00    +0.000 A 
ATOM     18  C   UNL     1       7.325   5.047  14.642  0.00  0.00    +0.000 A 
ATOM     19  C   UNL     1       7.960   5.505  13.487  0.00  0.00    +0.000 A 
ATOM     20  C   UNL     1       7.589   5.001  12.243  0.00  0.00    +0.000 A 
ATOM     21  C   UNL     1       6.599   4.023  12.156  0.00  0.00    +0.000 A 
ATOM     22  C   UNL     1       5.984   3.540  13.314  0.00  0.00    +0.000 A 
ENDBRANCH   9  17
BRANCH  11  23
ATOM     23  C   UNL     1       2.086   7.759  19.036  0.00  0.00    +0.000 A 
ATOM     24  C   UNL     1       1.354   8.553  19.945  0.00  0.00    +0.000 A 
ATOM     25  C   UNL     1       1.045   9.890  19.670  0.00  0.00    +0.000 A 
ATOM     26  C   UNL     1       1.464  10.465  18.476  0.00  0.00    +0.000 A 
ATOM     27  C   UNL     1       2.189   9.707  17.559  0.00  0.00    +0.000 A 
ATOM     28  C   UNL     1       2.494   8.372  17.838  0.00  0.00    +0.000 A 
ENDBRANCH  11  23
TORSDOF 2
ENDMDL
MODEL 4
REMARK VINA RESULT:      -7.3      1.989      7.507
REMARK  Name = 
REMARK  3 active torsions:
REMARK  status: ('A' for Active; 'I' for Inactive)
REMARK    1  A    between atoms: C_1  and  N_2
REMARK    2  A    between atoms: N_9  and  C_10
REMARK    3  A    between atoms: C_17  and  C_18
REMARK                            x       y       z     vdW  Elec       q    Type
REMARK                         _______ _______ _______ _____ _____    ______ ____
ROOT
ATOM      1  C   UNL     1       2.462   1.385  22.373  0.00  0.00    +0.000 C 
ATOM      2  N   UNL     1       2.624   2.498  21.468  0.00  0.00    +0.000 N 
ATOM      3  C   UNL     1       3.331   2.517  20.295  0.00  0.00    +0.000 A 
ATOM      4  C   UNL     1       3.156   3.787  19.805  0.00  0.00    +0.000 A 
ATOM      5  C   UNL     1       3.636   4.371  18.639  0.00  0.00    +0.000 A 
ATOM      6  N   UNL     1       4.440   3.741  17.684  0.00  0.00    +0.000 N 
ATOM      7  C   UNL     1       4.964   4.412  16.592  0.00  0.00    +0.000 C 
ATOM      8  O   UNL     1       4.887   5.617  16.394  0.00  0.00    +0.000 OA
ATOM      9  N   UNL     1       5.568   3.531  15.700  0.00  0.00    +0.000 N 
ATOM     10  N   UNL     1       3.211   5.645  18.484  0.00  0.00    +0.000 NA
ATOM     11  C   UNL     1       2.424   6.267  19.419  0.00  0.00    +0.000 A 
ATOM     12  N   UNL     1       1.939   5.741  20.578  0.00  0.00    +0.000 NA
ATOM     13  C   UNL     1       2.330   4.461  20.743  0.00  0.00    +0.000 A 
ATOM     14  N   UNL     1       2.011   3.661  21.765  0.00  0.00    +0.000 NA
ATOM     15  H   UNL     1       4.765   2.810  17.876  0.00  0.00    +0.000 HD
ATOM     16  H   UNL     1       5.122   2.629  15.635  0.00  0.00    +0.000 HD
ENDROOT
BRANCH   9  17
ATOM     17  C   UNL     1       6.201   3.995  14.521  0.00  0.00    +0.000 A 
ATOM     18  C   UNL     1       5.877   3.486  13.258  0.00  0.00    +0.000 A 
ATOM     19  C   UNL     1       6.540   3.947  12.120  0.00  0.00    +0.000 A 
ATOM     20  C   UNL     1       7.542   4.908  12.240  0.00  0.00    +0.000 A 
ATOM     21  C   UNL     1       7.864   5.422  13.495  0.00  0.00    +0.000 A 
ATOM     22  C   UNL     1       7.179   4.986  14.632  0.00  0.00    +0.000 A 
ENDBRANCH   9  17
BRANCH  11  23
ATOM     23  C   UNL     1       2.074   7.673  19.110  0.00  0.00    +0.000 A 
ATOM     24  C   UNL     1       2.439   8.260  17.879  0.00  0.00    +0.000 A 
ATOM     25  C   UNL     1       2.119   9.588  17.576  0.00  0.00    +0.000 A 
ATOM     26  C   UNL     1       1.422  10.360  18.498  0.00  0.00    +0.000 A 
ATOM     27  C   UNL     1       1.047   9.807  19.721  0.00  0.00    +0.000 A 
ATOM     28  C   UNL     1       1.370   8.481  20.020  0.00  0.00    +0.000 A 
ENDBRANCH  11  23
TORSDOF 2
ENDMDL
MODEL 5
REMARK VINA RESULT:      -6.9      3.242      9.050
REMARK  Name = 
REMARK  3 active torsions:
REMARK  status: ('A' for Active; 'I' for Inactive)
REMARK    1  A    between atoms: C_1  and  N_2
REMARK    2  A    between atoms: N_9  and  C_10
REMARK    3  A    between atoms: C_17  and  C_18
REMARK                            x       y       z     vdW  Elec       q    Type
REMARK                         _______ _______ _______ _____ _____    ______ ____
ROOT
ATOM      1  C   UNL     1      -0.984  13.489  23.278  0.00  0.00    +0.000 C 
ATOM      2  N   UNL     1      -1.016  12.738  22.046  0.00  0.00    +0.000 N 
ATOM      3  C   UNL     1      -0.164  11.736  21.663  0.00  0.00    +0.000 A 
ATOM      4  C   UNL     1      -0.629  11.336  20.435  0.00  0.00    +0.000 A 
ATOM      5  C   UNL     1      -0.160  10.346  19.580  0.00  0.00    +0.000 A 
ATOM      6  N   UNL     1       0.941   9.517  19.819  0.00  0.00    +0.000 N 
ATOM      7  C   UNL     1       1.412   8.616  18.879  0.00  0.00    +0.000 C 
ATOM      8  O   UNL     1       1.012   8.515  17.727  0.00  0.00    +0.000 OA
ATOM      9  N   UNL     1       2.390   7.787  19.421  0.00  0.00    +0.000 N 
ATOM     10  N   UNL     1      -0.915  10.224  18.464  0.00  0.00    +0.000 NA
ATOM     11  C   UNL     1      -1.994  11.035  18.226  0.00  0.00    +0.000 A 
ATOM     12  N   UNL     1      -2.483  12.023  19.026  0.00  0.00    +0.000 NA
ATOM     13  C   UNL     1      -1.760  12.147  20.158  0.00  0.00    +0.000 A 
ATOM     14  N   UNL     1      -1.988  13.010  21.153  0.00  0.00    +0.000 NA
ATOM     15  H   UNL     1       1.493   9.686  20.640  0.00  0.00    +0.000 HD
ATOM     16  H   UNL     1       2.251   7.555  20.392  0.00  0.00    +0.000 HD
ENDROOT
BRANCH   9  17
ATOM     17  C   UNL     1       3.040   6.804  18.635  0.00  0.00    +0.000 A 
ATOM     18  C   UNL     1       4.079   7.129  17.755  0.00  0.00    +0.000 A 
ATOM     19  C   UNL     1       4.679   6.139  16.975  0.00  0.00    +0.000 A 
ATOM     20  C   UNL     1       4.233   4.822  17.058  0.00  0.00    +0.000 A 
ATOM     21  C   UNL     1       3.202   4.492  17.937  0.00  0.00    +0.000 A 
ATOM     22  C   UNL     1       2.621   5.475  18.742  0.00  0.00    +0.000 A 
ENDBRANCH   9  17
BRANCH  11  23
ATOM     23  C   UNL     1      -2.693  10.790  16.943  0.00  0.00    +0.000 A 
ATOM     24  C   UNL     1      -2.166   9.895  15.987  0.00  0.00    +0.000 A 
ATOM     25  C   UNL     1      -2.813   9.656  14.770  0.00  0.00    +0.000 A 
ATOM     26  C   UNL     1      -4.006  10.308  14.481  0.00  0.00    +0.000 A 
ATOM     27  C   UNL     1      -4.552  11.197  15.406  0.00  0.00    +0.000 A 
ATOM     28  C   UNL     1      -3.901  11.432  16.620  0.00  0.00    +0.000 A 
ENDBRANCH  11  23
TORSDOF 2
ENDMDL
MODEL 6
REMARK VINA RESULT:      -6.9      5.049      8.386
REMARK  Name = 
REMARK  3 active torsions:
REMARK  status: ('A' for Active; 'I' for Inactive)
REMARK    1  A    between atoms: C_1  and  N_2
REMARK    2  A    between atoms: N_9  and  C_10
REMARK    3  A    between atoms: C_17  and  C_18
REMARK                            x       y       z     vdW  Elec       q    Type
REMARK                         _______ _______ _______ _____ _____    ______ ____
ROOT
ATOM      1  C   UNL     1       1.973  17.355  18.558  0.00  0.00    +0.000 C 
ATOM      2  N   UNL     1       1.502  16.002  18.732  0.00  0.00    +0.000 N 
ATOM      3  C   UNL     1       0.214  15.594  18.957  0.00  0.00    +0.000 A 
ATOM      4  C   UNL     1       0.290  14.226  19.025  0.00  0.00    +0.000 A 
ATOM      5  C   UNL     1      -0.711  13.283  19.227  0.00  0.00    +0.000 A 
ATOM      6  N   UNL     1      -2.069  13.563  19.412  0.00  0.00    +0.000 N 
ATOM      7  C   UNL     1      -2.999  12.580  19.705  0.00  0.00    +0.000 C 
ATOM      8  O   UNL     1      -2.743  11.407  19.942  0.00  0.00    +0.000 OA
ATOM      9  N   UNL     1      -4.296  13.081  19.657  0.00  0.00    +0.000 N 
ATOM     10  N   UNL     1      -0.244  12.014  19.191  0.00  0.00    +0.000 NA
ATOM     11  C   UNL     1       1.086  11.736  19.011  0.00  0.00    +0.000 A 
ATOM     12  N   UNL     1       2.102  12.623  18.821  0.00  0.00    +0.000 NA
ATOM     13  C   UNL     1       1.656  13.896  18.828  0.00  0.00    +0.000 A 
ATOM     14  N   UNL     1       2.395  14.996  18.653  0.00  0.00    +0.000 NA
ATOM     15  H   UNL     1      -2.351  14.525  19.478  0.00  0.00    +0.000 HD
ATOM     16  H   UNL     1      -4.444  13.795  18.961  0.00  0.00    +0.000 HD
ENDROOT
BRANCH   9  17
ATOM     17  C   UNL     1      -5.413  12.262  19.953  0.00  0.00    +0.000 A 
ATOM     18  C   UNL     1      -5.872  11.287  19.059  0.00  0.00    +0.000 A 
ATOM     19  C   UNL     1      -6.994  10.517  19.371  0.00  0.00    +0.000 A 
ATOM     20  C   UNL     1      -7.671  10.727  20.570  0.00  0.00    +0.000 A 
ATOM     21  C   UNL     1      -7.215  11.693  21.465  0.00  0.00    +0.000 A 
ATOM     22  C   UNL     1      -6.074  12.444  21.170  0.00  0.00    +0.000 A 
ENDBRANCH   9  17
BRANCH  11  23
ATOM     23  C   UNL     1       1.435  10.297  19.030  0.00  0.00    +0.000 A 
ATOM     24  C   UNL     1       1.237   9.515  20.189  0.00  0.00    +0.000 A 
ATOM     25  C   UNL     1       1.565   8.155  20.222  0.00  0.00    +0.000 A 
ATOM     26  C   UNL     1       2.098   7.544  19.094  0.00  0.00    +0.000 A 
ATOM     27  C   UNL     1       2.304   8.290  17.934  0.00  0.00    +0.000 A 
ATOM     28  C   UNL     1       1.976   9.648  17.906  0.00  0.00    +0.000 A 
ENDBRANCH  11  23
TORSDOF 2
ENDMDL
MODEL 7
REMARK VINA RESULT:      -6.9      1.588      4.875
REMARK  Name = 
REMARK  3 active torsions:
REMARK  status: ('A' for Active; 'I' for Inactive)
REMARK    1  A    between atoms: C_1  and  N_2
REMARK    2  A    between atoms: N_9  and  C_10
REMARK    3  A    between atoms: C_17  and  C_18
REMARK                            x       y       z     vdW  Elec       q    Type
REMARK                         _______ _______ _______ _____ _____    ______ ____
ROOT
ATOM      1  C   UNL     1       1.344   2.228  22.308  0.00  0.00    +0.000 C 
ATOM      2  N   UNL     1       1.839   3.095  21.266  0.00  0.00    +0.000 N 
ATOM      3  C   UNL     1       1.560   4.425  21.089  0.00  0.00    +0.000 A 
ATOM      4  C   UNL     1       2.287   4.789  19.984  0.00  0.00    +0.000 A 
ATOM      5  C   UNL     1       2.397   6.021  19.351  0.00  0.00    +0.000 A 
ATOM      6  N   UNL     1       1.749   7.198  19.740  0.00  0.00    +0.000 N 
ATOM      7  C   UNL     1       1.828   8.369  19.006  0.00  0.00    +0.000 C 
ATOM      8  O   UNL     1       2.358   8.487  17.909  0.00  0.00    +0.000 OA
ATOM      9  N   UNL     1       1.256   9.435  19.693  0.00  0.00    +0.000 N 
ATOM     10  N   UNL     1       3.250   5.991  18.301  0.00  0.00    +0.000 NA
ATOM     11  C   UNL     1       3.886   4.839  17.916  0.00  0.00    +0.000 A 
ATOM     12  N   UNL     1       3.801   3.610  18.496  0.00  0.00    +0.000 NA
ATOM     13  C   UNL     1       2.974   3.620  19.562  0.00  0.00    +0.000 A 
ATOM     14  N   UNL     1       2.689   2.582  20.354  0.00  0.00    +0.000 NA
ATOM     15  H   UNL     1       1.090   7.149  20.496  0.00  0.00    +0.000 HD
ATOM     16  H   UNL     1       1.372   9.399  20.694  0.00  0.00    +0.000 HD
ENDROOT
BRANCH   9  17
ATOM     17  C   UNL     1       1.194  10.730  19.123  0.00  0.00    +0.000 A 
ATOM     18  C   UNL     1       2.330  11.370  18.614  0.00  0.00    +0.000 A 
ATOM     19  C   UNL     1       2.237  12.658  18.084  0.00  0.00    +0.000 A 
ATOM     20  C   UNL     1       1.011  13.319  18.075  0.00  0.00    +0.000 A 
ATOM     21  C   UNL     1      -0.125  12.685  18.575  0.00  0.00    +0.000 A 
ATOM     22  C   UNL     1      -0.041  11.383  19.077  0.00  0.00    +0.000 A 
ENDBRANCH   9  17
BRANCH  11  23
ATOM     23  C   UNL     1       4.761   4.972  16.729  0.00  0.00    +0.000 A 
ATOM     24  C   UNL     1       5.035   6.237  16.164  0.00  0.00    +0.000 A 
ATOM     25  C   UNL     1       5.856   6.378  15.041  0.00  0.00    +0.000 A 
ATOM     26  C   UNL     1       6.426   5.254  14.455  0.00  0.00    +0.000 A 
ATOM     27  C   UNL     1       6.175   3.991  14.990  0.00  0.00    +0.000 A 
ATOM     28  C   UNL     1       5.353   3.856  16.112  0.00  0.00    +0.000 A 
ENDBRANCH  11  23
TORSDOF 2
ENDMDL
MODEL 8
REMARK VINA RESULT:      -6.8      3.936      5.206
REMARK  Name = 
REMARK  3 active torsions:
REMARK  status: ('A' for Active; 'I' for Inactive)
REMARK    1  A    between atoms: C_1  and  N_2
REMARK    2  A    between atoms: N_9  and  C_10
REMARK    3  A    between atoms: C_17  and  C_18
REMARK                            x       y       z     vdW  Elec       q    Type
REMARK                         _______ _______ _______ _____ _____    ______ ____
ROOT
ATOM      1  C   UNL     1       6.847   3.414  12.365  0.00  0.00    +0.000 C 
ATOM      2  N   UNL     1       6.497   4.001  13.636  0.00  0.00    +0.000 N 
ATOM      3  C   UNL     1       7.079   5.086  14.237  0.00  0.00    +0.000 A 
ATOM      4  C   UNL     1       6.376   5.254  15.403  0.00  0.00    +0.000 A 
ATOM      5  C   UNL     1       6.521   6.206  16.406  0.00  0.00    +0.000 A 
ATOM      6  N   UNL     1       7.467   7.235  16.422  0.00  0.00    +0.000 N 
ATOM      7  C   UNL     1       7.619   8.091  17.500  0.00  0.00    +0.000 C 
ATOM      8  O   UNL     1       7.046   7.987  18.576  0.00  0.00    +0.000 OA
ATOM      9  N   UNL     1       8.489   9.134  17.198  0.00  0.00    +0.000 N 
ATOM     10  N   UNL     1       5.604   6.066  17.390  0.00  0.00    +0.000 NA
ATOM     11  C   UNL     1       4.675   5.058  17.379  0.00  0.00    +0.000 A 
ATOM     12  N   UNL     1       4.502   4.099  16.428  0.00  0.00    +0.000 NA
ATOM     13  C   UNL     1       5.390   4.233  15.421  0.00  0.00    +0.000 A 
ATOM     14  N   UNL     1       5.476   3.464  14.331  0.00  0.00    +0.000 NA
ATOM     15  H   UNL     1       8.154   7.260  15.689  0.00  0.00    +0.000 HD
ATOM     16  H   UNL     1       8.450   9.448  16.241  0.00  0.00    +0.000 HD
ENDROOT
BRANCH   9  17
ATOM     17  C   UNL     1       8.821  10.118  18.161  0.00  0.00    +0.000 A 
ATOM     18  C   UNL     1       8.724  11.487  17.884  0.00  0.00    +0.000 A 
ATOM     19  C   UNL     1       9.085  12.429  18.848  0.00  0.00    +0.000 A 
ATOM     20  C   UNL     1       9.562  12.009  20.087  0.00  0.00    +0.000 A 
ATOM     21  C   UNL     1       9.657  10.647  20.370  0.00  0.00    +0.000 A 
ATOM     22  C   UNL     1       9.264   9.702  19.419  0.00  0.00    +0.000 A 
ENDBRANCH   9  17
BRANCH  11  23
ATOM     23  C   UNL     1       3.766   5.028  18.548  0.00  0.00    +0.000 A 
ATOM     24  C   UNL     1       3.591   3.849  19.305  0.00  0.00    +0.000 A 
ATOM     25  C   UNL     1       2.733   3.805  20.409  0.00  0.00    +0.000 A 
ATOM     26  C   UNL     1       2.029   4.943  20.783  0.00  0.00    +0.000 A 
ATOM     27  C   UNL     1       2.181   6.123  20.056  0.00  0.00    +0.000 A 
ATOM     28  C   UNL     1       3.038   6.161  18.953  0.00  0.00    +0.000 A 
ENDBRANCH  11  23
TORSDOF 2
ENDMDL
MODEL 9
REMARK VINA RESULT:      -6.7      2.650      8.391
REMARK  Name = 
REMARK  3 active torsions:
REMARK  status: ('A' for Active; 'I' for Inactive)
REMARK    1  A    between atoms: C_1  and  N_2
REMARK    2  A    between atoms: N_9  and  C_10
REMARK    3  A    between atoms: C_17  and  C_18
REMARK                            x       y       z     vdW  Elec       q    Type
REMARK                         _______ _______ _______ _____ _____    ______ ____
ROOT
ATOM      1  C   UNL     1       3.514  15.679  18.937  0.00  0.00    +0.000 C 
ATOM      2  N   UNL     1       2.629  14.553  18.755  0.00  0.00    +0.000 N 
ATOM      3  C   UNL     1       2.981  13.239  18.593  0.00  0.00    +0.000 A 
ATOM      4  C   UNL     1       1.787  12.571  18.485  0.00  0.00    +0.000 A 
ATOM      5  C   UNL     1       1.532  11.215  18.316  0.00  0.00    +0.000 A 
ATOM      6  N   UNL     1       2.500  10.211  18.217  0.00  0.00    +0.000 N 
ATOM      7  C   UNL     1       2.178   8.890  17.952  0.00  0.00    +0.000 C 
ATOM      8  O   UNL     1       1.063   8.473  17.670  0.00  0.00    +0.000 OA
ATOM      9  N   UNL     1       3.289   8.063  18.088  0.00  0.00    +0.000 N 
ATOM     10  N   UNL     1       0.210  10.935  18.291  0.00  0.00    +0.000 NA
ATOM     11  C   UNL     1      -0.742  11.918  18.386  0.00  0.00    +0.000 A 
ATOM     12  N   UNL     1      -0.541  13.256  18.541  0.00  0.00    +0.000 NA
ATOM     13  C   UNL     1       0.772  13.557  18.594  0.00  0.00    +0.000 A 
ATOM     14  N   UNL     1       1.300  14.774  18.755  0.00  0.00    +0.000 NA
ATOM     15  H   UNL     1       3.467  10.483  18.193  0.00  0.00    +0.000 HD
ATOM     16  H   UNL     1       3.934   8.343  18.810  0.00  0.00    +0.000 HD
ENDROOT
BRANCH   9  17
ATOM     17  C   UNL     1       3.206   6.671  17.835  0.00  0.00    +0.000 A 
ATOM     18  C   UNL     1       2.115   5.906  18.265  0.00  0.00    +0.000 A 
ATOM     19  C   UNL     1       2.079   4.532  18.023  0.00  0.00    +0.000 A 
ATOM     20  C   UNL     1       3.139   3.913  17.365  0.00  0.00    +0.000 A 
ATOM     21  C   UNL     1       4.225   4.672  16.931  0.00  0.00    +0.000 A 
ATOM     22  C   UNL     1       4.249   6.053  17.143  0.00  0.00    +0.000 A 
ENDBRANCH   9  17
BRANCH  11  23
ATOM     23  C   UNL     1      -2.143  11.444  18.310  0.00  0.00    +0.000 A 
ATOM     24  C   UNL     1      -2.478  10.273  17.594  0.00  0.00    +0.000 A 
ATOM     25  C   UNL     1      -3.797   9.816  17.510  0.00  0.00    +0.000 A 
ATOM     26  C   UNL     1      -4.815  10.520  18.142  0.00  0.00    +0.000 A 
ATOM     27  C   UNL     1      -4.516  11.679  18.857  0.00  0.00    +0.000 A 
ATOM     28  C   UNL     1      -3.196  12.132  18.937  0.00  0.00    +0.000 A 
ENDBRANCH  11  23
TORSDOF 2
ENDMDL
