MODEL 1
REMARK VINA RESULT:      -9.2      0.000      0.000
REMARK  Name = 
REMARK  4 active torsions:
REMARK  status: ('A' for Active; 'I' for Inactive)
REMARK    1  A    between atoms: C_1  and  O_2
REMARK    2  A    between atoms: O_2  and  C_3
REMARK    3  A    between atoms: C_13  and  C_14
REMARK    4  A    between atoms: C_17  and  C_18
REMARK                            x       y       z     vdW  Elec       q    Type
REMARK                         _______ _______ _______ _____ _____    ______ ____
ROOT
ATOM      1  C   UNL     1       1.896   2.755  19.369  0.00  0.00    +0.000 A 
ATOM      2  C   UNL     1       2.590   1.613  18.990  0.00  0.00    +0.000 A 
ATOM      3  C   UNL     1       3.637   1.685  18.064  0.00  0.00    +0.000 A 
ATOM      4  C   UNL     1       3.993   2.944  17.567  0.00  0.00    +0.000 A 
ATOM      5  N   UNL     1       4.972   3.278  16.662  0.00  0.00    +0.000 N 
ATOM      6  C   UNL     1       4.981   4.625  16.476  0.00  0.00    +0.000 A 
ATOM      7  C   UNL     1       5.834   5.351  15.588  0.00  0.00    +0.000 A 
ATOM      8  O   UNL     1       6.696   4.842  14.881  0.00  0.00    +0.000 OA
ATOM      9  N   UNL     1       5.580   6.710  15.603  0.00  0.00    +0.000 N 
ATOM     10  N   UNL     1       4.672   7.358  16.420  0.00  0.00    +0.000 NA
ATOM     11  C   UNL     1       3.925   6.668  17.253  0.00  0.00    +0.000 A 
ATOM     12  C   UNL     1       4.024   5.210  17.280  0.00  0.00    +0.000 A 
ATOM     13  C   UNL     1       3.343   4.129  17.940  0.00  0.00    +0.000 A 
ATOM     14  C   UNL     1       2.247   4.000  18.824  0.00  0.00    +0.000 A 
ATOM     15  H   UNL     1       5.592   2.629  16.195  0.00  0.00    +0.000 HD
ATOM     16  H   UNL     1       6.149   7.299  15.006  0.00  0.00    +0.000 HD
ENDROOT
BRANCH  11  17
ATOM     17  C   UNL     1       3.027   7.436  18.158  0.00  0.00    +0.000 A 
ATOM     18  C   UNL     1       2.824   6.968  19.465  0.00  0.00    +0.000 A 
ATOM     19  C   UNL     1       1.910   7.603  20.313  0.00  0.00    +0.000 A 
ATOM     20  C   UNL     1       1.193   8.725  19.872  0.00  0.00    +0.000 A 
ATOM     21  C   UNL     1       1.412   9.198  18.570  0.00  0.00    +0.000 A 
ATOM     22  C   UNL     1       2.287   8.531  17.707  0.00  0.00    +0.000 A 
BRANCH  20  23
ATOM     23  C   UNL     1       0.162   9.395  20.748  0.00  0.00    +0.000 C 
ATOM     24  F   UNL     1      -0.543   8.527  21.524  0.00  0.00    +0.000 F 
ATOM     25  F   UNL     1       0.707  10.305  21.600  0.00  0.00    +0.000 F 
ATOM     26  F   UNL     1      -0.766  10.077  20.018  0.00  0.00    +0.000 F 
ENDBRANCH  20  23
ENDBRANCH  11  17
BRANCH   1  28
ATOM     27  C   UNL     1       1.206   2.811  21.647  0.00  0.00    +0.000 C 
ATOM     28  O   UNL     1       0.863   2.809  20.267  0.00  0.00    +0.000 OA
ENDBRANCH   1  28
TORSDOF 3
ENDMDL
MODEL 2
REMARK VINA RESULT:      -9.0      2.266      4.412
REMARK  Name = 
REMARK  4 active torsions:
REMARK  status: ('A' for Active; 'I' for Inactive)
REMARK    1  A    between atoms: C_1  and  O_2
REMARK    2  A    between atoms: O_2  and  C_3
REMARK    3  A    between atoms: C_13  and  C_14
REMARK    4  A    between atoms: C_17  and  C_18
REMARK                            x       y       z     vdW  Elec       q    Type
REMARK                         _______ _______ _______ _____ _____    ______ ____
ROOT
ATOM      1  C   UNL     1       6.759   6.935  17.150  0.00  0.00    +0.000 A 
ATOM      2  C   UNL     1       7.468   5.845  16.661  0.00  0.00    +0.000 A 
ATOM      3  C   UNL     1       6.972   4.545  16.805  0.00  0.00    +0.000 A 
ATOM      4  C   UNL     1       5.723   4.378  17.415  0.00  0.00    +0.000 A 
ATOM      5  N   UNL     1       5.025   3.222  17.670  0.00  0.00    +0.000 N 
ATOM      6  C   UNL     1       3.842   3.525  18.267  0.00  0.00    +0.000 A 
ATOM      7  C   UNL     1       2.857   2.591  18.714  0.00  0.00    +0.000 A 
ATOM      8  O   UNL     1       2.947   1.374  18.597  0.00  0.00    +0.000 OA
ATOM      9  N   UNL     1       1.773   3.210  19.308  0.00  0.00    +0.000 N 
ATOM     10  N   UNL     1       1.574   4.575  19.416  0.00  0.00    +0.000 NA
ATOM     11  C   UNL     1       2.482   5.410  18.964  0.00  0.00    +0.000 A 
ATOM     12  C   UNL     1       3.723   4.895  18.389  0.00  0.00    +0.000 A 
ATOM     13  C   UNL     1       4.956   5.447  17.898  0.00  0.00    +0.000 A 
ATOM     14  C   UNL     1       5.528   6.736  17.794  0.00  0.00    +0.000 A 
ATOM     15  H   UNL     1       5.338   2.283  17.457  0.00  0.00    +0.000 HD
ATOM     16  H   UNL     1       1.023   2.618  19.646  0.00  0.00    +0.000 HD
ENDROOT
BRANCH  11  17
ATOM     17  C   UNL     1       2.167   6.864  19.040  0.00  0.00    +0.000 A 
ATOM     18  C   UNL     1       1.772   7.406  20.271  0.00  0.00    +0.000 A 
ATOM     19  C   UNL     1       1.369   8.742  20.363  0.00  0.00    +0.000 A 
ATOM     20  C   UNL     1       1.367   9.563  19.225  0.00  0.00    +0.000 A 
ATOM     21  C   UNL     1       1.778   9.020  18.000  0.00  0.00    +0.000 A 
ATOM     22  C   UNL     1       2.130   7.671  17.901  0.00  0.00    +0.000 A 
BRANCH  20  23
ATOM     23  C   UNL     1       0.885  10.993  19.286  0.00  0.00    +0.000 C 
ATOM     24  F   UNL     1      -0.446  11.132  19.037  0.00  0.00    +0.000 F 
ATOM     25  F   UNL     1       1.103  11.570  20.499  0.00  0.00    +0.000 F 
ATOM     26  F   UNL     1       1.519  11.786  18.376  0.00  0.00    +0.000 F 
ENDBRANCH  20  23
ENDBRANCH  11  17
BRANCH   1  28
ATOM     27  C   UNL     1       8.162   8.684  17.949  0.00  0.00    +0.000 C 
ATOM     28  O   UNL     1       7.139   8.248  17.063  0.00  0.00    +0.000 OA
ENDBRANCH   1  28
TORSDOF 3
ENDMDL
MODEL 3
REMARK VINA RESULT:      -8.9      0.658      1.393
REMARK  Name = 
REMARK  4 active torsions:
REMARK  status: ('A' for Active; 'I' for Inactive)
REMARK    1  A    between atoms: C_1  and  O_2
REMARK    2  A    between atoms: O_2  and  C_3
REMARK    3  A    between atoms: C_13  and  C_14
REMARK    4  A    between atoms: C_17  and  C_18
REMARK                            x       y       z     vdW  Elec       q    Type
REMARK                         _______ _______ _______ _____ _____    ______ ____
ROOT
ATOM      1  C   UNL     1       1.820   2.621  18.751  0.00  0.00    +0.000 A 
ATOM      2  C   UNL     1       2.575   1.494  18.448  0.00  0.00    +0.000 A 
ATOM      3  C   UNL     1       3.787   1.608  17.759  0.00  0.00    +0.000 A 
ATOM      4  C   UNL     1       4.239   2.891  17.423  0.00  0.00    +0.000 A 
ATOM      5  N   UNL     1       5.381   3.265  16.757  0.00  0.00    +0.000 N 
ATOM      6  C   UNL     1       5.429   4.621  16.660  0.00  0.00    +0.000 A 
ATOM      7  C   UNL     1       6.444   5.387  16.009  0.00  0.00    +0.000 A 
ATOM      8  O   UNL     1       7.431   4.910  15.460  0.00  0.00    +0.000 OA
ATOM      9  N   UNL     1       6.195   6.746  16.058  0.00  0.00    +0.000 N 
ATOM     10  N   UNL     1       5.141   7.355  16.714  0.00  0.00    +0.000 NA
ATOM     11  C   UNL     1       4.240   6.627  17.334  0.00  0.00    +0.000 A 
ATOM     12  C   UNL     1       4.329   5.168  17.290  0.00  0.00    +0.000 A 
ATOM     13  C   UNL     1       3.528   4.059  17.731  0.00  0.00    +0.000 A 
ATOM     14  C   UNL     1       2.276   3.892  18.366  0.00  0.00    +0.000 A 
ATOM     15  H   UNL     1       6.082   2.637  16.385  0.00  0.00    +0.000 HD
ATOM     16  H   UNL     1       6.873   7.362  15.626  0.00  0.00    +0.000 HD
ENDROOT
BRANCH  11  17
ATOM     17  C   UNL     1       3.179   7.351  18.086  0.00  0.00    +0.000 A 
ATOM     18  C   UNL     1       2.604   8.494  17.512  0.00  0.00    +0.000 A 
ATOM     19  C   UNL     1       1.678   9.261  18.228  0.00  0.00    +0.000 A 
ATOM     20  C   UNL     1       1.304   8.890  19.528  0.00  0.00    +0.000 A 
ATOM     21  C   UNL     1       1.870   7.738  20.091  0.00  0.00    +0.000 A 
ATOM     22  C   UNL     1       2.833   7.003  19.394  0.00  0.00    +0.000 A 
BRANCH  20  23
ATOM     23  C   UNL     1       0.349   9.730  20.342  0.00  0.00    +0.000 C 
ATOM     24  F   UNL     1       0.713  11.038  20.432  0.00  0.00    +0.000 F 
ATOM     25  F   UNL     1      -0.916   9.724  19.839  0.00  0.00    +0.000 F 
ATOM     26  F   UNL     1       0.242   9.285  21.626  0.00  0.00    +0.000 F 
ENDBRANCH  20  23
ENDBRANCH  11  17
BRANCH   1  28
ATOM     27  C   UNL     1       0.534   3.488  20.557  0.00  0.00    +0.000 C 
ATOM     28  O   UNL     1       0.627   2.635  19.423  0.00  0.00    +0.000 OA
ENDBRANCH   1  28
TORSDOF 3
ENDMDL
MODEL 4
REMARK VINA RESULT:      -8.7      2.330      4.529
REMARK  Name = 
REMARK  4 active torsions:
REMARK  status: ('A' for Active; 'I' for Inactive)
REMARK    1  A    between atoms: C_1  and  O_2
REMARK    2  A    between atoms: O_2  and  C_3
REMARK    3  A    between atoms: C_13  and  C_14
REMARK    4  A    between atoms: C_17  and  C_18
REMARK                            x       y       z     vdW  Elec       q    Type
REMARK                         _______ _______ _______ _____ _____    ______ ____
ROOT
ATOM      1  C   UNL     1       6.684   7.037  17.196  0.00  0.00    +0.000 A 
ATOM      2  C   UNL     1       7.454   5.976  16.735  0.00  0.00    +0.000 A 
ATOM      3  C   UNL     1       7.008   4.657  16.870  0.00  0.00    +0.000 A 
ATOM      4  C   UNL     1       5.748   4.440  17.442  0.00  0.00    +0.000 A 
ATOM      5  N   UNL     1       5.092   3.256  17.681  0.00  0.00    +0.000 N 
ATOM      6  C   UNL     1       3.879   3.512  18.240  0.00  0.00    +0.000 A 
ATOM      7  C   UNL     1       2.919   2.540  18.661  0.00  0.00    +0.000 A 
ATOM      8  O   UNL     1       3.064   1.328  18.552  0.00  0.00    +0.000 OA
ATOM      9  N   UNL     1       1.793   3.116  19.218  0.00  0.00    +0.000 N 
ATOM     10  N   UNL     1       1.535   4.471  19.312  0.00  0.00    +0.000 NA
ATOM     11  C   UNL     1       2.421   5.342  18.885  0.00  0.00    +0.000 A 
ATOM     12  C   UNL     1       3.699   4.876  18.352  0.00  0.00    +0.000 A 
ATOM     13  C   UNL     1       4.923   5.478  17.896  0.00  0.00    +0.000 A 
ATOM     14  C   UNL     1       5.443   6.789  17.803  0.00  0.00    +0.000 A 
ATOM     15  H   UNL     1       5.450   2.331  17.482  0.00  0.00    +0.000 HD
ATOM     16  H   UNL     1       1.058   2.494  19.535  0.00  0.00    +0.000 HD
ENDROOT
BRANCH  11  17
ATOM     17  C   UNL     1       2.043   6.781  18.944  0.00  0.00    +0.000 A 
ATOM     18  C   UNL     1       2.078   7.537  17.763  0.00  0.00    +0.000 A 
ATOM     19  C   UNL     1       1.830   8.914  17.793  0.00  0.00    +0.000 A 
ATOM     20  C   UNL     1       1.531   9.555  19.005  0.00  0.00    +0.000 A 
ATOM     21  C   UNL     1       1.482   8.791  20.179  0.00  0.00    +0.000 A 
ATOM     22  C   UNL     1       1.782   7.426  20.155  0.00  0.00    +0.000 A 
BRANCH  20  23
ATOM     23  C   UNL     1       1.313  11.048  19.073  0.00  0.00    +0.000 C 
ATOM     24  F   UNL     1       1.393  11.554  20.334  0.00  0.00    +0.000 F 
ATOM     25  F   UNL     1       2.214  11.745  18.329  0.00  0.00    +0.000 F 
ATOM     26  F   UNL     1       0.084  11.408  18.606  0.00  0.00    +0.000 F 
ENDBRANCH  20  23
ENDBRANCH  11  17
BRANCH   1  28
ATOM     27  C   UNL     1       8.116   8.806  17.895  0.00  0.00    +0.000 C 
ATOM     28  O   UNL     1       7.012   8.364  17.114  0.00  0.00    +0.000 OA
ENDBRANCH   1  28
TORSDOF 3
ENDMDL
MODEL 5
REMARK VINA RESULT:      -8.1      1.223      1.650
REMARK  Name = 
REMARK  4 active torsions:
REMARK  status: ('A' for Active; 'I' for Inactive)
REMARK    1  A    between atoms: C_1  and  O_2
REMARK    2  A    between atoms: O_2  and  C_3
REMARK    3  A    between atoms: C_13  and  C_14
REMARK    4  A    between atoms: C_17  and  C_18
REMARK                            x       y       z     vdW  Elec       q    Type
REMARK                         _______ _______ _______ _____ _____    ______ ____
ROOT
ATOM      1  C   UNL     1       2.452   3.272  20.650  0.00  0.00    +0.000 A 
ATOM      2  C   UNL     1       3.386   2.244  20.681  0.00  0.00    +0.000 A 
ATOM      3  C   UNL     1       4.532   2.293  19.881  0.00  0.00    +0.000 A 
ATOM      4  C   UNL     1       4.734   3.427  19.084  0.00  0.00    +0.000 A 
ATOM      5  N   UNL     1       5.766   3.714  18.223  0.00  0.00    +0.000 N 
ATOM      6  C   UNL     1       5.566   4.937  17.663  0.00  0.00    +0.000 A 
ATOM      7  C   UNL     1       6.403   5.571  16.694  0.00  0.00    +0.000 A 
ATOM      8  O   UNL     1       7.440   5.091  16.250  0.00  0.00    +0.000 OA
ATOM      9  N   UNL     1       5.915   6.802  16.298  0.00  0.00    +0.000 N 
ATOM     10  N   UNL     1       4.793   7.433  16.803  0.00  0.00    +0.000 NA
ATOM     11  C   UNL     1       4.061   6.840  17.719  0.00  0.00    +0.000 A 
ATOM     12  C   UNL     1       4.409   5.494  18.170  0.00  0.00    +0.000 A 
ATOM     13  C   UNL     1       3.836   4.502  19.039  0.00  0.00    +0.000 A 
ATOM     14  C   UNL     1       2.658   4.378  19.810  0.00  0.00    +0.000 A 
ATOM     15  H   UNL     1       6.554   3.112  18.024  0.00  0.00    +0.000 HD
ATOM     16  H   UNL     1       6.456   7.323  15.617  0.00  0.00    +0.000 HD
ENDROOT
BRANCH  11  17
ATOM     17  C   UNL     1       2.914   7.610  18.276  0.00  0.00    +0.000 A 
ATOM     18  C   UNL     1       2.308   8.591  17.478  0.00  0.00    +0.000 A 
ATOM     19  C   UNL     1       1.296   9.405  17.998  0.00  0.00    +0.000 A 
ATOM     20  C   UNL     1       0.865   9.243  19.323  0.00  0.00    +0.000 A 
ATOM     21  C   UNL     1       1.464   8.250  20.111  0.00  0.00    +0.000 A 
ATOM     22  C   UNL     1       2.510   7.473  19.606  0.00  0.00    +0.000 A 
BRANCH  20  23
ATOM     23  C   UNL     1      -0.187  10.143  19.925  0.00  0.00    +0.000 C 
ATOM     24  F   UNL     1      -1.294  10.287  19.147  0.00  0.00    +0.000 F 
ATOM     25  F   UNL     1      -0.631   9.699  21.133  0.00  0.00    +0.000 F 
ATOM     26  F   UNL     1       0.281  11.405  20.141  0.00  0.00    +0.000 F 
ENDBRANCH  20  23
ENDBRANCH  11  17
BRANCH   1  28
ATOM     27  C   UNL     1       1.094   2.314  22.355  0.00  0.00    +0.000 C 
ATOM     28  O   UNL     1       1.300   3.337  21.388  0.00  0.00    +0.000 OA
ENDBRANCH   1  28
TORSDOF 3
ENDMDL
MODEL 6
REMARK VINA RESULT:      -8.1      5.471      8.659
REMARK  Name = 
REMARK  4 active torsions:
REMARK  status: ('A' for Active; 'I' for Inactive)
REMARK    1  A    between atoms: C_1  and  O_2
REMARK    2  A    between atoms: O_2  and  C_3
REMARK    3  A    between atoms: C_13  and  C_14
REMARK    4  A    between atoms: C_17  and  C_18
REMARK                            x       y       z     vdW  Elec       q    Type
REMARK                         _______ _______ _______ _____ _____    ______ ____
ROOT
ATOM      1  C   UNL     1      -3.030  10.184  16.599  0.00  0.00    +0.000 A 
ATOM      2  C   UNL     1      -4.007  11.170  16.665  0.00  0.00    +0.000 A 
ATOM      3  C   UNL     1      -4.075  12.039  17.760  0.00  0.00    +0.000 A 
ATOM      4  C   UNL     1      -3.105  11.916  18.762  0.00  0.00    +0.000 A 
ATOM      5  N   UNL     1      -2.954  12.638  19.922  0.00  0.00    +0.000 N 
ATOM      6  C   UNL     1      -1.863  12.190  20.600  0.00  0.00    +0.000 A 
ATOM      7  C   UNL     1      -1.398  12.668  21.863  0.00  0.00    +0.000 A 
ATOM      8  O   UNL     1      -1.922  13.575  22.501  0.00  0.00    +0.000 OA
ATOM      9  N   UNL     1      -0.277  11.990  22.305  0.00  0.00    +0.000 N 
ATOM     10  N   UNL     1       0.404  11.007  21.611  0.00  0.00    +0.000 NA
ATOM     11  C   UNL     1      -0.028  10.611  20.435  0.00  0.00    +0.000 A 
ATOM     12  C   UNL     1      -1.255  11.180  19.882  0.00  0.00    +0.000 A 
ATOM     13  C   UNL     1      -2.083  10.957  18.728  0.00  0.00    +0.000 A 
ATOM     14  C   UNL     1      -2.095  10.056  17.638  0.00  0.00    +0.000 A 
ATOM     15  H   UNL     1      -3.559  13.386  20.236  0.00  0.00    +0.000 HD
ATOM     16  H   UNL     1       0.123  12.274  23.192  0.00  0.00    +0.000 HD
ENDROOT
BRANCH  11  17
ATOM     17  C   UNL     1       0.799   9.607  19.709  0.00  0.00    +0.000 A 
ATOM     18  C   UNL     1       1.198   8.446  20.385  0.00  0.00    +0.000 A 
ATOM     19  C   UNL     1       2.059   7.528  19.774  0.00  0.00    +0.000 A 
ATOM     20  C   UNL     1       2.525   7.751  18.469  0.00  0.00    +0.000 A 
ATOM     21  C   UNL     1       2.109   8.906  17.792  0.00  0.00    +0.000 A 
ATOM     22  C   UNL     1       1.291   9.848  18.424  0.00  0.00    +0.000 A 
BRANCH  20  23
ATOM     23  C   UNL     1       3.496   6.804  17.807  0.00  0.00    +0.000 C 
ATOM     24  F   UNL     1       4.068   7.309  16.679  0.00  0.00    +0.000 F 
ATOM     25  F   UNL     1       4.524   6.449  18.624  0.00  0.00    +0.000 F 
ATOM     26  F   UNL     1       2.899   5.638  17.430  0.00  0.00    +0.000 F 
ENDBRANCH  20  23
ENDBRANCH  11  17
BRANCH   1  28
ATOM     27  C   UNL     1      -2.956   9.786  14.253  0.00  0.00    +0.000 C 
ATOM     28  O   UNL     1      -2.862   9.284  15.581  0.00  0.00    +0.000 OA
ENDBRANCH   1  28
TORSDOF 3
ENDMDL
MODEL 7
REMARK VINA RESULT:      -8.0      4.586      7.158
REMARK  Name = 
REMARK  4 active torsions:
REMARK  status: ('A' for Active; 'I' for Inactive)
REMARK    1  A    between atoms: C_1  and  O_2
REMARK    2  A    between atoms: O_2  and  C_3
REMARK    3  A    between atoms: C_13  and  C_14
REMARK    4  A    between atoms: C_17  and  C_18
REMARK                            x       y       z     vdW  Elec       q    Type
REMARK                         _______ _______ _______ _____ _____    ______ ____
ROOT
ATOM      1  C   UNL     1       2.240   8.272  18.524  0.00  0.00    +0.000 A 
ATOM      2  C   UNL     1       1.519   8.551  19.678  0.00  0.00    +0.000 A 
ATOM      3  C   UNL     1       1.350   7.579  20.669  0.00  0.00    +0.000 A 
ATOM      4  C   UNL     1       1.964   6.334  20.486  0.00  0.00    +0.000 A 
ATOM      5  N   UNL     1       1.951   5.228  21.302  0.00  0.00    +0.000 N 
ATOM      6  C   UNL     1       2.696   4.238  20.740  0.00  0.00    +0.000 A 
ATOM      7  C   UNL     1       2.897   2.927  21.270  0.00  0.00    +0.000 A 
ATOM      8  O   UNL     1       2.429   2.525  22.329  0.00  0.00    +0.000 OA
ATOM      9  N   UNL     1       3.683   2.140  20.449  0.00  0.00    +0.000 N 
ATOM     10  N   UNL     1       4.296   2.546  19.278  0.00  0.00    +0.000 NA
ATOM     11  C   UNL     1       4.121   3.769  18.832  0.00  0.00    +0.000 A 
ATOM     12  C   UNL     1       3.240   4.687  19.553  0.00  0.00    +0.000 A 
ATOM     13  C   UNL     1       2.725   6.014  19.354  0.00  0.00    +0.000 A 
ATOM     14  C   UNL     1       2.811   7.002  18.346  0.00  0.00    +0.000 A 
ATOM     15  H   UNL     1       1.460   5.149  22.183  0.00  0.00    +0.000 HD
ATOM     16  H   UNL     1       3.882   1.195  20.757  0.00  0.00    +0.000 HD
ENDROOT
BRANCH  11  17
ATOM     17  C   UNL     1       4.874   4.162  17.609  0.00  0.00    +0.000 A 
ATOM     18  C   UNL     1       4.239   4.061  16.363  0.00  0.00    +0.000 A 
ATOM     19  C   UNL     1       4.943   4.322  15.183  0.00  0.00    +0.000 A 
ATOM     20  C   UNL     1       6.293   4.702  15.230  0.00  0.00    +0.000 A 
ATOM     21  C   UNL     1       6.918   4.817  16.480  0.00  0.00    +0.000 A 
ATOM     22  C   UNL     1       6.227   4.505  17.655  0.00  0.00    +0.000 A 
BRANCH  20  23
ATOM     23  C   UNL     1       7.090   4.937  13.970  0.00  0.00    +0.000 C 
ATOM     24  F   UNL     1       6.609   5.951  13.200  0.00  0.00    +0.000 F 
ATOM     25  F   UNL     1       8.393   5.239  14.221  0.00  0.00    +0.000 F 
ATOM     26  F   UNL     1       7.111   3.837  13.164  0.00  0.00    +0.000 F 
ENDBRANCH  20  23
ENDBRANCH  11  17
BRANCH   1  28
ATOM     27  C   UNL     1       2.219  10.518  17.735  0.00  0.00    +0.000 C 
ATOM     28  O   UNL     1       2.476   9.141  17.492  0.00  0.00    +0.000 OA
ENDBRANCH   1  28
TORSDOF 3
ENDMDL
MODEL 8
REMARK VINA RESULT:      -7.9      5.187      8.388
REMARK  Name = 
REMARK  4 active torsions:
REMARK  status: ('A' for Active; 'I' for Inactive)
REMARK    1  A    between atoms: C_1  and  O_2
REMARK    2  A    between atoms: O_2  and  C_3
REMARK    3  A    between atoms: C_13  and  C_14
REMARK    4  A    between atoms: C_17  and  C_18
REMARK                            x       y       z     vdW  Elec       q    Type
REMARK                         _______ _______ _______ _____ _____    ______ ____
ROOT
ATOM      1  C   UNL     1      -2.341  10.333  16.669  0.00  0.00    +0.000 A 
ATOM      2  C   UNL     1      -3.274  11.338  16.894  0.00  0.00    +0.000 A 
ATOM      3  C   UNL     1      -3.353  11.976  18.137  0.00  0.00    +0.000 A 
ATOM      4  C   UNL     1      -2.439  11.604  19.130  0.00  0.00    +0.000 A 
ATOM      5  N   UNL     1      -2.310  12.074  20.415  0.00  0.00    +0.000 N 
ATOM      6  C   UNL     1      -1.274  11.442  21.030  0.00  0.00    +0.000 A 
ATOM      7  C   UNL     1      -0.848  11.635  22.380  0.00  0.00    +0.000 A 
ATOM      8  O   UNL     1      -1.360  12.425  23.166  0.00  0.00    +0.000 OA
ATOM      9  N   UNL     1       0.219  10.823  22.719  0.00  0.00    +0.000 N 
ATOM     10  N   UNL     1       0.885   9.960  21.869  0.00  0.00    +0.000 NA
ATOM     11  C   UNL     1       0.492   9.829  20.622  0.00  0.00    +0.000 A 
ATOM     12  C   UNL     1      -0.680  10.562  20.148  0.00  0.00    +0.000 A 
ATOM     13  C   UNL     1      -1.462  10.617  18.943  0.00  0.00    +0.000 A 
ATOM     14  C   UNL     1      -1.464   9.951  17.696  0.00  0.00    +0.000 A 
ATOM     15  H   UNL     1      -2.894  12.777  20.849  0.00  0.00    +0.000 HD
ATOM     16  H   UNL     1       0.588  10.904  23.659  0.00  0.00    +0.000 HD
ENDROOT
BRANCH  11  17
ATOM     17  C   UNL     1       1.305   8.945  19.742  0.00  0.00    +0.000 A 
ATOM     18  C   UNL     1       1.750   7.714  20.246  0.00  0.00    +0.000 A 
ATOM     19  C   UNL     1       2.600   6.901  19.489  0.00  0.00    +0.000 A 
ATOM     20  C   UNL     1       3.009   7.300  18.208  0.00  0.00    +0.000 A 
ATOM     21  C   UNL     1       2.548   8.524  17.702  0.00  0.00    +0.000 A 
ATOM     22  C   UNL     1       1.741   9.359  18.481  0.00  0.00    +0.000 A 
BRANCH  20  23
ATOM     23  C   UNL     1       3.969   6.467  17.392  0.00  0.00    +0.000 C 
ATOM     24  F   UNL     1       3.498   5.224  17.097  0.00  0.00    +0.000 F 
ATOM     25  F   UNL     1       4.283   7.044  16.200  0.00  0.00    +0.000 F 
ATOM     26  F   UNL     1       5.154   6.272  18.037  0.00  0.00    +0.000 F 
ENDBRANCH  20  23
ENDBRANCH  11  17
BRANCH   1  28
ATOM     27  C   UNL     1      -2.985  10.022  14.399  0.00  0.00    +0.000 C 
ATOM     28  O   UNL     1      -2.167   9.644  15.499  0.00  0.00    +0.000 OA
ENDBRANCH   1  28
TORSDOF 3
ENDMDL
MODEL 9
REMARK VINA RESULT:      -7.8      2.209      4.398
REMARK  Name = 
REMARK  4 active torsions:
REMARK  status: ('A' for Active; 'I' for Inactive)
REMARK    1  A    between atoms: C_1  and  O_2
REMARK    2  A    between atoms: O_2  and  C_3
REMARK    3  A    between atoms: C_13  and  C_14
REMARK    4  A    between atoms: C_17  and  C_18
REMARK                            x       y       z     vdW  Elec       q    Type
REMARK                         _______ _______ _______ _____ _____    ______ ____
ROOT
ATOM      1  C   UNL     1       5.956   6.099  16.752  0.00  0.00    +0.000 A 
ATOM      2  C   UNL     1       6.395   4.876  16.258  0.00  0.00    +0.000 A 
ATOM      3  C   UNL     1       5.752   3.687  16.618  0.00  0.00    +0.000 A 
ATOM      4  C   UNL     1       4.630   3.768  17.452  0.00  0.00    +0.000 A 
ATOM      5  N   UNL     1       3.834   2.760  17.942  0.00  0.00    +0.000 N 
ATOM      6  C   UNL     1       2.841   3.292  18.704  0.00  0.00    +0.000 A 
ATOM      7  C   UNL     1       1.834   2.565  19.409  0.00  0.00    +0.000 A 
ATOM      8  O   UNL     1       1.723   1.344  19.401  0.00  0.00    +0.000 OA
ATOM      9  N   UNL     1       0.983   3.392  20.119  0.00  0.00    +0.000 N 
ATOM     10  N   UNL     1       1.008   4.774  20.121  0.00  0.00    +0.000 NA
ATOM     11  C   UNL     1       1.925   5.418  19.434  0.00  0.00    +0.000 A 
ATOM     12  C   UNL     1       2.947   4.669  18.706  0.00  0.00    +0.000 A 
ATOM     13  C   UNL     1       4.132   4.979  17.952  0.00  0.00    +0.000 A 
ATOM     14  C   UNL     1       4.853   6.148  17.619  0.00  0.00    +0.000 A 
ATOM     15  H   UNL     1       3.962   1.771  17.773  0.00  0.00    +0.000 HD
ATOM     16  H   UNL     1       0.233   2.954  20.641  0.00  0.00    +0.000 HD
ENDROOT
BRANCH  11  17
ATOM     17  C   UNL     1       1.844   6.904  19.417  0.00  0.00    +0.000 A 
ATOM     18  C   UNL     1       1.427   7.572  20.578  0.00  0.00    +0.000 A 
ATOM     19  C   UNL     1       1.239   8.958  20.572  0.00  0.00    +0.000 A 
ATOM     20  C   UNL     1       1.477   9.702  19.406  0.00  0.00    +0.000 A 
ATOM     21  C   UNL     1       1.908   9.031  18.253  0.00  0.00    +0.000 A 
ATOM     22  C   UNL     1       2.045   7.640  18.247  0.00  0.00    +0.000 A 
BRANCH  20  23
ATOM     23  C   UNL     1       1.230  11.191  19.358  0.00  0.00    +0.000 C 
ATOM     24  F   UNL     1       1.289  11.794  20.577  0.00  0.00    +0.000 F 
ATOM     25  F   UNL     1       2.124  11.847  18.570  0.00  0.00    +0.000 F 
ATOM     26  F   UNL     1      -0.002  11.490  18.855  0.00  0.00    +0.000 F 
ENDBRANCH  20  23
ENDBRANCH  11  17
BRANCH   1  28
ATOM     27  C   UNL     1       7.444   7.842  17.393  0.00  0.00    +0.000 C 
ATOM     28  O   UNL     1       6.498   7.324  16.467  0.00  0.00    +0.000 OA
ENDBRANCH   1  28
TORSDOF 3
ENDMDL
