MODEL 1
REMARK VINA RESULT:      -6.4      0.000      0.000
REMARK  Name = 
REMARK  10 active torsions:
REMARK  status: ('A' for Active; 'I' for Inactive)
REMARK    1  A    between atoms: C_1  and  C_2
REMARK    2  A    between atoms: C_2  and  O_3
REMARK    3  A    between atoms: O_3  and  C_4
REMARK    4  A    between atoms: C_4  and  C_5
REMARK    5  A    between atoms: C_5  and  C_6
REMARK    6  A    between atoms: C_6  and  N_7
REMARK    7  A    between atoms: N_7  and  C_8
REMARK    8  A    between atoms: C_8  and  C_9
REMARK    9  A    between atoms: C_12  and  C_13
REMARK   10  A    between atoms: C_16  and  C_17
REMARK                            x       y       z     vdW  Elec       q    Type
REMARK                         _______ _______ _______ _____ _____    ______ ____
ROOT
ATOM      1  C   UNL     1       3.761   2.608  18.365  0.00  0.00    +0.000 A 
ATOM      2  C   UNL     1       4.494   2.463  19.522  0.00  0.00    +0.000 A 
ATOM      3  O   UNL     1       5.391   3.482  19.591  0.00  0.00    +0.000 OA
ATOM      4  C   UNL     1       5.161   4.214  18.455  0.00  0.00    +0.000 A 
ATOM      5  N   UNL     1       4.207   3.725  17.686  0.00  0.00    +0.000 NA
ENDROOT
BRANCH   4   6
ATOM      6  C   UNL     1       5.983   5.408  18.274  0.00  0.00    +0.000 A 
ATOM      7  C   UNL     1       5.616   6.424  17.381  0.00  0.00    +0.000 A 
ATOM      8  C   UNL     1       6.427   7.546  17.197  0.00  0.00    +0.000 A 
ATOM      9  C   UNL     1       7.625   7.676  17.905  0.00  0.00    +0.000 A 
ATOM     10  C   UNL     1       8.518   8.862  17.692  0.00  0.00    +0.000 C 
ATOM     11  C   UNL     1       7.992   6.674  18.810  0.00  0.00    +0.000 A 
ATOM     12  C   UNL     1       7.178   5.552  18.993  0.00  0.00    +0.000 A 
ENDBRANCH   4   6
BRANCH   1  13
ATOM     13  C   UNL     1       2.677   1.742  17.826  0.00  0.00    +0.000 C 
BRANCH  13  14
ATOM     14  N   UNL     1       1.559   1.700  18.775  0.00  0.00    +0.000 NA
ATOM     15  H   UNL     1       0.840   1.071  18.421  0.00  0.00    +0.000 HD
BRANCH  14  16
ATOM     16  C   UNL     1       0.983   3.036  18.938  0.00  0.00    +0.000 C 
BRANCH  16  17
ATOM     17  C   UNL     1       0.946   3.407  20.421  0.00  0.00    +0.000 C 
BRANCH  17  18
ATOM     18  C   UNL     1       1.435   4.835  20.645  0.00  0.00    +0.000 C 
BRANCH  18  19
ATOM     19  O   UNL     1       1.954   5.349  19.419  0.00  0.00    +0.000 OA
BRANCH  19  21
ATOM     20  C   UNL     1       2.350   7.441  18.345  0.00  0.00    +0.000 C 
ATOM     21  C   UNL     1       2.573   6.619  19.598  0.00  0.00    +0.000 C 
ENDBRANCH  19  21
ENDBRANCH  18  19
ENDBRANCH  17  18
ENDBRANCH  16  17
ENDBRANCH  14  16
ENDBRANCH  13  14
ENDBRANCH   1  13
TORSDOF 8
ENDMDL
MODEL 2
REMARK VINA RESULT:      -6.2      0.528      1.208
REMARK  Name = 
REMARK  10 active torsions:
REMARK  status: ('A' for Active; 'I' for Inactive)
REMARK    1  A    between atoms: C_1  and  C_2
REMARK    2  A    between atoms: C_2  and  O_3
REMARK    3  A    between atoms: O_3  and  C_4
REMARK    4  A    between atoms: C_4  and  C_5
REMARK    5  A    between atoms: C_5  and  C_6
REMARK    6  A    between atoms: C_6  and  N_7
REMARK    7  A    between atoms: N_7  and  C_8
REMARK    8  A    between atoms: C_8  and  C_9
REMARK    9  A    between atoms: C_12  and  C_13
REMARK   10  A    between atoms: C_16  and  C_17
REMARK                            x       y       z     vdW  Elec       q    Type
REMARK                         _______ _______ _______ _____ _____    ______ ____
ROOT
ATOM      1  C   UNL     1       3.538   2.650  18.707  0.00  0.00    +0.000 A 
ATOM      2  C   UNL     1       4.460   2.368  19.691  0.00  0.00    +0.000 A 
ATOM      3  O   UNL     1       5.434   3.314  19.648  0.00  0.00    +0.000 OA
ATOM      4  C   UNL     1       5.057   4.144  18.623  0.00  0.00    +0.000 A 
ATOM      5  N   UNL     1       3.939   3.781  18.023  0.00  0.00    +0.000 NA
ENDROOT
BRANCH   4   6
ATOM      6  C   UNL     1       5.926   5.288  18.361  0.00  0.00    +0.000 A 
ATOM      7  C   UNL     1       7.145   5.454  19.032  0.00  0.00    +0.000 A 
ATOM      8  C   UNL     1       7.951   6.569  18.792  0.00  0.00    +0.000 A 
ATOM      9  C   UNL     1       7.555   7.542  17.871  0.00  0.00    +0.000 A 
ATOM     10  C   UNL     1       8.399   8.758  17.629  0.00  0.00    +0.000 C 
ATOM     11  C   UNL     1       6.347   7.378  17.185  0.00  0.00    +0.000 A 
ATOM     12  C   UNL     1       5.541   6.261  17.427  0.00  0.00    +0.000 A 
ENDBRANCH   4   6
BRANCH   1  13
ATOM     13  C   UNL     1       2.305   1.903  18.334  0.00  0.00    +0.000 C 
BRANCH  13  14
ATOM     14  N   UNL     1       1.122   2.692  18.693  0.00  0.00    +0.000 NA
ATOM     15  H   UNL     1       1.198   3.620  18.279  0.00  0.00    +0.000 HD
BRANCH  14  16
ATOM     16  C   UNL     1       1.025   2.828  20.147  0.00  0.00    +0.000 C 
BRANCH  16  17
ATOM     17  C   UNL     1       0.709   4.279  20.513  0.00  0.00    +0.000 C 
BRANCH  17  18
ATOM     18  C   UNL     1       1.983   5.112  20.613  0.00  0.00    +0.000 C 
BRANCH  18  19
ATOM     19  O   UNL     1       2.165   5.837  19.398  0.00  0.00    +0.000 OA
BRANCH  19  21
ATOM     20  C   UNL     1       2.363   7.938  18.285  0.00  0.00    +0.000 C 
ATOM     21  C   UNL     1       2.244   7.241  19.626  0.00  0.00    +0.000 C 
ENDBRANCH  19  21
ENDBRANCH  18  19
ENDBRANCH  17  18
ENDBRANCH  16  17
ENDBRANCH  14  16
ENDBRANCH  13  14
ENDBRANCH   1  13
TORSDOF 8
ENDMDL
MODEL 3
REMARK VINA RESULT:      -6.0      2.368      5.447
REMARK  Name = 
REMARK  10 active torsions:
REMARK  status: ('A' for Active; 'I' for Inactive)
REMARK    1  A    between atoms: C_1  and  C_2
REMARK    2  A    between atoms: C_2  and  O_3
REMARK    3  A    between atoms: O_3  and  C_4
REMARK    4  A    between atoms: C_4  and  C_5
REMARK    5  A    between atoms: C_5  and  C_6
REMARK    6  A    between atoms: C_6  and  N_7
REMARK    7  A    between atoms: N_7  and  C_8
REMARK    8  A    between atoms: C_8  and  C_9
REMARK    9  A    between atoms: C_12  and  C_13
REMARK   10  A    between atoms: C_16  and  C_17
REMARK                            x       y       z     vdW  Elec       q    Type
REMARK                         _______ _______ _______ _____ _____    ______ ____
ROOT
ATOM      1  C   UNL     1       3.790   4.381  18.257  0.00  0.00    +0.000 A 
ATOM      2  C   UNL     1       3.692   4.385  19.630  0.00  0.00    +0.000 A 
ATOM      3  O   UNL     1       3.109   5.551  20.014  0.00  0.00    +0.000 OA
ATOM      4  C   UNL     1       2.876   6.217  18.838  0.00  0.00    +0.000 A 
ATOM      5  N   UNL     1       3.276   5.564  17.764  0.00  0.00    +0.000 NA
ENDROOT
BRANCH   4   6
ATOM      6  C   UNL     1       2.222   7.518  18.947  0.00  0.00    +0.000 A 
ATOM      7  C   UNL     1       2.144   8.395  17.856  0.00  0.00    +0.000 A 
ATOM      8  C   UNL     1       1.541   9.649  17.984  0.00  0.00    +0.000 A 
ATOM      9  C   UNL     1       1.001  10.052  19.208  0.00  0.00    +0.000 A 
ATOM     10  C   UNL     1       0.380  11.409  19.363  0.00  0.00    +0.000 C 
ATOM     11  C   UNL     1       1.061   9.178  20.299  0.00  0.00    +0.000 A 
ATOM     12  C   UNL     1       1.665   7.923  20.169  0.00  0.00    +0.000 A 
ENDBRANCH   4   6
BRANCH   1  13
ATOM     13  C   UNL     1       4.372   3.344  17.361  0.00  0.00    +0.000 C 
BRANCH  13  14
ATOM     14  N   UNL     1       5.704   3.767  16.914  0.00  0.00    +0.000 NA
ATOM     15  H   UNL     1       5.833   4.754  17.129  0.00  0.00    +0.000 HD
BRANCH  14  16
ATOM     16  C   UNL     1       5.837   3.575  15.469  0.00  0.00    +0.000 C 
BRANCH  16  17
ATOM     17  C   UNL     1       6.414   4.839  14.828  0.00  0.00    +0.000 C 
BRANCH  17  18
ATOM     18  C   UNL     1       6.263   6.043  15.752  0.00  0.00    +0.000 C 
BRANCH  18  19
ATOM     19  O   UNL     1       7.518   6.316  16.373  0.00  0.00    +0.000 OA
BRANCH  19  21
ATOM     20  C   UNL     1       7.753   6.166  18.742  0.00  0.00    +0.000 C 
ATOM     21  C   UNL     1       7.361   7.056  17.580  0.00  0.00    +0.000 C 
ENDBRANCH  19  21
ENDBRANCH  18  19
ENDBRANCH  17  18
ENDBRANCH  16  17
ENDBRANCH  14  16
ENDBRANCH  13  14
ENDBRANCH   1  13
TORSDOF 8
ENDMDL
MODEL 4
REMARK VINA RESULT:      -6.0      2.301      5.074
REMARK  Name = 
REMARK  10 active torsions:
REMARK  status: ('A' for Active; 'I' for Inactive)
REMARK    1  A    between atoms: C_1  and  C_2
REMARK    2  A    between atoms: C_2  and  O_3
REMARK    3  A    between atoms: O_3  and  C_4
REMARK    4  A    between atoms: C_4  and  C_5
REMARK    5  A    between atoms: C_5  and  C_6
REMARK    6  A    between atoms: C_6  and  N_7
REMARK    7  A    between atoms: N_7  and  C_8
REMARK    8  A    between atoms: C_8  and  C_9
REMARK    9  A    between atoms: C_12  and  C_13
REMARK   10  A    between atoms: C_16  and  C_17
REMARK                            x       y       z     vdW  Elec       q    Type
REMARK                         _______ _______ _______ _____ _____    ______ ____
ROOT
ATOM      1  C   UNL     1       4.586   5.266  17.974  0.00  0.00    +0.000 A 
ATOM      2  C   UNL     1       4.729   6.138  16.919  0.00  0.00    +0.000 A 
ATOM      3  O   UNL     1       3.889   7.188  17.114  0.00  0.00    +0.000 OA
ATOM      4  C   UNL     1       3.259   6.903  18.299  0.00  0.00    +0.000 A 
ATOM      5  N   UNL     1       3.633   5.760  18.843  0.00  0.00    +0.000 NA
ENDROOT
BRANCH   4   6
ATOM      6  C   UNL     1       2.297   7.891  18.778  0.00  0.00    +0.000 A 
ATOM      7  C   UNL     1       1.868   7.913  20.112  0.00  0.00    +0.000 A 
ATOM      8  C   UNL     1       0.925   8.846  20.548  0.00  0.00    +0.000 A 
ATOM      9  C   UNL     1       0.390   9.780  19.657  0.00  0.00    +0.000 A 
ATOM     10  C   UNL     1      -0.647  10.766  20.109  0.00  0.00    +0.000 C 
ATOM     11  C   UNL     1       0.822   9.776  18.327  0.00  0.00    +0.000 A 
ATOM     12  C   UNL     1       1.767   8.841  17.892  0.00  0.00    +0.000 A 
ENDBRANCH   4   6
BRANCH   1  13
ATOM     13  C   UNL     1       5.265   3.962  18.213  0.00  0.00    +0.000 C 
BRANCH  13  14
ATOM     14  N   UNL     1       4.356   3.053  18.919  0.00  0.00    +0.000 NA
ATOM     15  H   UNL     1       4.875   2.546  19.634  0.00  0.00    +0.000 HD
BRANCH  14  16
ATOM     16  C   UNL     1       3.776   2.089  17.982  0.00  0.00    +0.000 C 
BRANCH  16  17
ATOM     17  C   UNL     1       2.365   2.531  17.591  0.00  0.00    +0.000 C 
BRANCH  17  18
ATOM     18  C   UNL     1       1.382   2.319  18.738  0.00  0.00    +0.000 C 
BRANCH  18  19
ATOM     19  O   UNL     1       1.418   3.456  19.600  0.00  0.00    +0.000 OA
BRANCH  19  21
ATOM     20  C   UNL     1       2.330   2.763  21.692  0.00  0.00    +0.000 C 
ATOM     21  C   UNL     1       1.064   3.117  20.938  0.00  0.00    +0.000 C 
ENDBRANCH  19  21
ENDBRANCH  18  19
ENDBRANCH  17  18
ENDBRANCH  16  17
ENDBRANCH  14  16
ENDBRANCH  13  14
ENDBRANCH   1  13
TORSDOF 8
ENDMDL
MODEL 5
REMARK VINA RESULT:      -6.0      4.694      6.986
REMARK  Name = 
REMARK  10 active torsions:
REMARK  status: ('A' for Active; 'I' for Inactive)
REMARK    1  A    between atoms: C_1  and  C_2
REMARK    2  A    between atoms: C_2  and  O_3
REMARK    3  A    between atoms: O_3  and  C_4
REMARK    4  A    between atoms: C_4  and  C_5
REMARK    5  A    between atoms: C_5  and  C_6
REMARK    6  A    between atoms: C_6  and  N_7
REMARK    7  A    between atoms: N_7  and  C_8
REMARK    8  A    between atoms: C_8  and  C_9
REMARK    9  A    between atoms: C_12  and  C_13
REMARK   10  A    between atoms: C_16  and  C_17
REMARK                            x       y       z     vdW  Elec       q    Type
REMARK                         _______ _______ _______ _____ _____    ______ ____
ROOT
ATOM      1  C   UNL     1       6.112   4.984  15.545  0.00  0.00    +0.000 A 
ATOM      2  C   UNL     1       6.086   6.172  16.240  0.00  0.00    +0.000 A 
ATOM      3  O   UNL     1       5.240   6.033  17.294  0.00  0.00    +0.000 OA
ATOM      4  C   UNL     1       4.780   4.745  17.192  0.00  0.00    +0.000 A 
ATOM      5  N   UNL     1       5.262   4.084  16.157  0.00  0.00    +0.000 NA
ENDROOT
BRANCH   4   6
ATOM      6  C   UNL     1       3.852   4.303  18.229  0.00  0.00    +0.000 A 
ATOM      7  C   UNL     1       3.632   5.058  19.389  0.00  0.00    +0.000 A 
ATOM      8  C   UNL     1       2.763   4.607  20.386  0.00  0.00    +0.000 A 
ATOM      9  C   UNL     1       2.093   3.390  20.242  0.00  0.00    +0.000 A 
ATOM     10  C   UNL     1       1.182   2.883  21.321  0.00  0.00    +0.000 C 
ATOM     11  C   UNL     1       2.295   2.636  19.081  0.00  0.00    +0.000 A 
ATOM     12  C   UNL     1       3.165   3.089  18.084  0.00  0.00    +0.000 A 
ENDBRANCH   4   6
BRANCH   1  13
ATOM     13  C   UNL     1       6.864   4.637  14.307  0.00  0.00    +0.000 C 
BRANCH  13  14
ATOM     14  N   UNL     1       6.262   3.456  13.678  0.00  0.00    +0.000 NA
ATOM     15  H   UNL     1       6.995   2.893  13.248  0.00  0.00    +0.000 HD
BRANCH  14  16
ATOM     16  C   UNL     1       5.309   3.862  12.644  0.00  0.00    +0.000 C 
BRANCH  16  17
ATOM     17  C   UNL     1       5.109   2.721  11.646  0.00  0.00    +0.000 C 
BRANCH  17  18
ATOM     18  C   UNL     1       3.724   2.782  11.009  0.00  0.00    +0.000 C 
BRANCH  18  19
ATOM     19  O   UNL     1       3.482   4.107  10.542  0.00  0.00    +0.000 OA
BRANCH  19  21
ATOM     20  C   UNL     1       2.015   5.203   9.013  0.00  0.00    +0.000 C 
ATOM     21  C   UNL     1       3.063   4.120   9.180  0.00  0.00    +0.000 C 
ENDBRANCH  19  21
ENDBRANCH  18  19
ENDBRANCH  17  18
ENDBRANCH  16  17
ENDBRANCH  14  16
ENDBRANCH  13  14
ENDBRANCH   1  13
TORSDOF 8
ENDMDL
MODEL 6
REMARK VINA RESULT:      -5.9      3.569      7.832
REMARK  Name = 
REMARK  10 active torsions:
REMARK  status: ('A' for Active; 'I' for Inactive)
REMARK    1  A    between atoms: C_1  and  C_2
REMARK    2  A    between atoms: C_2  and  O_3
REMARK    3  A    between atoms: O_3  and  C_4
REMARK    4  A    between atoms: C_4  and  C_5
REMARK    5  A    between atoms: C_5  and  C_6
REMARK    6  A    between atoms: C_6  and  N_7
REMARK    7  A    between atoms: N_7  and  C_8
REMARK    8  A    between atoms: C_8  and  C_9
REMARK    9  A    between atoms: C_12  and  C_13
REMARK   10  A    between atoms: C_16  and  C_17
REMARK                            x       y       z     vdW  Elec       q    Type
REMARK                         _______ _______ _______ _____ _____    ______ ____
ROOT
ATOM      1  C   UNL     1       7.081   6.651  18.010  0.00  0.00    +0.000 A 
ATOM      2  C   UNL     1       7.574   5.688  18.862  0.00  0.00    +0.000 A 
ATOM      3  O   UNL     1       6.571   4.818  19.150  0.00  0.00    +0.000 OA
ATOM      4  C   UNL     1       5.494   5.297  18.450  0.00  0.00    +0.000 A 
ATOM      5  N   UNL     1       5.746   6.397  17.765  0.00  0.00    +0.000 NA
ENDROOT
BRANCH   4   6
ATOM      6  C   UNL     1       4.256   4.530  18.557  0.00  0.00    +0.000 A 
ATOM      7  C   UNL     1       4.164   3.395  19.375  0.00  0.00    +0.000 A 
ATOM      8  C   UNL     1       2.981   2.654  19.444  0.00  0.00    +0.000 A 
ATOM      9  C   UNL     1       1.864   3.034  18.696  0.00  0.00    +0.000 A 
ATOM     10  C   UNL     1       0.600   2.227  18.739  0.00  0.00    +0.000 C 
ATOM     11  C   UNL     1       1.942   4.173  17.888  0.00  0.00    +0.000 A 
ATOM     12  C   UNL     1       3.127   4.914  17.820  0.00  0.00    +0.000 A 
ENDBRANCH   4   6
BRANCH   1  13
ATOM     13  C   UNL     1       7.775   7.832  17.426  0.00  0.00    +0.000 C 
BRANCH  13  14
ATOM     14  N   UNL     1       8.485   8.561  18.483  0.00  0.00    +0.000 NA
ATOM     15  H   UNL     1       7.965   8.479  19.356  0.00  0.00    +0.000 HD
BRANCH  14  16
ATOM     16  C   UNL     1       8.600   9.977  18.131  0.00  0.00    +0.000 C 
BRANCH  16  17
ATOM     17  C   UNL     1       9.625  10.656  19.042  0.00  0.00    +0.000 C 
BRANCH  17  18
ATOM     18  C   UNL     1       9.444  12.171  19.044  0.00  0.00    +0.000 C 
BRANCH  18  19
ATOM     19  O   UNL     1       9.951  12.704  17.822  0.00  0.00    +0.000 OA
BRANCH  19  21
ATOM     20  C   UNL     1      11.959  13.412  16.747  0.00  0.00    +0.000 C 
ATOM     21  C   UNL     1      11.316  12.351  17.618  0.00  0.00    +0.000 C 
ENDBRANCH  19  21
ENDBRANCH  18  19
ENDBRANCH  17  18
ENDBRANCH  16  17
ENDBRANCH  14  16
ENDBRANCH  13  14
ENDBRANCH   1  13
TORSDOF 8
ENDMDL
MODEL 7
REMARK VINA RESULT:      -5.9      2.864      4.138
REMARK  Name = 
REMARK  10 active torsions:
REMARK  status: ('A' for Active; 'I' for Inactive)
REMARK    1  A    between atoms: C_1  and  C_2
REMARK    2  A    between atoms: C_2  and  O_3
REMARK    3  A    between atoms: O_3  and  C_4
REMARK    4  A    between atoms: C_4  and  C_5
REMARK    5  A    between atoms: C_5  and  C_6
REMARK    6  A    between atoms: C_6  and  N_7
REMARK    7  A    between atoms: N_7  and  C_8
REMARK    8  A    between atoms: C_8  and  C_9
REMARK    9  A    between atoms: C_12  and  C_13
REMARK   10  A    between atoms: C_16  and  C_17
REMARK                            x       y       z     vdW  Elec       q    Type
REMARK                         _______ _______ _______ _____ _____    ______ ____
ROOT
ATOM      1  C   UNL     1       3.951   5.677  18.850  0.00  0.00    +0.000 A 
ATOM      2  C   UNL     1       5.242   5.450  19.273  0.00  0.00    +0.000 A 
ATOM      3  O   UNL     1       5.988   5.094  18.194  0.00  0.00    +0.000 OA
ATOM      4  C   UNL     1       5.104   5.120  17.146  0.00  0.00    +0.000 A 
ATOM      5  N   UNL     1       3.874   5.450  17.490  0.00  0.00    +0.000 NA
ENDROOT
BRANCH   4   6
ATOM      6  C   UNL     1       5.648   4.796  15.830  0.00  0.00    +0.000 A 
ATOM      7  C   UNL     1       6.934   5.200  15.446  0.00  0.00    +0.000 A 
ATOM      8  C   UNL     1       7.428   4.907  14.173  0.00  0.00    +0.000 A 
ATOM      9  C   UNL     1       6.646   4.201  13.256  0.00  0.00    +0.000 A 
ATOM     10  C   UNL     1       7.157   3.909  11.876  0.00  0.00    +0.000 C 
ATOM     11  C   UNL     1       5.367   3.780  13.635  0.00  0.00    +0.000 A 
ATOM     12  C   UNL     1       4.873   4.074  14.910  0.00  0.00    +0.000 A 
ENDBRANCH   4   6
BRANCH   1  13
ATOM     13  C   UNL     1       2.757   6.067  19.650  0.00  0.00    +0.000 C 
BRANCH  13  14
ATOM     14  N   UNL     1       2.630   5.181  20.813  0.00  0.00    +0.000 NA
ATOM     15  H   UNL     1       3.368   4.479  20.783  0.00  0.00    +0.000 HD
BRANCH  14  16
ATOM     16  C   UNL     1       1.332   4.505  20.795  0.00  0.00    +0.000 C 
BRANCH  16  17
ATOM     17  C   UNL     1       1.120   3.822  19.443  0.00  0.00    +0.000 C 
BRANCH  17  18
ATOM     18  C   UNL     1       1.692   2.408  19.444  0.00  0.00    +0.000 C 
BRANCH  18  19
ATOM     19  O   UNL     1       2.892   2.389  20.215  0.00  0.00    +0.000 OA
BRANCH  19  21
ATOM     20  C   UNL     1       3.550   1.740  18.016  0.00  0.00    +0.000 C 
ATOM     21  C   UNL     1       4.027   2.056  19.419  0.00  0.00    +0.000 C 
ENDBRANCH  19  21
ENDBRANCH  18  19
ENDBRANCH  17  18
ENDBRANCH  16  17
ENDBRANCH  14  16
ENDBRANCH  13  14
ENDBRANCH   1  13
TORSDOF 8
ENDMDL
MODEL 8
REMARK VINA RESULT:      -5.9      2.364      5.024
REMARK  Name = 
REMARK  10 active torsions:
REMARK  status: ('A' for Active; 'I' for Inactive)
REMARK    1  A    between atoms: C_1  and  C_2
REMARK    2  A    between atoms: C_2  and  O_3
REMARK    3  A    between atoms: O_3  and  C_4
REMARK    4  A    between atoms: C_4  and  C_5
REMARK    5  A    between atoms: C_5  and  C_6
REMARK    6  A    between atoms: C_6  and  N_7
REMARK    7  A    between atoms: N_7  and  C_8
REMARK    8  A    between atoms: C_8  and  C_9
REMARK    9  A    between atoms: C_12  and  C_13
REMARK   10  A    between atoms: C_16  and  C_17
REMARK                            x       y       z     vdW  Elec       q    Type
REMARK                         _______ _______ _______ _____ _____    ______ ____
ROOT
ATOM      1  C   UNL     1       4.639   5.385  18.259  0.00  0.00    +0.000 A 
ATOM      2  C   UNL     1       4.723   6.147  17.116  0.00  0.00    +0.000 A 
ATOM      3  O   UNL     1       3.829   7.166  17.214  0.00  0.00    +0.000 OA
ATOM      4  C   UNL     1       3.230   6.975  18.434  0.00  0.00    +0.000 A 
ATOM      5  N   UNL     1       3.672   5.918  19.088  0.00  0.00    +0.000 NA
ENDROOT
BRANCH   4   6
ATOM      6  C   UNL     1       2.222   7.957  18.823  0.00  0.00    +0.000 A 
ATOM      7  C   UNL     1       1.680   8.860  17.897  0.00  0.00    +0.000 A 
ATOM      8  C   UNL     1       0.737   9.812  18.291  0.00  0.00    +0.000 A 
ATOM      9  C   UNL     1       0.314   9.881  19.621  0.00  0.00    +0.000 A 
ATOM     10  C   UNL     1      -0.675  10.921  20.059  0.00  0.00    +0.000 C 
ATOM     11  C   UNL     1       0.838   8.975  20.549  0.00  0.00    +0.000 A 
ATOM     12  C   UNL     1       1.782   8.021  20.153  0.00  0.00    +0.000 A 
ENDBRANCH   4   6
BRANCH   1  13
ATOM     13  C   UNL     1       5.391   4.152  18.622  0.00  0.00    +0.000 C 
BRANCH  13  14
ATOM     14  N   UNL     1       4.454   3.041  18.820  0.00  0.00    +0.000 NA
ATOM     15  H   UNL     1       4.959   2.236  19.187  0.00  0.00    +0.000 HD
BRANCH  14  16
ATOM     16  C   UNL     1       3.830   2.671  17.548  0.00  0.00    +0.000 C 
BRANCH  16  17
ATOM     17  C   UNL     1       2.313   2.579  17.721  0.00  0.00    +0.000 C 
BRANCH  17  18
ATOM     18  C   UNL     1       1.948   1.988  19.079  0.00  0.00    +0.000 C 
BRANCH  18  19
ATOM     19  O   UNL     1       1.053   2.873  19.750  0.00  0.00    +0.000 OA
BRANCH  19  21
ATOM     20  C   UNL     1       2.274   3.847  21.552  0.00  0.00    +0.000 C 
ATOM     21  C   UNL     1       1.223   2.827  21.163  0.00  0.00    +0.000 C 
ENDBRANCH  19  21
ENDBRANCH  18  19
ENDBRANCH  17  18
ENDBRANCH  16  17
ENDBRANCH  14  16
ENDBRANCH  13  14
ENDBRANCH   1  13
TORSDOF 8
ENDMDL
MODEL 9
REMARK VINA RESULT:      -5.9      2.405      5.451
REMARK  Name = 
REMARK  10 active torsions:
REMARK  status: ('A' for Active; 'I' for Inactive)
REMARK    1  A    between atoms: C_1  and  C_2
REMARK    2  A    between atoms: C_2  and  O_3
REMARK    3  A    between atoms: O_3  and  C_4
REMARK    4  A    between atoms: C_4  and  C_5
REMARK    5  A    between atoms: C_5  and  C_6
REMARK    6  A    between atoms: C_6  and  N_7
REMARK    7  A    between atoms: N_7  and  C_8
REMARK    8  A    between atoms: C_8  and  C_9
REMARK    9  A    between atoms: C_12  and  C_13
REMARK   10  A    between atoms: C_16  and  C_17
REMARK                            x       y       z     vdW  Elec       q    Type
REMARK                         _______ _______ _______ _____ _____    ______ ____
ROOT
ATOM      1  C   UNL     1       3.877   4.816  19.484  0.00  0.00    +0.000 A 
ATOM      2  C   UNL     1       2.789   4.501  20.267  0.00  0.00    +0.000 A 
ATOM      3  O   UNL     1       1.986   5.595  20.343  0.00  0.00    +0.000 OA
ATOM      4  C   UNL     1       2.632   6.543  19.591  0.00  0.00    +0.000 A 
ATOM      5  N   UNL     1       3.770   6.129  19.069  0.00  0.00    +0.000 NA
ENDROOT
BRANCH   4   6
ATOM      6  C   UNL     1       1.971   7.840  19.475  0.00  0.00    +0.000 A 
ATOM      7  C   UNL     1       1.311   8.428  20.563  0.00  0.00    +0.000 A 
ATOM      8  C   UNL     1       0.658   9.656  20.428  0.00  0.00    +0.000 A 
ATOM      9  C   UNL     1       0.654  10.324  19.201  0.00  0.00    +0.000 A 
ATOM     10  C   UNL     1      -0.071  11.627  19.038  0.00  0.00    +0.000 C 
ATOM     11  C   UNL     1       1.323   9.752  18.113  0.00  0.00    +0.000 A 
ATOM     12  C   UNL     1       1.976   8.522  18.250  0.00  0.00    +0.000 A 
ENDBRANCH   4   6
BRANCH   1  13
ATOM     13  C   UNL     1       5.046   3.969  19.117  0.00  0.00    +0.000 C 
BRANCH  13  14
ATOM     14  N   UNL     1       4.640   2.970  18.122  0.00  0.00    +0.000 NA
ATOM     15  H   UNL     1       5.390   2.291  18.002  0.00  0.00    +0.000 HD
BRANCH  14  16
ATOM     16  C   UNL     1       4.374   3.616  16.836  0.00  0.00    +0.000 C 
BRANCH  16  17
ATOM     17  C   UNL     1       5.639   4.315  16.334  0.00  0.00    +0.000 C 
BRANCH  17  18
ATOM     18  C   UNL     1       5.307   5.644  15.665  0.00  0.00    +0.000 C 
BRANCH  18  19
ATOM     19  O   UNL     1       6.153   6.661  16.199  0.00  0.00    +0.000 OA
BRANCH  19  21
ATOM     20  C   UNL     1       7.686   7.159  17.958  0.00  0.00    +0.000 C 
ATOM     21  C   UNL     1       7.222   6.112  16.965  0.00  0.00    +0.000 C 
ENDBRANCH  19  21
ENDBRANCH  18  19
ENDBRANCH  17  18
ENDBRANCH  16  17
ENDBRANCH  14  16
ENDBRANCH  13  14
ENDBRANCH   1  13
TORSDOF 8
ENDMDL
