MODEL 1
REMARK VINA RESULT:      -8.7      0.000      0.000
REMARK  Name = 
REMARK  9 active torsions:
REMARK  status: ('A' for Active; 'I' for Inactive)
REMARK    1  A    between atoms: C_1  and  O_2
REMARK    2  A    between atoms: O_2  and  C_3
REMARK    3  A    between atoms: C_11  and  C_12
REMARK    4  A    between atoms: C_12  and  C_13
REMARK    5  A    between atoms: C_13  and  O_14
REMARK    6  A    between atoms: C_13  and  C_15
REMARK    7  A    between atoms: C_18  and  N_19
REMARK    8  A    between atoms: N_19  and  C_20
REMARK    9  A    between atoms: C_20  and  C_21
REMARK                            x       y       z     vdW  Elec       q    Type
REMARK                         _______ _______ _______ _____ _____    ______ ____
ROOT
ATOM      1  C   UNL     1       7.850   7.887  17.993  0.00  0.00    +0.000 C 
ATOM      2  O   UNL     1       7.932   7.271  16.709  0.00  0.00    +0.000 OA
ATOM      3  C   UNL     1       7.110   6.115  16.692  0.00  0.00    +0.000 C 
ATOM      4  C   UNL     1       7.472   5.108  17.804  0.00  0.00    +0.000 C 
ATOM      5  C   UNL     1       7.796   5.855  19.124  0.00  0.00    +0.000 C 
ATOM      6  O   UNL     1       8.548   7.058  18.916  0.00  0.00    +0.000 OA
ENDROOT
BRANCH   4   7
ATOM      7  N   UNL     1       6.393   4.116  18.011  0.00  0.00    +0.000 NA
ATOM      8  H   UNL     1       6.671   3.217  17.610  0.00  0.00    +0.000 HD
BRANCH   7   9
ATOM      9  C   UNL     1       5.136   4.515  17.353  0.00  0.00    +0.000 C 
BRANCH   9  10
ATOM     10  C   UNL     1       3.910   4.070  18.126  0.00  0.00    +0.000 A 
ATOM     11  C   UNL     1       3.929   4.036  19.521  0.00  0.00    +0.000 A 
ATOM     12  C   UNL     1       2.776   3.605  20.137  0.00  0.00    +0.000 A 
ATOM     13  C   UNL     1       1.668   3.241  19.419  0.00  0.00    +0.000 A 
ATOM     14  C   UNL     1       1.708   3.303  18.053  0.00  0.00    +0.000 A 
ATOM     15  N   UNL     1       2.819   3.701  17.387  0.00  0.00    +0.000 NA
ATOM     16  O   UNL     1       0.640   2.837  20.206  0.00  0.00    +0.000 OA
ATOM     17  C   UNL     1       1.298   2.813  21.491  0.00  0.00    +0.000 C 
ATOM     18  O   UNL     1       2.582   3.472  21.478  0.00  0.00    +0.000 OA
ENDBRANCH   9  10
ENDBRANCH   7   9
ENDBRANCH   4   7
BRANCH   1  19
ATOM     19  C   UNL     1       8.448   9.303  17.877  0.00  0.00    +0.000 C 
BRANCH  19  20
ATOM     20  O   UNL     1       7.409  10.294  17.723  0.00  0.00    +0.000 OA
ATOM     21  H   UNL     1       6.578   9.846  17.975  0.00  0.00    +0.000 HD
ENDBRANCH  19  20
BRANCH  19  22
ATOM     22  C   UNL     1       9.242   9.659  19.150  0.00  0.00    +0.000 C 
BRANCH  22  31
ATOM     23  C   UNL     1       8.156  12.101  22.461  0.00  0.00    +0.000 A 
ATOM     24  C   UNL     1       8.811  13.266  22.790  0.00  0.00    +0.000 A 
ATOM     25  C   UNL     1       9.796  13.721  21.913  0.00  0.00    +0.000 A 
ATOM     26  C   UNL     1      10.063  13.042  20.733  0.00  0.00    +0.000 A 
ATOM     27  N   UNL     1      10.912  13.589  19.845  0.00  0.00    +0.000 NA
ATOM     28  C   UNL     1      11.079  12.933  18.678  0.00  0.00    +0.000 A 
ATOM     29  C   UNL     1      10.494  11.712  18.403  0.00  0.00    +0.000 A 
ATOM     30  F   UNL     1      10.697  11.142  17.208  0.00  0.00    +0.000 F 
ATOM     31  C   UNL     1       9.685  11.097  19.362  0.00  0.00    +0.000 A 
ATOM     32  C   UNL     1       9.386  11.810  20.524  0.00  0.00    +0.000 A 
ATOM     33  N   UNL     1       8.461  11.348  21.382  0.00  0.00    +0.000 NA
BRANCH  23  35
ATOM     34  C   UNL     1       6.044  12.714  23.250  0.00  0.00    +0.000 C 
ATOM     35  O   UNL     1       7.091  11.746  23.260  0.00  0.00    +0.000 OA
ENDBRANCH  23  35
ENDBRANCH  22  31
ENDBRANCH  19  22
ENDBRANCH   1  19
TORSDOF 8
ENDMDL
MODEL 2
REMARK VINA RESULT:      -8.4      5.876      7.884
REMARK  Name = 
REMARK  9 active torsions:
REMARK  status: ('A' for Active; 'I' for Inactive)
REMARK    1  A    between atoms: C_1  and  O_2
REMARK    2  A    between atoms: O_2  and  C_3
REMARK    3  A    between atoms: C_11  and  C_12
REMARK    4  A    between atoms: C_12  and  C_13
REMARK    5  A    between atoms: C_13  and  O_14
REMARK    6  A    between atoms: C_13  and  C_15
REMARK    7  A    between atoms: C_18  and  N_19
REMARK    8  A    between atoms: N_19  and  C_20
REMARK    9  A    between atoms: C_20  and  C_21
REMARK                            x       y       z     vdW  Elec       q    Type
REMARK                         _______ _______ _______ _____ _____    ______ ____
ROOT
ATOM      1  C   UNL     1       1.830   8.162  18.917  0.00  0.00    +0.000 C 
ATOM      2  O   UNL     1       3.047   7.945  18.207  0.00  0.00    +0.000 OA
ATOM      3  C   UNL     1       3.230   6.552  18.007  0.00  0.00    +0.000 C 
ATOM      4  C   UNL     1       3.219   5.754  19.328  0.00  0.00    +0.000 C 
ATOM      5  C   UNL     1       2.126   6.301  20.282  0.00  0.00    +0.000 C 
ATOM      6  O   UNL     1       2.029   7.732  20.260  0.00  0.00    +0.000 OA
ENDROOT
BRANCH   4   7
ATOM      7  N   UNL     1       3.031   4.305  19.086  0.00  0.00    +0.000 NA
ATOM      8  H   UNL     1       2.448   3.905  19.824  0.00  0.00    +0.000 HD
BRANCH   7   9
ATOM      9  C   UNL     1       4.309   3.570  19.092  0.00  0.00    +0.000 C 
BRANCH   9  10
ATOM     10  C   UNL     1       5.234   4.005  17.973  0.00  0.00    +0.000 A 
ATOM     11  C   UNL     1       4.845   3.864  16.641  0.00  0.00    +0.000 A 
ATOM     12  C   UNL     1       5.755   4.272  15.692  0.00  0.00    +0.000 A 
ATOM     13  C   UNL     1       6.971   4.799  16.039  0.00  0.00    +0.000 A 
ATOM     14  C   UNL     1       7.292   4.919  17.363  0.00  0.00    +0.000 A 
ATOM     15  N   UNL     1       6.447   4.518  18.344  0.00  0.00    +0.000 NA
ATOM     16  O   UNL     1       7.727   5.131  14.964  0.00  0.00    +0.000 OA
ATOM     17  C   UNL     1       6.919   4.578  13.904  0.00  0.00    +0.000 C 
ATOM     18  O   UNL     1       5.594   4.205  14.342  0.00  0.00    +0.000 OA
ENDBRANCH   9  10
ENDBRANCH   7   9
ENDBRANCH   4   7
BRANCH   1  19
ATOM     19  C   UNL     1       1.478   9.658  18.806  0.00  0.00    +0.000 C 
BRANCH  19  20
ATOM     20  O   UNL     1       1.509  10.097  17.430  0.00  0.00    +0.000 OA
ATOM     21  H   UNL     1       0.655  10.544  17.277  0.00  0.00    +0.000 HD
ENDBRANCH  19  20
BRANCH  19  22
ATOM     22  C   UNL     1       0.056   9.920  19.343  0.00  0.00    +0.000 C 
BRANCH  22  31
ATOM     23  C   UNL     1       0.656  14.052  20.160  0.00  0.00    +0.000 A 
ATOM     24  C   UNL     1       0.202  14.672  21.303  0.00  0.00    +0.000 A 
ATOM     25  C   UNL     1      -0.369  13.867  22.289  0.00  0.00    +0.000 A 
ATOM     26  C   UNL     1      -0.429  12.489  22.133  0.00  0.00    +0.000 A 
ATOM     27  N   UNL     1      -0.851  11.736  23.164  0.00  0.00    +0.000 NA
ATOM     28  C   UNL     1      -0.816  10.398  22.994  0.00  0.00    +0.000 A 
ATOM     29  C   UNL     1      -0.456   9.792  21.805  0.00  0.00    +0.000 A 
ATOM     30  F   UNL     1      -0.428   8.455  21.732  0.00  0.00    +0.000 F 
ATOM     31  C   UNL     1      -0.107  10.578  20.703  0.00  0.00    +0.000 A 
ATOM     32  C   UNL     1      -0.004  11.958  20.885  0.00  0.00    +0.000 A 
ATOM     33  N   UNL     1       0.515  12.731  19.917  0.00  0.00    +0.000 NA
BRANCH  23  35
ATOM     34  C   UNL     1       1.789  16.069  19.835  0.00  0.00    +0.000 C 
ATOM     35  O   UNL     1       1.345  14.840  19.265  0.00  0.00    +0.000 OA
ENDBRANCH  23  35
ENDBRANCH  22  31
ENDBRANCH  19  22
ENDBRANCH   1  19
TORSDOF 8
ENDMDL
MODEL 3
REMARK VINA RESULT:      -8.4      7.138      9.998
REMARK  Name = 
REMARK  9 active torsions:
REMARK  status: ('A' for Active; 'I' for Inactive)
REMARK    1  A    between atoms: C_1  and  O_2
REMARK    2  A    between atoms: O_2  and  C_3
REMARK    3  A    between atoms: C_11  and  C_12
REMARK    4  A    between atoms: C_12  and  C_13
REMARK    5  A    between atoms: C_13  and  O_14
REMARK    6  A    between atoms: C_13  and  C_15
REMARK    7  A    between atoms: C_18  and  N_19
REMARK    8  A    between atoms: N_19  and  C_20
REMARK    9  A    between atoms: C_20  and  C_21
REMARK                            x       y       z     vdW  Elec       q    Type
REMARK                         _______ _______ _______ _____ _____    ______ ____
ROOT
ATOM      1  C   UNL     1       0.648   9.165  20.240  0.00  0.00    +0.000 C 
ATOM      2  O   UNL     1       1.536   9.539  19.189  0.00  0.00    +0.000 OA
ATOM      3  C   UNL     1       1.906   8.382  18.455  0.00  0.00    +0.000 C 
ATOM      4  C   UNL     1       2.541   7.290  19.342  0.00  0.00    +0.000 C 
ATOM      5  C   UNL     1       1.789   7.189  20.695  0.00  0.00    +0.000 C 
ATOM      6  O   UNL     1       1.409   8.467  21.221  0.00  0.00    +0.000 OA
ENDROOT
BRANCH   4   7
ATOM      7  N   UNL     1       2.569   5.979  18.654  0.00  0.00    +0.000 NA
ATOM      8  H   UNL     1       1.773   5.414  18.958  0.00  0.00    +0.000 HD
BRANCH   7   9
ATOM      9  C   UNL     1       3.790   5.214  18.964  0.00  0.00    +0.000 C 
BRANCH   9  10
ATOM     10  C   UNL     1       4.809   5.270  17.842  0.00  0.00    +0.000 A 
ATOM     11  C   UNL     1       4.535   4.676  16.610  0.00  0.00    +0.000 A 
ATOM     12  C   UNL     1       5.524   4.763  15.657  0.00  0.00    +0.000 A 
ATOM     13  C   UNL     1       6.706   5.410  15.902  0.00  0.00    +0.000 A 
ATOM     14  C   UNL     1       6.913   5.980  17.128  0.00  0.00    +0.000 A 
ATOM     15  N   UNL     1       5.987   5.912  18.115  0.00  0.00    +0.000 NA
ATOM     16  O   UNL     1       7.553   5.379  14.844  0.00  0.00    +0.000 OA
ATOM     17  C   UNL     1       6.838   4.477  13.972  0.00  0.00    +0.000 C 
ATOM     18  O   UNL     1       5.480   4.239  14.401  0.00  0.00    +0.000 OA
ENDBRANCH   9  10
ENDBRANCH   7   9
ENDBRANCH   4   7
BRANCH   1  19
ATOM     19  C   UNL     1      -0.009  10.448  20.783  0.00  0.00    +0.000 C 
BRANCH  19  20
ATOM     20  O   UNL     1       0.909  11.187  21.617  0.00  0.00    +0.000 OA
ATOM     21  H   UNL     1       1.690  10.611  21.726  0.00  0.00    +0.000 HD
ENDBRANCH  19  20
BRANCH  19  22
ATOM     22  C   UNL     1      -0.425  11.374  19.621  0.00  0.00    +0.000 C 
BRANCH  22  31
ATOM     23  C   UNL     1      -3.030  10.979  16.280  0.00  0.00    +0.000 A 
ATOM     24  C   UNL     1      -4.393  11.154  16.358  0.00  0.00    +0.000 A 
ATOM     25  C   UNL     1      -4.916  11.607  17.569  0.00  0.00    +0.000 A 
ATOM     26  C   UNL     1      -4.080  11.910  18.634  0.00  0.00    +0.000 A 
ATOM     27  N   UNL     1      -4.606  12.482  19.732  0.00  0.00    +0.000 NA
ATOM     28  C   UNL     1      -3.743  12.833  20.708  0.00  0.00    +0.000 A 
ATOM     29  C   UNL     1      -2.390  12.558  20.660  0.00  0.00    +0.000 A 
ATOM     30  F   UNL     1      -1.603  12.963  21.665  0.00  0.00    +0.000 F 
ATOM     31  C   UNL     1      -1.857  11.880  19.561  0.00  0.00    +0.000 A 
ATOM     32  C   UNL     1      -2.697  11.622  18.477  0.00  0.00    +0.000 A 
ATOM     33  N   UNL     1      -2.191  11.153  17.324  0.00  0.00    +0.000 NA
BRANCH  23  35
ATOM     34  C   UNL     1      -3.470  10.036  14.188  0.00  0.00    +0.000 C 
ATOM     35  O   UNL     1      -2.518  10.672  15.038  0.00  0.00    +0.000 OA
ENDBRANCH  23  35
ENDBRANCH  22  31
ENDBRANCH  19  22
ENDBRANCH   1  19
TORSDOF 8
ENDMDL
MODEL 4
REMARK VINA RESULT:      -8.3      6.574      9.477
REMARK  Name = 
REMARK  9 active torsions:
REMARK  status: ('A' for Active; 'I' for Inactive)
REMARK    1  A    between atoms: C_1  and  O_2
REMARK    2  A    between atoms: O_2  and  C_3
REMARK    3  A    between atoms: C_11  and  C_12
REMARK    4  A    between atoms: C_12  and  C_13
REMARK    5  A    between atoms: C_13  and  O_14
REMARK    6  A    between atoms: C_13  and  C_15
REMARK    7  A    between atoms: C_18  and  N_19
REMARK    8  A    between atoms: N_19  and  C_20
REMARK    9  A    between atoms: C_20  and  C_21
REMARK                            x       y       z     vdW  Elec       q    Type
REMARK                         _______ _______ _______ _____ _____    ______ ____
ROOT
ATOM      1  C   UNL     1       1.990   8.548  19.196  0.00  0.00    +0.000 C 
ATOM      2  O   UNL     1       1.302   7.687  20.099  0.00  0.00    +0.000 OA
ATOM      3  C   UNL     1       2.168   6.634  20.493  0.00  0.00    +0.000 C 
ATOM      4  C   UNL     1       2.721   5.836  19.294  0.00  0.00    +0.000 C 
ATOM      5  C   UNL     1       3.083   6.793  18.128  0.00  0.00    +0.000 C 
ATOM      6  O   UNL     1       2.133   7.854  17.960  0.00  0.00    +0.000 OA
ENDROOT
BRANCH   4   7
ATOM      7  N   UNL     1       3.888   5.012  19.681  0.00  0.00    +0.000 NA
ATOM      8  H   UNL     1       4.733   5.587  19.677  0.00  0.00    +0.000 HD
BRANCH   7   9
ATOM      9  C   UNL     1       4.116   3.896  18.746  0.00  0.00    +0.000 C 
BRANCH   9  10
ATOM     10  C   UNL     1       5.096   4.253  17.645  0.00  0.00    +0.000 A 
ATOM     11  C   UNL     1       4.764   4.038  16.307  0.00  0.00    +0.000 A 
ATOM     12  C   UNL     1       5.720   4.378  15.378  0.00  0.00    +0.000 A 
ATOM     13  C   UNL     1       6.927   4.910  15.747  0.00  0.00    +0.000 A 
ATOM     14  C   UNL     1       7.192   5.105  17.075  0.00  0.00    +0.000 A 
ATOM     15  N   UNL     1       6.299   4.773  18.039  0.00  0.00    +0.000 NA
ATOM     16  O   UNL     1       7.734   5.169  14.689  0.00  0.00    +0.000 OA
ATOM     17  C   UNL     1       6.965   4.564  13.628  0.00  0.00    +0.000 C 
ATOM     18  O   UNL     1       5.617   4.234  14.028  0.00  0.00    +0.000 OA
ENDBRANCH   9  10
ENDBRANCH   7   9
ENDBRANCH   4   7
BRANCH   1  19
ATOM     19  C   UNL     1       1.174   9.849  19.068  0.00  0.00    +0.000 C 
BRANCH  19  20
ATOM     20  O   UNL     1       0.893  10.151  17.684  0.00  0.00    +0.000 OA
ATOM     21  H   UNL     1       1.714  10.540  17.327  0.00  0.00    +0.000 HD
ENDBRANCH  19  20
BRANCH  19  22
ATOM     22  C   UNL     1      -0.180   9.710  19.795  0.00  0.00    +0.000 C 
BRANCH  22  31
ATOM     23  C   UNL     1      -3.010  10.151  16.649  0.00  0.00    +0.000 A 
ATOM     24  C   UNL     1      -4.108  10.977  16.729  0.00  0.00    +0.000 A 
ATOM     25  C   UNL     1      -4.216  11.800  17.850  0.00  0.00    +0.000 A 
ATOM     26  C   UNL     1      -3.224  11.809  18.820  0.00  0.00    +0.000 A 
ATOM     27  N   UNL     1      -3.290  12.718  19.809  0.00  0.00    +0.000 NA
ATOM     28  C   UNL     1      -2.261  12.743  20.682  0.00  0.00    +0.000 A 
ATOM     29  C   UNL     1      -1.217  11.839  20.651  0.00  0.00    +0.000 A 
ATOM     30  F   UNL     1      -0.226  11.951  21.545  0.00  0.00    +0.000 F 
ATOM     31  C   UNL     1      -1.195  10.834  19.680  0.00  0.00    +0.000 A 
ATOM     32  C   UNL     1      -2.171  10.864  18.683  0.00  0.00    +0.000 A 
ATOM     33  N   UNL     1      -2.080  10.044  17.622  0.00  0.00    +0.000 NA
BRANCH  23  35
ATOM     34  C   UNL     1      -3.318  10.174  14.333  0.00  0.00    +0.000 C 
ATOM     35  O   UNL     1      -2.847   9.456  15.471  0.00  0.00    +0.000 OA
ENDBRANCH  23  35
ENDBRANCH  22  31
ENDBRANCH  19  22
ENDBRANCH   1  19
TORSDOF 8
ENDMDL
MODEL 5
REMARK VINA RESULT:      -8.2      7.614     10.310
REMARK  Name = 
REMARK  9 active torsions:
REMARK  status: ('A' for Active; 'I' for Inactive)
REMARK    1  A    between atoms: C_1  and  O_2
REMARK    2  A    between atoms: O_2  and  C_3
REMARK    3  A    between atoms: C_11  and  C_12
REMARK    4  A    between atoms: C_12  and  C_13
REMARK    5  A    between atoms: C_13  and  O_14
REMARK    6  A    between atoms: C_13  and  C_15
REMARK    7  A    between atoms: C_18  and  N_19
REMARK    8  A    between atoms: N_19  and  C_20
REMARK    9  A    between atoms: C_20  and  C_21
REMARK                            x       y       z     vdW  Elec       q    Type
REMARK                         _______ _______ _______ _____ _____    ______ ____
ROOT
ATOM      1  C   UNL     1       0.005   9.833  20.566  0.00  0.00    +0.000 C 
ATOM      2  O   UNL     1       0.550  10.501  19.430  0.00  0.00    +0.000 OA
ATOM      3  C   UNL     1       0.967   9.537  18.476  0.00  0.00    +0.000 C 
ATOM      4  C   UNL     1       1.980   8.526  19.052  0.00  0.00    +0.000 C 
ATOM      5  C   UNL     1       1.579   8.121  20.494  0.00  0.00    +0.000 C 
ATOM      6  O   UNL     1       1.083   9.222  21.268  0.00  0.00    +0.000 OA
ENDROOT
BRANCH   4   7
ATOM      7  N   UNL     1       2.110   7.333  18.185  0.00  0.00    +0.000 NA
ATOM      8  H   UNL     1       1.184   6.946  17.991  0.00  0.00    +0.000 HD
BRANCH   7   9
ATOM      9  C   UNL     1       2.903   6.266  18.823  0.00  0.00    +0.000 C 
BRANCH   9  10
ATOM     10  C   UNL     1       3.802   5.545  17.838  0.00  0.00    +0.000 A 
ATOM     11  C   UNL     1       4.612   6.268  16.961  0.00  0.00    +0.000 A 
ATOM     12  C   UNL     1       5.384   5.530  16.093  0.00  0.00    +0.000 A 
ATOM     13  C   UNL     1       5.366   4.160  16.099  0.00  0.00    +0.000 A 
ATOM     14  C   UNL     1       4.557   3.507  16.988  0.00  0.00    +0.000 A 
ATOM     15  N   UNL     1       3.759   4.177  17.855  0.00  0.00    +0.000 NA
ATOM     16  O   UNL     1       6.186   3.619  15.165  0.00  0.00    +0.000 OA
ATOM     17  C   UNL     1       6.577   4.810  14.449  0.00  0.00    +0.000 C 
ATOM     18  O   UNL     1       6.224   6.025  15.144  0.00  0.00    +0.000 OA
ENDBRANCH   9  10
ENDBRANCH   7   9
ENDBRANCH   4   7
BRANCH   1  19
ATOM     19  C   UNL     1      -0.753  10.876  21.409  0.00  0.00    +0.000 C 
BRANCH  19  20
ATOM     20  O   UNL     1       0.071  11.367  22.489  0.00  0.00    +0.000 OA
ATOM     21  H   UNL     1      -0.055  10.736  23.224  0.00  0.00    +0.000 HD
ENDBRANCH  19  20
BRANCH  19  22
ATOM     22  C   UNL     1      -1.147  12.088  20.541  0.00  0.00    +0.000 C 
BRANCH  22  31
ATOM     23  C   UNL     1      -3.213  11.331  16.900  0.00  0.00    +0.000 A 
ATOM     24  C   UNL     1      -4.586  11.293  16.801  0.00  0.00    +0.000 A 
ATOM     25  C   UNL     1      -5.323  11.647  17.932  0.00  0.00    +0.000 A 
ATOM     26  C   UNL     1      -4.686  12.065  19.091  0.00  0.00    +0.000 A 
ATOM     27  N   UNL     1      -5.429  12.537  20.107  0.00  0.00    +0.000 NA
ATOM     28  C   UNL     1      -4.762  13.007  21.182  0.00  0.00    +0.000 A 
ATOM     29  C   UNL     1      -3.387  12.944  21.310  0.00  0.00    +0.000 A 
ATOM     30  F   UNL     1      -2.807  13.456  22.403  0.00  0.00    +0.000 F 
ATOM     31  C   UNL     1      -2.620  12.368  20.294  0.00  0.00    +0.000 A 
ATOM     32  C   UNL     1      -3.266  11.995  19.114  0.00  0.00    +0.000 A 
ATOM     33  N   UNL     1      -2.551  11.622  18.040  0.00  0.00    +0.000 NA
BRANCH  23  35
ATOM     34  C   UNL     1      -3.031  10.049  14.954  0.00  0.00    +0.000 C 
ATOM     35  O   UNL     1      -2.506  11.120  15.736  0.00  0.00    +0.000 OA
ENDBRANCH  23  35
ENDBRANCH  22  31
ENDBRANCH  19  22
ENDBRANCH   1  19
TORSDOF 8
ENDMDL
MODEL 6
REMARK VINA RESULT:      -8.1      6.805     10.473
REMARK  Name = 
REMARK  9 active torsions:
REMARK  status: ('A' for Active; 'I' for Inactive)
REMARK    1  A    between atoms: C_1  and  O_2
REMARK    2  A    between atoms: O_2  and  C_3
REMARK    3  A    between atoms: C_11  and  C_12
REMARK    4  A    between atoms: C_12  and  C_13
REMARK    5  A    between atoms: C_13  and  O_14
REMARK    6  A    between atoms: C_13  and  C_15
REMARK    7  A    between atoms: C_18  and  N_19
REMARK    8  A    between atoms: N_19  and  C_20
REMARK    9  A    between atoms: C_20  and  C_21
REMARK                            x       y       z     vdW  Elec       q    Type
REMARK                         _______ _______ _______ _____ _____    ______ ____
ROOT
ATOM      1  C   UNL     1       1.412   8.207  20.211  0.00  0.00    +0.000 C 
ATOM      2  O   UNL     1       1.644   8.561  21.573  0.00  0.00    +0.000 OA
ATOM      3  C   UNL     1       0.568   9.362  22.037  0.00  0.00    +0.000 C 
ATOM      4  C   UNL     1       0.349  10.623  21.176  0.00  0.00    +0.000 C 
ATOM      5  C   UNL     1       0.521  10.287  19.672  0.00  0.00    +0.000 C 
ATOM      6  O   UNL     1       1.601   9.377  19.422  0.00  0.00    +0.000 OA
ENDROOT
BRANCH   4   7
ATOM      7  N   UNL     1      -0.977  11.232  21.432  0.00  0.00    +0.000 NA
ATOM      8  H   UNL     1      -0.976  12.204  21.116  0.00  0.00    +0.000 HD
BRANCH   7   9
ATOM      9  C   UNL     1      -1.317  11.241  22.866  0.00  0.00    +0.000 C 
BRANCH   9  10
ATOM     10  C   UNL     1      -2.298  12.341  23.223  0.00  0.00    +0.000 A 
ATOM     11  C   UNL     1      -1.970  13.678  23.001  0.00  0.00    +0.000 A 
ATOM     12  C   UNL     1      -2.915  14.608  23.368  0.00  0.00    +0.000 A 
ATOM     13  C   UNL     1      -4.117  14.239  23.911  0.00  0.00    +0.000 A 
ATOM     14  C   UNL     1      -4.384  12.910  24.097  0.00  0.00    +0.000 A 
ATOM     15  N   UNL     1      -3.487  11.947  23.773  0.00  0.00    +0.000 NA
ATOM     16  O   UNL     1      -4.906  15.298  24.215  0.00  0.00    +0.000 OA
ATOM     17  C   UNL     1      -3.983  16.381  23.971  0.00  0.00    +0.000 C 
ATOM     18  O   UNL     1      -2.797  15.960  23.263  0.00  0.00    +0.000 OA
ENDBRANCH   9  10
ENDBRANCH   7   9
ENDBRANCH   4   7
BRANCH   1  19
ATOM     19  C   UNL     1       2.384   7.068  19.847  0.00  0.00    +0.000 C 
BRANCH  19  20
ATOM     20  O   UNL     1       2.080   5.869  20.593  0.00  0.00    +0.000 OA
ATOM     21  H   UNL     1       1.192   5.592  20.296  0.00  0.00    +0.000 HD
ENDBRANCH  19  20
BRANCH  19  22
ATOM     22  C   UNL     1       2.272   6.721  18.349  0.00  0.00    +0.000 C 
BRANCH  22  31
ATOM     23  C   UNL     1       6.355   6.740  17.154  0.00  0.00    +0.000 A 
ATOM     24  C   UNL     1       7.098   5.595  16.978  0.00  0.00    +0.000 A 
ATOM     25  C   UNL     1       6.432   4.373  17.076  0.00  0.00    +0.000 A 
ATOM     26  C   UNL     1       5.063   4.328  17.297  0.00  0.00    +0.000 A 
ATOM     27  N   UNL     1       4.434   3.141  17.240  0.00  0.00    +0.000 NA
ATOM     28  C   UNL     1       3.092   3.155  17.380  0.00  0.00    +0.000 A 
ATOM     29  C   UNL     1       2.370   4.301  17.660  0.00  0.00    +0.000 A 
ATOM     30  F   UNL     1       1.037   4.226  17.761  0.00  0.00    +0.000 F 
ATOM     31  C   UNL     1       3.034   5.521  17.813  0.00  0.00    +0.000 A 
ATOM     32  C   UNL     1       4.403   5.562  17.541  0.00  0.00    +0.000 A 
ATOM     33  N   UNL     1       5.045   6.741  17.482  0.00  0.00    +0.000 NA
BRANCH  23  35
ATOM     34  C   UNL     1       8.018   8.220  17.863  0.00  0.00    +0.000 C 
ATOM     35  O   UNL     1       6.997   7.935  16.909  0.00  0.00    +0.000 OA
ENDBRANCH  23  35
ENDBRANCH  22  31
ENDBRANCH  19  22
ENDBRANCH   1  19
TORSDOF 8
ENDMDL
MODEL 7
REMARK VINA RESULT:      -8.1      7.195     10.007
REMARK  Name = 
REMARK  9 active torsions:
REMARK  status: ('A' for Active; 'I' for Inactive)
REMARK    1  A    between atoms: C_1  and  O_2
REMARK    2  A    between atoms: O_2  and  C_3
REMARK    3  A    between atoms: C_11  and  C_12
REMARK    4  A    between atoms: C_12  and  C_13
REMARK    5  A    between atoms: C_13  and  O_14
REMARK    6  A    between atoms: C_13  and  C_15
REMARK    7  A    between atoms: C_18  and  N_19
REMARK    8  A    between atoms: N_19  and  C_20
REMARK    9  A    between atoms: C_20  and  C_21
REMARK                            x       y       z     vdW  Elec       q    Type
REMARK                         _______ _______ _______ _____ _____    ______ ____
ROOT
ATOM      1  C   UNL     1       1.367   8.373  20.097  0.00  0.00    +0.000 C 
ATOM      2  O   UNL     1       1.616   8.813  21.430  0.00  0.00    +0.000 OA
ATOM      3  C   UNL     1       0.537   9.627  21.863  0.00  0.00    +0.000 C 
ATOM      4  C   UNL     1       0.285  10.830  20.930  0.00  0.00    +0.000 C 
ATOM      5  C   UNL     1       0.438  10.405  19.447  0.00  0.00    +0.000 C 
ATOM      6  O   UNL     1       1.526   9.495  19.234  0.00  0.00    +0.000 OA
ENDROOT
BRANCH   4   7
ATOM      7  N   UNL     1      -1.044  11.436  21.172  0.00  0.00    +0.000 NA
ATOM      8  H   UNL     1      -1.750  10.700  21.245  0.00  0.00    +0.000 HD
BRANCH   7   9
ATOM      9  C   UNL     1      -1.456  12.328  20.073  0.00  0.00    +0.000 C 
BRANCH   9  10
ATOM     10  C   UNL     1      -2.957  12.323  19.854  0.00  0.00    +0.000 A 
ATOM     11  C   UNL     1      -3.498  11.758  18.699  0.00  0.00    +0.000 A 
ATOM     12  C   UNL     1      -4.868  11.811  18.577  0.00  0.00    +0.000 A 
ATOM     13  C   UNL     1      -5.656  12.376  19.544  0.00  0.00    +0.000 A 
ATOM     14  C   UNL     1      -5.067  12.907  20.659  0.00  0.00    +0.000 A 
ATOM     15  N   UNL     1      -3.722  12.903  20.829  0.00  0.00    +0.000 NA
ATOM     16  O   UNL     1      -6.976  12.340  19.237  0.00  0.00    +0.000 OA
ATOM     17  C   UNL     1      -6.907  11.853  17.879  0.00  0.00    +0.000 C 
ATOM     18  O   UNL     1      -5.601  11.344  17.530  0.00  0.00    +0.000 OA
ENDBRANCH   9  10
ENDBRANCH   7   9
ENDBRANCH   4   7
BRANCH   1  19
ATOM     19  C   UNL     1       2.348   7.227  19.786  0.00  0.00    +0.000 C 
BRANCH  19  20
ATOM     20  O   UNL     1       2.031   6.049  20.560  0.00  0.00    +0.000 OA
ATOM     21  H   UNL     1       1.393   5.543  20.020  0.00  0.00    +0.000 HD
ENDBRANCH  19  20
BRANCH  19  22
ATOM     22  C   UNL     1       2.268   6.837  18.296  0.00  0.00    +0.000 C 
BRANCH  22  31
ATOM     23  C   UNL     1       6.383   6.796  17.216  0.00  0.00    +0.000 A 
ATOM     24  C   UNL     1       7.122   5.641  17.090  0.00  0.00    +0.000 A 
ATOM     25  C   UNL     1       6.444   4.427  17.202  0.00  0.00    +0.000 A 
ATOM     26  C   UNL     1       5.069   4.397  17.386  0.00  0.00    +0.000 A 
ATOM     27  N   UNL     1       4.433   3.214  17.342  0.00  0.00    +0.000 NA
ATOM     28  C   UNL     1       3.088   3.242  17.444  0.00  0.00    +0.000 A 
ATOM     29  C   UNL     1       2.368   4.399  17.674  0.00  0.00    +0.000 A 
ATOM     30  F   UNL     1       1.031   4.337  17.740  0.00  0.00    +0.000 F 
ATOM     31  C   UNL     1       3.036   5.618  17.813  0.00  0.00    +0.000 A 
ATOM     32  C   UNL     1       4.412   5.643  17.579  0.00  0.00    +0.000 A 
ATOM     33  N   UNL     1       5.065   6.815  17.508  0.00  0.00    +0.000 NA
BRANCH  23  35
ATOM     34  C   UNL     1       8.059   8.267  17.915  0.00  0.00    +0.000 C 
ATOM     35  O   UNL     1       7.041   7.979  16.958  0.00  0.00    +0.000 OA
ENDBRANCH  23  35
ENDBRANCH  22  31
ENDBRANCH  19  22
ENDBRANCH   1  19
TORSDOF 8
ENDMDL
MODEL 8
REMARK VINA RESULT:      -8.1      5.985      8.842
REMARK  Name = 
REMARK  9 active torsions:
REMARK  status: ('A' for Active; 'I' for Inactive)
REMARK    1  A    between atoms: C_1  and  O_2
REMARK    2  A    between atoms: O_2  and  C_3
REMARK    3  A    between atoms: C_11  and  C_12
REMARK    4  A    between atoms: C_12  and  C_13
REMARK    5  A    between atoms: C_13  and  O_14
REMARK    6  A    between atoms: C_13  and  C_15
REMARK    7  A    between atoms: C_18  and  N_19
REMARK    8  A    between atoms: N_19  and  C_20
REMARK    9  A    between atoms: C_20  and  C_21
REMARK                            x       y       z     vdW  Elec       q    Type
REMARK                         _______ _______ _______ _____ _____    ______ ____
ROOT
ATOM      1  C   UNL     1       1.774   7.596  20.602  0.00  0.00    +0.000 C 
ATOM      2  O   UNL     1       1.013   6.418  20.858  0.00  0.00    +0.000 OA
ATOM      3  C   UNL     1       1.885   5.299  20.907  0.00  0.00    +0.000 C 
ATOM      4  C   UNL     1       2.722   5.138  19.621  0.00  0.00    +0.000 C 
ATOM      5  C   UNL     1       3.203   6.522  19.112  0.00  0.00    +0.000 C 
ATOM      6  O   UNL     1       2.206   7.545  19.246  0.00  0.00    +0.000 OA
ENDROOT
BRANCH   4   7
ATOM      7  N   UNL     1       3.868   4.224  19.829  0.00  0.00    +0.000 NA
ATOM      8  H   UNL     1       4.727   4.768  19.938  0.00  0.00    +0.000 HD
BRANCH   7   9
ATOM      9  C   UNL     1       4.070   3.316  18.686  0.00  0.00    +0.000 C 
BRANCH   9  10
ATOM     10  C   UNL     1       5.073   3.856  17.686  0.00  0.00    +0.000 A 
ATOM     11  C   UNL     1       4.779   3.857  16.322  0.00  0.00    +0.000 A 
ATOM     12  C   UNL     1       5.755   4.352  15.487  0.00  0.00    +0.000 A 
ATOM     13  C   UNL     1       6.943   4.830  15.971  0.00  0.00    +0.000 A 
ATOM     14  C   UNL     1       7.170   4.810  17.320  0.00  0.00    +0.000 A 
ATOM     15  N   UNL     1       6.257   4.318  18.193  0.00  0.00    +0.000 NA
ATOM     16  O   UNL     1       7.774   5.264  14.992  0.00  0.00    +0.000 OA
ATOM     17  C   UNL     1       7.042   4.831  13.826  0.00  0.00    +0.000 C 
ATOM     18  O   UNL     1       5.690   4.426  14.129  0.00  0.00    +0.000 OA
ENDBRANCH   9  10
ENDBRANCH   7   9
ENDBRANCH   4   7
BRANCH   1  19
ATOM     19  C   UNL     1       0.879   8.813  20.906  0.00  0.00    +0.000 C 
BRANCH  19  20
ATOM     20  O   UNL     1       1.307   9.481  22.113  0.00  0.00    +0.000 OA
ATOM     21  H   UNL     1       1.429  10.418  21.866  0.00  0.00    +0.000 HD
ENDBRANCH  19  20
BRANCH  19  22
ATOM     22  C   UNL     1       0.954   9.839  19.757  0.00  0.00    +0.000 C 
BRANCH  22  31
ATOM     23  C   UNL     1      -2.839  10.352  17.901  0.00  0.00    +0.000 A 
ATOM     24  C   UNL     1      -3.719  11.355  18.241  0.00  0.00    +0.000 A 
ATOM     25  C   UNL     1      -3.280  12.317  19.151  0.00  0.00    +0.000 A 
ATOM     26  C   UNL     1      -1.986  12.281  19.651  0.00  0.00    +0.000 A 
ATOM     27  N   UNL     1      -1.553  13.304  20.409  0.00  0.00    +0.000 NA
ATOM     28  C   UNL     1      -0.264  13.265  20.805  0.00  0.00    +0.000 A 
ATOM     29  C   UNL     1       0.579  12.202  20.543  0.00  0.00    +0.000 A 
ATOM     30  F   UNL     1       1.851  12.257  20.957  0.00  0.00    +0.000 F 
ATOM     31  C   UNL     1       0.102  11.095  19.836  0.00  0.00    +0.000 A 
ATOM     32  C   UNL     1      -1.184  11.163  19.297  0.00  0.00    +0.000 A 
ATOM     33  N   UNL     1      -1.613  10.214  18.449  0.00  0.00    +0.000 NA
BRANCH  23  35
ATOM     34  C   UNL     1      -2.840   9.943  15.601  0.00  0.00    +0.000 C 
ATOM     35  O   UNL     1      -3.238   9.498  16.896  0.00  0.00    +0.000 OA
ENDBRANCH  23  35
ENDBRANCH  22  31
ENDBRANCH  19  22
ENDBRANCH   1  19
TORSDOF 8
ENDMDL
MODEL 9
REMARK VINA RESULT:      -8.1      7.632      9.999
REMARK  Name = 
REMARK  9 active torsions:
REMARK  status: ('A' for Active; 'I' for Inactive)
REMARK    1  A    between atoms: C_1  and  O_2
REMARK    2  A    between atoms: O_2  and  C_3
REMARK    3  A    between atoms: C_11  and  C_12
REMARK    4  A    between atoms: C_12  and  C_13
REMARK    5  A    between atoms: C_13  and  O_14
REMARK    6  A    between atoms: C_13  and  C_15
REMARK    7  A    between atoms: C_18  and  N_19
REMARK    8  A    between atoms: N_19  and  C_20
REMARK    9  A    between atoms: C_20  and  C_21
REMARK                            x       y       z     vdW  Elec       q    Type
REMARK                         _______ _______ _______ _____ _____    ______ ____
ROOT
ATOM      1  C   UNL     1       0.046   9.971  20.300  0.00  0.00    +0.000 C 
ATOM      2  O   UNL     1       0.638  10.840  19.337  0.00  0.00    +0.000 OA
ATOM      3  C   UNL     1       1.110  10.072  18.242  0.00  0.00    +0.000 C 
ATOM      4  C   UNL     1       2.106   8.973  18.669  0.00  0.00    +0.000 C 
ATOM      5  C   UNL     1       1.640   8.305  19.988  0.00  0.00    +0.000 C 
ATOM      6  O   UNL     1       1.096   9.242  20.928  0.00  0.00    +0.000 OA
ENDROOT
BRANCH   4   7
ATOM      7  N   UNL     1       2.290   7.963  17.602  0.00  0.00    +0.000 NA
ATOM      8  H   UNL     1       1.557   7.253  17.670  0.00  0.00    +0.000 HD
BRANCH   7   9
ATOM      9  C   UNL     1       3.584   7.266  17.714  0.00  0.00    +0.000 C 
BRANCH   9  10
ATOM     10  C   UNL     1       3.424   5.798  18.059  0.00  0.00    +0.000 A 
ATOM     11  C   UNL     1       2.191   5.165  17.897  0.00  0.00    +0.000 A 
ATOM     12  C   UNL     1       2.135   3.836  18.249  0.00  0.00    +0.000 A 
ATOM     13  C   UNL     1       3.234   3.169  18.721  0.00  0.00    +0.000 A 
ATOM     14  C   UNL     1       4.418   3.842  18.851  0.00  0.00    +0.000 A 
ATOM     15  N   UNL     1       4.533   5.156  18.539  0.00  0.00    +0.000 NA
ATOM     16  O   UNL     1       2.975   1.873  19.022  0.00  0.00    +0.000 OA
ATOM     17  C   UNL     1       1.540   1.856  18.858  0.00  0.00    +0.000 C 
ATOM     18  O   UNL     1       1.036   3.035  18.194  0.00  0.00    +0.000 OA
ENDBRANCH   9  10
ENDBRANCH   7   9
ENDBRANCH   4   7
BRANCH   1  19
ATOM     19  C   UNL     1      -0.763  10.837  21.285  0.00  0.00    +0.000 C 
BRANCH  19  20
ATOM     20  O   UNL     1       0.016  11.151  22.459  0.00  0.00    +0.000 OA
ATOM     21  H   UNL     1       0.948  11.131  22.170  0.00  0.00    +0.000 HD
ENDBRANCH  19  20
BRANCH  19  22
ATOM     22  C   UNL     1      -1.164  12.173  20.625  0.00  0.00    +0.000 C 
BRANCH  22  31
ATOM     23  C   UNL     1      -3.203  11.244  17.008  0.00  0.00    +0.000 A 
ATOM     24  C   UNL     1      -4.575  11.208  16.900  0.00  0.00    +0.000 A 
ATOM     25  C   UNL     1      -5.319  11.621  18.005  0.00  0.00    +0.000 A 
ATOM     26  C   UNL     1      -4.690  12.094  19.148  0.00  0.00    +0.000 A 
ATOM     27  N   UNL     1      -5.439  12.619  20.133  0.00  0.00    +0.000 NA
ATOM     28  C   UNL     1      -4.779  13.139  21.188  0.00  0.00    +0.000 A 
ATOM     29  C   UNL     1      -3.406  13.076  21.331  0.00  0.00    +0.000 A 
ATOM     30  F   UNL     1      -2.832  13.639  22.402  0.00  0.00    +0.000 F 
ATOM     31  C   UNL     1      -2.633  12.446  20.351  0.00  0.00    +0.000 A 
ATOM     32  C   UNL     1      -3.271  12.018  19.186  0.00  0.00    +0.000 A 
ATOM     33  N   UNL     1      -2.549  11.588  18.138  0.00  0.00    +0.000 NA
BRANCH  23  35
ATOM     34  C   UNL     1      -3.299  10.448  14.814  0.00  0.00    +0.000 C 
ATOM     35  O   UNL     1      -2.488  10.973  15.862  0.00  0.00    +0.000 OA
ENDBRANCH  23  35
ENDBRANCH  22  31
ENDBRANCH  19  22
ENDBRANCH   1  19
TORSDOF 8
ENDMDL
