MODEL 1
REMARK VINA RESULT:      -7.4      0.000      0.000
REMARK  Name = 
REMARK  10 active torsions:
REMARK  status: ('A' for Active; 'I' for Inactive)
REMARK    1  A    between atoms: C_1  and  O_2
REMARK    2  A    between atoms: O_2  and  C_3
REMARK    3  A    between atoms: C_12  and  C_13
REMARK    4  A    between atoms: C_16  and  O_17
REMARK    5  A    between atoms: C_23  and  C_24
REMARK    6  A    between atoms: C_23  and  C_25
REMARK    7  A    between atoms: C_25  and  C_26
REMARK    8  A    between atoms: C_26  and  C_27
REMARK    9  A    between atoms: C_28  and  C_29
REMARK   10  A    between atoms: C_28  and  C_30
REMARK                            x       y       z     vdW  Elec       q    Type
REMARK                         _______ _______ _______ _____ _____    ______ ____
ROOT
ATOM      1  C   UNL     1       0.368   9.178  21.612  0.00  0.00    +0.000 A 
ATOM      2  C   UNL     1       1.057   8.025  21.226  0.00  0.00    +0.000 A 
ATOM      3  C   UNL     1       1.792   7.979  20.057  0.00  0.00    +0.000 A 
ATOM      4  C   UNL     1       1.835   9.083  19.216  0.00  0.00    +0.000 A 
ATOM      5  C   UNL     1       1.107  10.235  19.552  0.00  0.00    +0.000 A 
ATOM      6  C   UNL     1       0.389  10.307  20.766  0.00  0.00    +0.000 A 
ATOM      7  C   UNL     1      -0.239  11.619  21.086  0.00  0.00    +0.000 C 
ATOM      8  O   UNL     1      -0.807  11.838  22.164  0.00  0.00    +0.000 OA
ATOM      9  C   UNL     1      -0.065  12.730  20.081  0.00  0.00    +0.000 C 
ATOM     10  C   UNL     1      -0.016  12.131  18.679  0.00  0.00    +0.000 C 
ATOM     11  O   UNL     1       1.114  11.249  18.615  0.00  0.00    +0.000 OA
ATOM     12  C   UNL     1       2.614   8.974  17.986  0.00  0.00    +0.000 C 
ATOM     13  C   UNL     1       3.007   7.756  17.604  0.00  0.00    +0.000 C 
ATOM     14  C   UNL     1       2.707   6.513  18.413  0.00  0.00    +0.000 C 
ATOM     15  C   UNL     1       3.953   5.607  18.385  0.00  0.00    +0.000 C 
ATOM     16  O   UNL     1       2.453   6.802  19.805  0.00  0.00    +0.000 OA
ENDROOT
BRANCH  10  17
ATOM     17  C   UNL     1      -1.327  11.489  18.212  0.00  0.00    +0.000 A 
ATOM     18  C   UNL     1      -1.303  10.407  17.319  0.00  0.00    +0.000 A 
ATOM     19  C   UNL     1      -2.475   9.907  16.753  0.00  0.00    +0.000 A 
ATOM     20  C   UNL     1      -3.692  10.482  17.094  0.00  0.00    +0.000 A 
ATOM     21  C   UNL     1      -3.753  11.495  18.038  0.00  0.00    +0.000 A 
ATOM     22  C   UNL     1      -2.580  11.974  18.628  0.00  0.00    +0.000 A 
BRANCH  20  23
ATOM     23  O   UNL     1      -4.853  10.075  16.510  0.00  0.00    +0.000 OA
ATOM     24  H   UNL     1      -4.677   9.879  15.575  0.00  0.00    +0.000 HD
ENDBRANCH  20  23
ENDBRANCH  10  17
BRANCH   1  26
ATOM     25  C   UNL     1       0.435   9.286  23.960  0.00  0.00    +0.000 C 
ATOM     26  O   UNL     1      -0.365   9.185  22.774  0.00  0.00    +0.000 OA
ENDBRANCH   1  26
BRANCH  14  27
ATOM     27  C   UNL     1       1.472   5.764  17.855  0.00  0.00    +0.000 C 
BRANCH  27  28
ATOM     28  C   UNL     1       1.536   4.258  18.078  0.00  0.00    +0.000 C 
BRANCH  28  29
ATOM     29  C   UNL     1       1.126   3.852  19.467  0.00  0.00    +0.000 C 
ATOM     30  C   UNL     1       1.853   3.063  20.266  0.00  0.00    +0.000 C 
ATOM     31  C   UNL     1       3.213   2.520  19.922  0.00  0.00    +0.000 C 
ATOM     32  C   UNL     1       1.338   2.651  21.621  0.00  0.00    +0.000 C 
ENDBRANCH  28  29
ENDBRANCH  27  28
ENDBRANCH  14  27
TORSDOF 6
ENDMDL
MODEL 2
REMARK VINA RESULT:      -7.2      3.797      7.643
REMARK  Name = 
REMARK  10 active torsions:
REMARK  status: ('A' for Active; 'I' for Inactive)
REMARK    1  A    between atoms: C_1  and  O_2
REMARK    2  A    between atoms: O_2  and  C_3
REMARK    3  A    between atoms: C_12  and  C_13
REMARK    4  A    between atoms: C_16  and  O_17
REMARK    5  A    between atoms: C_23  and  C_24
REMARK    6  A    between atoms: C_23  and  C_25
REMARK    7  A    between atoms: C_25  and  C_26
REMARK    8  A    between atoms: C_26  and  C_27
REMARK    9  A    between atoms: C_28  and  C_29
REMARK   10  A    between atoms: C_28  and  C_30
REMARK                            x       y       z     vdW  Elec       q    Type
REMARK                         _______ _______ _______ _____ _____    ______ ____
ROOT
ATOM      1  C   UNL     1       0.277  14.179  20.111  0.00  0.00    +0.000 A 
ATOM      2  C   UNL     1      -0.494  14.740  21.134  0.00  0.00    +0.000 A 
ATOM      3  C   UNL     1      -1.187  13.953  22.032  0.00  0.00    +0.000 A 
ATOM      4  C   UNL     1      -1.156  12.569  21.916  0.00  0.00    +0.000 A 
ATOM      5  C   UNL     1      -0.434  11.981  20.865  0.00  0.00    +0.000 A 
ATOM      6  C   UNL     1       0.313  12.776  19.969  0.00  0.00    +0.000 A 
ATOM      7  C   UNL     1       1.146  12.045  18.973  0.00  0.00    +0.000 C 
ATOM      8  O   UNL     1       1.921  12.626  18.202  0.00  0.00    +0.000 OA
ATOM      9  C   UNL     1       1.096  10.538  19.007  0.00  0.00    +0.000 C 
ATOM     10  C   UNL     1      -0.299  10.095  19.437  0.00  0.00    +0.000 C 
ATOM     11  O   UNL     1      -0.539  10.609  20.755  0.00  0.00    +0.000 OA
ATOM     12  C   UNL     1      -1.919  11.786  22.884  0.00  0.00    +0.000 C 
ATOM     13  C   UNL     1      -2.811  12.430  23.640  0.00  0.00    +0.000 C 
ATOM     14  C   UNL     1      -3.023  13.926  23.554  0.00  0.00    +0.000 C 
ATOM     15  C   UNL     1      -3.217  14.469  24.983  0.00  0.00    +0.000 C 
ATOM     16  O   UNL     1      -1.879  14.621  23.012  0.00  0.00    +0.000 OA
ENDROOT
BRANCH  10  17
ATOM     17  C   UNL     1      -1.412  10.422  18.435  0.00  0.00    +0.000 A 
ATOM     18  C   UNL     1      -2.460  11.279  18.801  0.00  0.00    +0.000 A 
ATOM     19  C   UNL     1      -3.565  11.469  17.972  0.00  0.00    +0.000 A 
ATOM     20  C   UNL     1      -3.620  10.808  16.752  0.00  0.00    +0.000 A 
ATOM     21  C   UNL     1      -2.560  10.023  16.328  0.00  0.00    +0.000 A 
ATOM     22  C   UNL     1      -1.438   9.859  17.146  0.00  0.00    +0.000 A 
BRANCH  20  23
ATOM     23  O   UNL     1      -4.713  10.906  15.945  0.00  0.00    +0.000 OA
ATOM     24  H   UNL     1      -5.477  11.161  16.488  0.00  0.00    +0.000 HD
ENDBRANCH  20  23
ENDBRANCH  10  17
BRANCH   1  26
ATOM     25  C   UNL     1       0.108  15.987  18.617  0.00  0.00    +0.000 C 
ATOM     26  O   UNL     1       0.942  14.992  19.226  0.00  0.00    +0.000 OA
ENDBRANCH   1  26
BRANCH  14  27
ATOM     27  C   UNL     1      -4.245  14.269  22.667  0.00  0.00    +0.000 C 
BRANCH  27  28
ATOM     28  C   UNL     1      -5.228  13.112  22.530  0.00  0.00    +0.000 C 
BRANCH  28  29
ATOM     29  C   UNL     1      -5.596  12.821  21.102  0.00  0.00    +0.000 C 
ATOM     30  C   UNL     1      -6.707  12.174  20.728  0.00  0.00    +0.000 C 
ATOM     31  C   UNL     1      -7.780  11.704  21.670  0.00  0.00    +0.000 C 
ATOM     32  C   UNL     1      -6.968  11.865  19.276  0.00  0.00    +0.000 C 
ENDBRANCH  28  29
ENDBRANCH  27  28
ENDBRANCH  14  27
TORSDOF 6
ENDMDL
MODEL 3
REMARK VINA RESULT:      -7.0      3.575      7.693
REMARK  Name = 
REMARK  10 active torsions:
REMARK  status: ('A' for Active; 'I' for Inactive)
REMARK    1  A    between atoms: C_1  and  O_2
REMARK    2  A    between atoms: O_2  and  C_3
REMARK    3  A    between atoms: C_12  and  C_13
REMARK    4  A    between atoms: C_16  and  O_17
REMARK    5  A    between atoms: C_23  and  C_24
REMARK    6  A    between atoms: C_23  and  C_25
REMARK    7  A    between atoms: C_25  and  C_26
REMARK    8  A    between atoms: C_26  and  C_27
REMARK    9  A    between atoms: C_28  and  C_29
REMARK   10  A    between atoms: C_28  and  C_30
REMARK                            x       y       z     vdW  Elec       q    Type
REMARK                         _______ _______ _______ _____ _____    ______ ____
ROOT
ATOM      1  C   UNL     1       1.188  13.824  19.760  0.00  0.00    +0.000 A 
ATOM      2  C   UNL     1       0.628  14.586  20.790  0.00  0.00    +0.000 A 
ATOM      3  C   UNL     1      -0.112  14.003  21.801  0.00  0.00    +0.000 A 
ATOM      4  C   UNL     1      -0.343  12.633  21.795  0.00  0.00    +0.000 A 
ATOM      5  C   UNL     1       0.161  11.853  20.742  0.00  0.00    +0.000 A 
ATOM      6  C   UNL     1       0.955  12.433  19.730  0.00  0.00    +0.000 A 
ATOM      7  C   UNL     1       1.548  11.495  18.736  0.00  0.00    +0.000 C 
ATOM      8  O   UNL     1       2.342  11.869  17.862  0.00  0.00    +0.000 OA
ATOM      9  C   UNL     1       1.229  10.030  18.895  0.00  0.00    +0.000 C 
ATOM     10  C   UNL     1      -0.179   9.886  19.465  0.00  0.00    +0.000 C 
ATOM     11  O   UNL     1      -0.201  10.521  20.752  0.00  0.00    +0.000 OA
ATOM     12  C   UNL     1      -1.145  12.072  22.879  0.00  0.00    +0.000 C 
ATOM     13  C   UNL     1      -1.833  12.920  23.647  0.00  0.00    +0.000 C 
ATOM     14  C   UNL     1      -1.777  14.420  23.457  0.00  0.00    +0.000 C 
ATOM     15  C   UNL     1      -1.738  15.082  24.848  0.00  0.00    +0.000 C 
ATOM     16  O   UNL     1      -0.580  14.851  22.773  0.00  0.00    +0.000 OA
ENDROOT
BRANCH  10  17
ATOM     17  C   UNL     1      -1.300  10.350  18.529  0.00  0.00    +0.000 A 
ATOM     18  C   UNL     1      -2.273  11.249  18.987  0.00  0.00    +0.000 A 
ATOM     19  C   UNL     1      -3.391  11.565  18.215  0.00  0.00    +0.000 A 
ATOM     20  C   UNL     1      -3.533  10.989  16.960  0.00  0.00    +0.000 A 
ATOM     21  C   UNL     1      -2.544  10.163  16.448  0.00  0.00    +0.000 A 
ATOM     22  C   UNL     1      -1.409   9.874  17.210  0.00  0.00    +0.000 A 
BRANCH  20  23
ATOM     23  O   UNL     1      -4.643  11.211  16.203  0.00  0.00    +0.000 OA
ATOM     24  H   UNL     1      -4.671  12.152  15.964  0.00  0.00    +0.000 HD
ENDBRANCH  20  23
ENDBRANCH  10  17
BRANCH   1  26
ATOM     25  C   UNL     1       1.963  15.865  18.887  0.00  0.00    +0.000 C 
ATOM     26  O   UNL     1       1.906  14.438  18.763  0.00  0.00    +0.000 OA
ENDBRANCH   1  26
BRANCH  14  27
ATOM     27  C   UNL     1      -2.992  14.928  22.642  0.00  0.00    +0.000 C 
BRANCH  27  28
ATOM     28  C   UNL     1      -3.946  13.812  22.233  0.00  0.00    +0.000 C 
BRANCH  28  29
ATOM     29  C   UNL     1      -5.349  14.029  22.726  0.00  0.00    +0.000 C 
ATOM     30  C   UNL     1      -5.891  13.381  23.764  0.00  0.00    +0.000 C 
ATOM     31  C   UNL     1      -5.160  12.392  24.630  0.00  0.00    +0.000 C 
ATOM     32  C   UNL     1      -7.329  13.611  24.152  0.00  0.00    +0.000 C 
ENDBRANCH  28  29
ENDBRANCH  27  28
ENDBRANCH  14  27
TORSDOF 6
ENDMDL
MODEL 4
REMARK VINA RESULT:      -6.9      7.492      9.297
REMARK  Name = 
REMARK  10 active torsions:
REMARK  status: ('A' for Active; 'I' for Inactive)
REMARK    1  A    between atoms: C_1  and  O_2
REMARK    2  A    between atoms: O_2  and  C_3
REMARK    3  A    between atoms: C_12  and  C_13
REMARK    4  A    between atoms: C_16  and  O_17
REMARK    5  A    between atoms: C_23  and  C_24
REMARK    6  A    between atoms: C_23  and  C_25
REMARK    7  A    between atoms: C_25  and  C_26
REMARK    8  A    between atoms: C_26  and  C_27
REMARK    9  A    between atoms: C_28  and  C_29
REMARK   10  A    between atoms: C_28  and  C_30
REMARK                            x       y       z     vdW  Elec       q    Type
REMARK                         _______ _______ _______ _____ _____    ______ ____
ROOT
ATOM      1  C   UNL     1       7.358  13.580  22.104  0.00  0.00    +0.000 A 
ATOM      2  C   UNL     1       8.546  13.657  21.370  0.00  0.00    +0.000 A 
ATOM      3  C   UNL     1       8.834  14.747  20.573  0.00  0.00    +0.000 A 
ATOM      4  C   UNL     1       7.922  15.788  20.458  0.00  0.00    +0.000 A 
ATOM      5  C   UNL     1       6.698  15.711  21.141  0.00  0.00    +0.000 A 
ATOM      6  C   UNL     1       6.413  14.622  21.992  0.00  0.00    +0.000 A 
ATOM      7  C   UNL     1       5.145  14.703  22.769  0.00  0.00    +0.000 C 
ATOM      8  O   UNL     1       4.834  13.861  23.622  0.00  0.00    +0.000 OA
ATOM      9  C   UNL     1       4.284  15.922  22.556  0.00  0.00    +0.000 C 
ATOM     10  C   UNL     1       4.427  16.388  21.110  0.00  0.00    +0.000 C 
ATOM     11  O   UNL     1       5.803  16.732  20.891  0.00  0.00    +0.000 OA
ATOM     12  C   UNL     1       8.271  16.908  19.589  0.00  0.00    +0.000 C 
ATOM     13  C   UNL     1       9.298  16.749  18.751  0.00  0.00    +0.000 C 
ATOM     14  C   UNL     1      10.121  15.480  18.703  0.00  0.00    +0.000 C 
ATOM     15  C   UNL     1      11.602  15.871  18.530  0.00  0.00    +0.000 C 
ATOM     16  O   UNL     1      10.047  14.721  19.930  0.00  0.00    +0.000 OA
ENDROOT
BRANCH  10  17
ATOM     17  C   UNL     1       3.859  15.420  20.067  0.00  0.00    +0.000 A 
ATOM     18  C   UNL     1       2.789  14.576  20.398  0.00  0.00    +0.000 A 
ATOM     19  C   UNL     1       2.357  13.576  19.527  0.00  0.00    +0.000 A 
ATOM     20  C   UNL     1       2.990  13.425  18.300  0.00  0.00    +0.000 A 
ATOM     21  C   UNL     1       3.993  14.300  17.912  0.00  0.00    +0.000 A 
ATOM     22  C   UNL     1       4.403  15.321  18.773  0.00  0.00    +0.000 A 
BRANCH  20  23
ATOM     23  O   UNL     1       2.650  12.417  17.450  0.00  0.00    +0.000 OA
ATOM     24  H   UNL     1       2.355  11.655  17.976  0.00  0.00    +0.000 HD
ENDBRANCH  20  23
ENDBRANCH  10  17
BRANCH   1  26
ATOM     25  C   UNL     1       8.175  11.530  22.916  0.00  0.00    +0.000 C 
ATOM     26  O   UNL     1       7.097  12.475  22.876  0.00  0.00    +0.000 OA
ENDBRANCH   1  26
BRANCH  14  27
ATOM     27  C   UNL     1       9.661  14.555  17.550  0.00  0.00    +0.000 C 
BRANCH  27  28
ATOM     28  C   UNL     1      10.473  13.269  17.454  0.00  0.00    +0.000 C 
BRANCH  28  29
ATOM     29  C   UNL     1       9.717  12.061  17.931  0.00  0.00    +0.000 C 
ATOM     30  C   UNL     1      10.118  11.268  18.932  0.00  0.00    +0.000 C 
ATOM     31  C   UNL     1      11.345  11.505  19.770  0.00  0.00    +0.000 C 
ATOM     32  C   UNL     1       9.333  10.037  19.305  0.00  0.00    +0.000 C 
ENDBRANCH  28  29
ENDBRANCH  27  28
ENDBRANCH  14  27
TORSDOF 6
ENDMDL
MODEL 5
REMARK VINA RESULT:      -6.9      3.938      6.669
REMARK  Name = 
REMARK  10 active torsions:
REMARK  status: ('A' for Active; 'I' for Inactive)
REMARK    1  A    between atoms: C_1  and  O_2
REMARK    2  A    between atoms: O_2  and  C_3
REMARK    3  A    between atoms: C_12  and  C_13
REMARK    4  A    between atoms: C_16  and  O_17
REMARK    5  A    between atoms: C_23  and  C_24
REMARK    6  A    between atoms: C_23  and  C_25
REMARK    7  A    between atoms: C_25  and  C_26
REMARK    8  A    between atoms: C_26  and  C_27
REMARK    9  A    between atoms: C_28  and  C_29
REMARK   10  A    between atoms: C_28  and  C_30
REMARK                            x       y       z     vdW  Elec       q    Type
REMARK                         _______ _______ _______ _____ _____    ______ ____
ROOT
ATOM      1  C   UNL     1      -1.735  12.128  22.871  0.00  0.00    +0.000 A 
ATOM      2  C   UNL     1      -0.674  12.586  22.084  0.00  0.00    +0.000 A 
ATOM      3  C   UNL     1      -0.746  13.783  21.399  0.00  0.00    +0.000 A 
ATOM      4  C   UNL     1      -1.903  14.550  21.455  0.00  0.00    +0.000 A 
ATOM      5  C   UNL     1      -3.003  14.087  22.194  0.00  0.00    +0.000 A 
ATOM      6  C   UNL     1      -2.923  12.887  22.933  0.00  0.00    +0.000 A 
ATOM      7  C   UNL     1      -4.099  12.555  23.785  0.00  0.00    +0.000 C 
ATOM      8  O   UNL     1      -4.108  11.585  24.555  0.00  0.00    +0.000 OA
ATOM      9  C   UNL     1      -5.260  13.516  23.761  0.00  0.00    +0.000 C 
ATOM     10  C   UNL     1      -5.366  14.136  22.371  0.00  0.00    +0.000 C 
ATOM     11  O   UNL     1      -4.150  14.852  22.113  0.00  0.00    +0.000 OA
ATOM     12  C   UNL     1      -1.930  15.799  20.699  0.00  0.00    +0.000 C 
ATOM     13  C   UNL     1      -0.972  15.998  19.790  0.00  0.00    +0.000 C 
ATOM     14  C   UNL     1       0.143  15.004  19.553  0.00  0.00    +0.000 C 
ATOM     15  C   UNL     1       1.452  15.789  19.340  0.00  0.00    +0.000 C 
ATOM     16  O   UNL     1       0.372  14.141  20.689  0.00  0.00    +0.000 OA
ENDROOT
BRANCH  10  17
ATOM     17  C   UNL     1      -5.751  13.153  21.260  0.00  0.00    +0.000 A 
ATOM     18  C   UNL     1      -5.083  13.187  20.027  0.00  0.00    +0.000 A 
ATOM     19  C   UNL     1      -5.515  12.419  18.946  0.00  0.00    +0.000 A 
ATOM     20  C   UNL     1      -6.618  11.591  19.100  0.00  0.00    +0.000 A 
ATOM     21  C   UNL     1      -7.244  11.473  20.332  0.00  0.00    +0.000 A 
ATOM     22  C   UNL     1      -6.791  12.219  21.422  0.00  0.00    +0.000 A 
BRANCH  20  23
ATOM     23  O   UNL     1      -7.119  10.879  18.053  0.00  0.00    +0.000 OA
ATOM     24  H   UNL     1      -7.468  10.037  18.389  0.00  0.00    +0.000 HD
ENDBRANCH  20  23
ENDBRANCH  10  17
BRANCH   1  26
ATOM     25  C   UNL     1      -0.573  10.091  23.047  0.00  0.00    +0.000 C 
ATOM     26  O   UNL     1      -1.635  10.926  23.528  0.00  0.00    +0.000 OA
ENDBRANCH   1  26
BRANCH  14  27
ATOM     27  C   UNL     1      -0.160  14.102  18.331  0.00  0.00    +0.000 C 
BRANCH  27  28
ATOM     28  C   UNL     1      -0.065  12.615  18.649  0.00  0.00    +0.000 C 
BRANCH  28  29
ATOM     29  C   UNL     1      -1.343  11.873  18.369  0.00  0.00    +0.000 C 
ATOM     30  C   UNL     1      -1.402  10.582  18.019  0.00  0.00    +0.000 C 
ATOM     31  C   UNL     1      -0.212   9.668  17.920  0.00  0.00    +0.000 C 
ATOM     32  C   UNL     1      -2.721   9.931  17.692  0.00  0.00    +0.000 C 
ENDBRANCH  28  29
ENDBRANCH  27  28
ENDBRANCH  14  27
TORSDOF 6
ENDMDL
MODEL 6
REMARK VINA RESULT:      -6.9      4.453      6.223
REMARK  Name = 
REMARK  10 active torsions:
REMARK  status: ('A' for Active; 'I' for Inactive)
REMARK    1  A    between atoms: C_1  and  O_2
REMARK    2  A    between atoms: O_2  and  C_3
REMARK    3  A    between atoms: C_12  and  C_13
REMARK    4  A    between atoms: C_16  and  O_17
REMARK    5  A    between atoms: C_23  and  C_24
REMARK    6  A    between atoms: C_23  and  C_25
REMARK    7  A    between atoms: C_25  and  C_26
REMARK    8  A    between atoms: C_26  and  C_27
REMARK    9  A    between atoms: C_28  and  C_29
REMARK   10  A    between atoms: C_28  and  C_30
REMARK                            x       y       z     vdW  Elec       q    Type
REMARK                         _______ _______ _______ _____ _____    ______ ____
ROOT
ATOM      1  C   UNL     1      -1.432  11.666  22.722  0.00  0.00    +0.000 A 
ATOM      2  C   UNL     1      -0.313  11.850  21.903  0.00  0.00    +0.000 A 
ATOM      3  C   UNL     1      -0.192  12.953  21.080  0.00  0.00    +0.000 A 
ATOM      4  C   UNL     1      -1.209  13.897  21.026  0.00  0.00    +0.000 A 
ATOM      5  C   UNL     1      -2.368  13.709  21.797  0.00  0.00    +0.000 A 
ATOM      6  C   UNL     1      -2.481  12.608  22.673  0.00  0.00    +0.000 A 
ATOM      7  C   UNL     1      -3.692  12.575  23.539  0.00  0.00    +0.000 C 
ATOM      8  O   UNL     1      -3.856  11.718  24.418  0.00  0.00    +0.000 OA
ATOM      9  C   UNL     1      -4.683  13.700  23.383  0.00  0.00    +0.000 C 
ATOM     10  C   UNL     1      -4.691  14.159  21.928  0.00  0.00    +0.000 C 
ATOM     11  O   UNL     1      -3.375  14.633  21.607  0.00  0.00    +0.000 OA
ATOM     12  C   UNL     1      -1.036  15.035  20.128  0.00  0.00    +0.000 C 
ATOM     13  C   UNL     1      -0.061  14.967  19.218  0.00  0.00    +0.000 C 
ATOM     14  C   UNL     1       0.878  13.785  19.118  0.00  0.00    +0.000 C 
ATOM     15  C   UNL     1       2.296  14.317  18.835  0.00  0.00    +0.000 C 
ATOM     16  O   UNL     1       0.967  13.038  20.351  0.00  0.00    +0.000 OA
ENDROOT
BRANCH  10  17
ATOM     17  C   UNL     1      -5.233  13.126  20.935  0.00  0.00    +0.000 A 
ATOM     18  C   UNL     1      -4.774  13.114  19.610  0.00  0.00    +0.000 A 
ATOM     19  C   UNL     1      -5.361  12.295  18.645  0.00  0.00    +0.000 A 
ATOM     20  C   UNL     1      -6.411  11.463  19.010  0.00  0.00    +0.000 A 
ATOM     21  C   UNL     1      -6.828  11.392  20.330  0.00  0.00    +0.000 A 
ATOM     22  C   UNL     1      -6.217  12.190  21.301  0.00  0.00    +0.000 A 
BRANCH  20  23
ATOM     23  O   UNL     1      -7.062  10.702  18.087  0.00  0.00    +0.000 OA
ATOM     24  H   UNL     1      -7.511  11.293  17.460  0.00  0.00    +0.000 HD
ENDBRANCH  20  23
ENDBRANCH  10  17
BRANCH   1  26
ATOM     25  C   UNL     1      -0.473   9.601  23.308  0.00  0.00    +0.000 C 
ATOM     26  O   UNL     1      -1.526  10.551  23.518  0.00  0.00    +0.000 OA
ENDBRANCH   1  26
BRANCH  14  27
ATOM     27  C   UNL     1       0.429  12.804  18.006  0.00  0.00    +0.000 C 
BRANCH  27  28
ATOM     28  C   UNL     1      -1.079  12.800  17.787  0.00  0.00    +0.000 C 
BRANCH  28  29
ATOM     29  C   UNL     1      -1.718  11.483  18.128  0.00  0.00    +0.000 C 
ATOM     30  C   UNL     1      -2.477  10.773  17.284  0.00  0.00    +0.000 C 
ATOM     31  C   UNL     1      -2.748  11.152  15.854  0.00  0.00    +0.000 C 
ATOM     32  C   UNL     1      -3.135   9.493  17.728  0.00  0.00    +0.000 C 
ENDBRANCH  28  29
ENDBRANCH  27  28
ENDBRANCH  14  27
TORSDOF 6
ENDMDL
MODEL 7
REMARK VINA RESULT:      -6.8      7.524      9.190
REMARK  Name = 
REMARK  10 active torsions:
REMARK  status: ('A' for Active; 'I' for Inactive)
REMARK    1  A    between atoms: C_1  and  O_2
REMARK    2  A    between atoms: O_2  and  C_3
REMARK    3  A    between atoms: C_12  and  C_13
REMARK    4  A    between atoms: C_16  and  O_17
REMARK    5  A    between atoms: C_23  and  C_24
REMARK    6  A    between atoms: C_23  and  C_25
REMARK    7  A    between atoms: C_25  and  C_26
REMARK    8  A    between atoms: C_26  and  C_27
REMARK    9  A    between atoms: C_28  and  C_29
REMARK   10  A    between atoms: C_28  and  C_30
REMARK                            x       y       z     vdW  Elec       q    Type
REMARK                         _______ _______ _______ _____ _____    ______ ____
ROOT
ATOM      1  C   UNL     1       7.446  13.516  22.703  0.00  0.00    +0.000 A 
ATOM      2  C   UNL     1       8.677  13.481  22.040  0.00  0.00    +0.000 A 
ATOM      3  C   UNL     1       9.063  14.489  21.178  0.00  0.00    +0.000 A 
ATOM      4  C   UNL     1       8.210  15.556  20.925  0.00  0.00    +0.000 A 
ATOM      5  C   UNL     1       6.946  15.588  21.535  0.00  0.00    +0.000 A 
ATOM      6  C   UNL     1       6.560  14.586  22.451  0.00  0.00    +0.000 A 
ATOM      7  C   UNL     1       5.254  14.785  23.138  0.00  0.00    +0.000 C 
ATOM      8  O   UNL     1       4.854  14.030  24.035  0.00  0.00    +0.000 OA
ATOM      9  C   UNL     1       4.467  16.019  22.777  0.00  0.00    +0.000 C 
ATOM     10  C   UNL     1       4.716  16.358  21.311  0.00  0.00    +0.000 C 
ATOM     11  O   UNL     1       6.117  16.623  21.150  0.00  0.00    +0.000 OA
ATOM     12  C   UNL     1       8.663  16.584  19.994  0.00  0.00    +0.000 C 
ATOM     13  C   UNL     1       9.728  16.313  19.236  0.00  0.00    +0.000 C 
ATOM     14  C   UNL     1      10.491  15.010  19.340  0.00  0.00    +0.000 C 
ATOM     15  C   UNL     1      11.996  15.321  19.229  0.00  0.00    +0.000 C 
ATOM     16  O   UNL     1      10.309  14.358  20.616  0.00  0.00    +0.000 OA
ENDROOT
BRANCH  10  17
ATOM     17  C   UNL     1       4.164  15.333  20.314  0.00  0.00    +0.000 A 
ATOM     18  C   UNL     1       4.666  15.281  19.005  0.00  0.00    +0.000 A 
ATOM     19  C   UNL     1       4.077  14.473  18.033  0.00  0.00    +0.000 A 
ATOM     20  C   UNL     1       2.982  13.690  18.374  0.00  0.00    +0.000 A 
ATOM     21  C   UNL     1       2.520  13.656  19.681  0.00  0.00    +0.000 A 
ATOM     22  C   UNL     1       3.131  14.443  20.661  0.00  0.00    +0.000 A 
BRANCH  20  23
ATOM     23  O   UNL     1       2.331  12.942  17.441  0.00  0.00    +0.000 OA
ATOM     24  H   UNL     1       2.421  13.378  16.578  0.00  0.00    +0.000 HD
ENDBRANCH  20  23
ENDBRANCH  10  17
BRANCH   1  26
ATOM     25  C   UNL     1       8.132  12.085  24.437  0.00  0.00    +0.000 C 
ATOM     26  O   UNL     1       7.087  12.491  23.543  0.00  0.00    +0.000 OA
ENDBRANCH   1  26
BRANCH  14  27
ATOM     27  C   UNL     1      10.054  14.015  18.237  0.00  0.00    +0.000 C 
BRANCH  27  28
ATOM     28  C   UNL     1      10.782  12.678  18.316  0.00  0.00    +0.000 C 
BRANCH  28  29
ATOM     29  C   UNL     1       9.921  11.516  17.906  0.00  0.00    +0.000 C 
ATOM     30  C   UNL     1       9.371  10.648  18.764  0.00  0.00    +0.000 C 
ATOM     31  C   UNL     1       9.475  10.743  20.261  0.00  0.00    +0.000 C 
ATOM     32  C   UNL     1       8.574   9.470  18.264  0.00  0.00    +0.000 C 
ENDBRANCH  28  29
ENDBRANCH  27  28
ENDBRANCH  14  27
TORSDOF 6
ENDMDL
MODEL 8
REMARK VINA RESULT:      -6.8      6.993      8.337
REMARK  Name = 
REMARK  10 active torsions:
REMARK  status: ('A' for Active; 'I' for Inactive)
REMARK    1  A    between atoms: C_1  and  O_2
REMARK    2  A    between atoms: O_2  and  C_3
REMARK    3  A    between atoms: C_12  and  C_13
REMARK    4  A    between atoms: C_16  and  O_17
REMARK    5  A    between atoms: C_23  and  C_24
REMARK    6  A    between atoms: C_23  and  C_25
REMARK    7  A    between atoms: C_25  and  C_26
REMARK    8  A    between atoms: C_26  and  C_27
REMARK    9  A    between atoms: C_28  and  C_29
REMARK   10  A    between atoms: C_28  and  C_30
REMARK                            x       y       z     vdW  Elec       q    Type
REMARK                         _______ _______ _______ _____ _____    ______ ____
ROOT
ATOM      1  C   UNL     1       7.640  12.656  22.707  0.00  0.00    +0.000 A 
ATOM      2  C   UNL     1       8.546  11.903  21.952  0.00  0.00    +0.000 A 
ATOM      3  C   UNL     1       9.191  12.437  20.854  0.00  0.00    +0.000 A 
ATOM      4  C   UNL     1       8.924  13.740  20.454  0.00  0.00    +0.000 A 
ATOM      5  C   UNL     1       7.978  14.499  21.161  0.00  0.00    +0.000 A 
ATOM      6  C   UNL     1       7.348  13.978  22.311  0.00  0.00    +0.000 A 
ATOM      7  C   UNL     1       6.462  14.911  23.061  0.00  0.00    +0.000 C 
ATOM      8  O   UNL     1       5.933  14.604  24.138  0.00  0.00    +0.000 OA
ATOM      9  C   UNL     1       6.310  16.307  22.512  0.00  0.00    +0.000 C 
ATOM     10  C   UNL     1       6.398  16.257  20.990  0.00  0.00    +0.000 C 
ATOM     11  O   UNL     1       7.691  15.745  20.639  0.00  0.00    +0.000 OA
ATOM     12  C   UNL     1       9.622  14.249  19.277  0.00  0.00    +0.000 C 
ATOM     13  C   UNL     1      10.253  13.366  18.498  0.00  0.00    +0.000 C 
ATOM     14  C   UNL     1      10.300  11.888  18.815  0.00  0.00    +0.000 C 
ATOM     15  C   UNL     1      11.714  11.369  18.491  0.00  0.00    +0.000 C 
ATOM     16  O   UNL     1      10.082  11.611  20.216  0.00  0.00    +0.000 OA
ENDROOT
BRANCH  10  17
ATOM     17  C   UNL     1       5.238  15.525  20.306  0.00  0.00    +0.000 A 
ATOM     18  C   UNL     1       5.373  15.068  18.987  0.00  0.00    +0.000 A 
ATOM     19  C   UNL     1       4.288  14.544  18.285  0.00  0.00    +0.000 A 
ATOM     20  C   UNL     1       3.052  14.458  18.913  0.00  0.00    +0.000 A 
ATOM     21  C   UNL     1       2.911  14.822  20.243  0.00  0.00    +0.000 A 
ATOM     22  C   UNL     1       4.007  15.317  20.954  0.00  0.00    +0.000 A 
BRANCH  20  23
ATOM     23  O   UNL     1       1.949  14.021  18.244  0.00  0.00    +0.000 OA
ATOM     24  H   UNL     1       2.185  13.893  17.310  0.00  0.00    +0.000 HD
ENDBRANCH  20  23
ENDBRANCH  10  17
BRANCH   1  26
ATOM     25  C   UNL     1       7.883  11.797  24.883  0.00  0.00    +0.000 C 
ATOM     26  O   UNL     1       7.007  12.089  23.786  0.00  0.00    +0.000 OA
ENDBRANCH   1  26
BRANCH  14  27
ATOM     27  C   UNL     1       9.232  11.107  18.010  0.00  0.00    +0.000 C 
BRANCH  27  28
ATOM     28  C   UNL     1       8.920   9.738  18.602  0.00  0.00    +0.000 C 
BRANCH  28  29
ATOM     29  C   UNL     1       7.988   8.926  17.746  0.00  0.00    +0.000 C 
ATOM     30  C   UNL     1       7.742   7.624  17.927  0.00  0.00    +0.000 C 
ATOM     31  C   UNL     1       8.306   6.796  19.049  0.00  0.00    +0.000 C 
ATOM     32  C   UNL     1       6.843   6.869  16.982  0.00  0.00    +0.000 C 
ENDBRANCH  28  29
ENDBRANCH  27  28
ENDBRANCH  14  27
TORSDOF 6
ENDMDL
MODEL 9
REMARK VINA RESULT:      -6.7      7.033      8.455
REMARK  Name = 
REMARK  10 active torsions:
REMARK  status: ('A' for Active; 'I' for Inactive)
REMARK    1  A    between atoms: C_1  and  O_2
REMARK    2  A    between atoms: O_2  and  C_3
REMARK    3  A    between atoms: C_12  and  C_13
REMARK    4  A    between atoms: C_16  and  O_17
REMARK    5  A    between atoms: C_23  and  C_24
REMARK    6  A    between atoms: C_23  and  C_25
REMARK    7  A    between atoms: C_25  and  C_26
REMARK    8  A    between atoms: C_26  and  C_27
REMARK    9  A    between atoms: C_28  and  C_29
REMARK   10  A    between atoms: C_28  and  C_30
REMARK                            x       y       z     vdW  Elec       q    Type
REMARK                         _______ _______ _______ _____ _____    ______ ____
ROOT
ATOM      1  C   UNL     1       7.599  14.262  22.003  0.00  0.00    +0.000 A 
ATOM      2  C   UNL     1       8.347  13.193  21.499  0.00  0.00    +0.000 A 
ATOM      3  C   UNL     1       8.902  13.231  20.235  0.00  0.00    +0.000 A 
ATOM      4  C   UNL     1       8.698  14.335  19.416  0.00  0.00    +0.000 A 
ATOM      5  C   UNL     1       7.905  15.398  19.877  0.00  0.00    +0.000 A 
ATOM      6  C   UNL     1       7.371  15.388  21.183  0.00  0.00    +0.000 A 
ATOM      7  C   UNL     1       6.657  16.621  21.616  0.00  0.00    +0.000 C 
ATOM      8  O   UNL     1       6.233  16.773  22.770  0.00  0.00    +0.000 OA
ATOM      9  C   UNL     1       6.557  17.746  20.617  0.00  0.00    +0.000 C 
ATOM     10  C   UNL     1       6.464  17.158  19.212  0.00  0.00    +0.000 C 
ATOM     11  O   UNL     1       7.662  16.408  18.967  0.00  0.00    +0.000 OA
ATOM     12  C   UNL     1       9.294  14.315  18.084  0.00  0.00    +0.000 C 
ATOM     13  C   UNL     1       9.757  13.150  17.626  0.00  0.00    +0.000 C 
ATOM     14  C   UNL     1       9.720  11.880  18.448  0.00  0.00    +0.000 C 
ATOM     15  C   UNL     1      11.040  11.118  18.220  0.00  0.00    +0.000 C 
ATOM     16  O   UNL     1       9.643  12.136  19.867  0.00  0.00    +0.000 OA
ENDROOT
BRANCH  10  17
ATOM     17  C   UNL     1       5.177  16.375  18.930  0.00  0.00    +0.000 A 
ATOM     18  C   UNL     1       3.960  16.797  19.485  0.00  0.00    +0.000 A 
ATOM     19  C   UNL     1       2.806  16.021  19.379  0.00  0.00    +0.000 A 
ATOM     20  C   UNL     1       2.861  14.813  18.697  0.00  0.00    +0.000 A 
ATOM     21  C   UNL     1       4.029  14.413  18.066  0.00  0.00    +0.000 A 
ATOM     22  C   UNL     1       5.176  15.207  18.146  0.00  0.00    +0.000 A 
BRANCH  20  23
ATOM     23  O   UNL     1       1.780  13.988  18.632  0.00  0.00    +0.000 OA
ATOM     24  H   UNL     1       1.170  14.330  17.957  0.00  0.00    +0.000 HD
ENDBRANCH  20  23
ENDBRANCH  10  17
BRANCH   1  26
ATOM     25  C   UNL     1       7.367  12.972  23.955  0.00  0.00    +0.000 C 
ATOM     26  O   UNL     1       7.050  14.185  23.259  0.00  0.00    +0.000 OA
ENDBRANCH   1  26
BRANCH  14  27
ATOM     27  C   UNL     1       8.505  10.999  18.063  0.00  0.00    +0.000 C 
BRANCH  27  28
ATOM     28  C   UNL     1       8.685   9.534  18.445  0.00  0.00    +0.000 C 
BRANCH  28  29
ATOM     29  C   UNL     1       7.879   8.600  17.586  0.00  0.00    +0.000 C 
ATOM     30  C   UNL     1       7.690   7.303  17.857  0.00  0.00    +0.000 C 
ATOM     31  C   UNL     1       8.197   6.605  19.089  0.00  0.00    +0.000 C 
ATOM     32  C   UNL     1       6.922   6.421  16.908  0.00  0.00    +0.000 C 
ENDBRANCH  28  29
ENDBRANCH  27  28
ENDBRANCH  14  27
TORSDOF 6
ENDMDL
