MODEL 1
REMARK VINA RESULT:      -7.4      0.000      0.000
REMARK  Name = 
REMARK  7 active torsions:
REMARK  status: ('A' for Active; 'I' for Inactive)
REMARK    1  A    between atoms: C_1  and  N_2
REMARK    2  A    between atoms: N_2  and  C_3
REMARK    3  A    between atoms: C_3  and  C_4
REMARK    4  A    between atoms: N_6  and  C_7
REMARK    5  A    between atoms: C_15  and  C_17
REMARK    6  A    between atoms: C_20  and  N_21
REMARK    7  A    between atoms: C_26  and  N_27
REMARK                            x       y       z     vdW  Elec       q    Type
REMARK                         _______ _______ _______ _____ _____    ______ ____
ROOT
ATOM      1  C   UNL     1       1.187   2.491  22.046  0.00  0.00    +0.000 C 
ATOM      2  N   UNL     1       2.110   3.210  21.168  0.00  0.00    +0.000 N 
ATOM      3  C   UNL     1       2.436   2.539  19.982  0.00  0.00    +0.000 C 
ATOM      4  O   UNL     1       1.966   1.438  19.698  0.00  0.00    +0.000 OA
ENDROOT
BRANCH   3   5
ATOM      5  C   UNL     1       3.366   3.133  18.981  0.00  0.00    +0.000 A 
ATOM      6  C   UNL     1       3.100   2.909  17.622  0.00  0.00    +0.000 A 
ATOM      7  C   UNL     1       3.938   3.436  16.627  0.00  0.00    +0.000 A 
ATOM      8  C   UNL     1       5.055   4.208  16.981  0.00  0.00    +0.000 A 
ATOM      9  C   UNL     1       5.341   4.380  18.346  0.00  0.00    +0.000 A 
ATOM     10  C   UNL     1       4.525   3.819  19.333  0.00  0.00    +0.000 A 
BRANCH   8  11
ATOM     11  N   UNL     1       5.891   4.716  15.965  0.00  0.00    +0.000 N 
ATOM     12  C   UNL     1       7.194   4.385  15.696  0.00  0.00    +0.000 A 
ATOM     13  N   UNL     1       7.677   5.156  14.750  0.00  0.00    +0.000 NA
ATOM     14  C   UNL     1       6.617   5.956  14.448  0.00  0.00    +0.000 A 
ATOM     15  N   UNL     1       5.504   5.717  15.147  0.00  0.00    +0.000 NA
ENDBRANCH   8  11
BRANCH   9  16
ATOM     16  N   UNL     1       6.361   5.306  18.818  0.00  0.00    +0.000 N 
ATOM     17  O   UNL     1       6.384   6.421  18.290  0.00  0.00    +0.000 OA
ATOM     18  O   UNL     1       7.003   4.960  19.818  0.00  0.00    +0.000 OA
ENDBRANCH   9  16
ENDBRANCH   3   5
BRANCH   2  19
ATOM     19  C   UNL     1       2.379   4.632  21.437  0.00  0.00    +0.000 C 
BRANCH  19  20
ATOM     20  C   UNL     1       1.637   5.718  20.632  0.00  0.00    +0.000 C 
ATOM     21  O   UNL     1       0.636   5.469  19.967  0.00  0.00    +0.000 OA
ATOM     22  N   UNL     1       2.250   6.972  20.721  0.00  0.00    +0.000 N 
ATOM     23  H   UNL     1       3.264   6.958  20.754  0.00  0.00    +0.000 HD
BRANCH  22  24
ATOM     24  C   UNL     1       1.693   8.082  20.018  0.00  0.00    +0.000 A 
ATOM     25  C   UNL     1       0.824   9.003  20.623  0.00  0.00    +0.000 A 
ATOM     26 CL   UNL     1       0.567   9.059  22.336  0.00  0.00    +0.000 Cl
ATOM     27  C   UNL     1       0.217  10.008  19.862  0.00  0.00    +0.000 A 
ATOM     28  C   UNL     1       0.490  10.115  18.498  0.00  0.00    +0.000 A 
ATOM     29  C   UNL     1       1.409   9.256  17.904  0.00  0.00    +0.000 A 
ATOM     30  C   UNL     1       2.024   8.258  18.665  0.00  0.00    +0.000 A 
ATOM     31 CL   UNL     1       3.148   7.204  17.875  0.00  0.00    +0.000 Cl
ENDBRANCH  22  24
ENDBRANCH  19  20
ENDBRANCH   2  19
TORSDOF 6
ENDMDL
MODEL 2
REMARK VINA RESULT:      -7.2      0.749      1.832
REMARK  Name = 
REMARK  7 active torsions:
REMARK  status: ('A' for Active; 'I' for Inactive)
REMARK    1  A    between atoms: C_1  and  N_2
REMARK    2  A    between atoms: N_2  and  C_3
REMARK    3  A    between atoms: C_3  and  C_4
REMARK    4  A    between atoms: N_6  and  C_7
REMARK    5  A    between atoms: C_15  and  C_17
REMARK    6  A    between atoms: C_20  and  N_21
REMARK    7  A    between atoms: C_26  and  N_27
REMARK                            x       y       z     vdW  Elec       q    Type
REMARK                         _______ _______ _______ _____ _____    ______ ____
ROOT
ATOM      1  C   UNL     1       1.460   2.496  21.842  0.00  0.00    +0.000 C 
ATOM      2  N   UNL     1       2.366   3.221  20.953  0.00  0.00    +0.000 N 
ATOM      3  C   UNL     1       2.701   2.542  19.774  0.00  0.00    +0.000 C 
ATOM      4  O   UNL     1       2.253   1.428  19.506  0.00  0.00    +0.000 OA
ENDROOT
BRANCH   3   5
ATOM      5  C   UNL     1       3.617   3.141  18.763  0.00  0.00    +0.000 A 
ATOM      6  C   UNL     1       3.194   3.166  17.426  0.00  0.00    +0.000 A 
ATOM      7  C   UNL     1       4.009   3.713  16.422  0.00  0.00    +0.000 A 
ATOM      8  C   UNL     1       5.262   4.254  16.746  0.00  0.00    +0.000 A 
ATOM      9  C   UNL     1       5.698   4.174  18.080  0.00  0.00    +0.000 A 
ATOM     10  C   UNL     1       4.898   3.593  19.069  0.00  0.00    +0.000 A 
BRANCH   8  11
ATOM     11  N   UNL     1       6.070   4.786  15.720  0.00  0.00    +0.000 N 
ATOM     12  C   UNL     1       6.090   4.439  14.394  0.00  0.00    +0.000 A 
ATOM     13  N   UNL     1       7.059   5.067  13.770  0.00  0.00    +0.000 NA
ATOM     14  C   UNL     1       7.616   5.815  14.764  0.00  0.00    +0.000 A 
ATOM     15  N   UNL     1       7.039   5.691  15.963  0.00  0.00    +0.000 NA
ENDBRANCH   8  11
BRANCH   9  16
ATOM     16  N   UNL     1       6.891   4.862  18.554  0.00  0.00    +0.000 N 
ATOM     17  O   UNL     1       6.713   5.896  19.203  0.00  0.00    +0.000 OA
ATOM     18  O   UNL     1       7.966   4.265  18.413  0.00  0.00    +0.000 OA
ENDBRANCH   9  16
ENDBRANCH   3   5
BRANCH   2  19
ATOM     19  C   UNL     1       2.608   4.651  21.203  0.00  0.00    +0.000 C 
BRANCH  19  20
ATOM     20  C   UNL     1       1.890   5.712  20.345  0.00  0.00    +0.000 C 
ATOM     21  O   UNL     1       0.902   5.445  19.667  0.00  0.00    +0.000 OA
ATOM     22  N   UNL     1       2.508   6.965  20.402  0.00  0.00    +0.000 N 
ATOM     23  H   UNL     1       3.521   6.947  20.458  0.00  0.00    +0.000 HD
BRANCH  22  24
ATOM     24  C   UNL     1       1.973   8.053  19.648  0.00  0.00    +0.000 A 
ATOM     25  C   UNL     1       2.385   8.340  18.337  0.00  0.00    +0.000 A 
ATOM     26 CL   UNL     1       3.355   7.250  17.402  0.00  0.00    +0.000 Cl
ATOM     27  C   UNL     1       1.913   9.483  17.683  0.00  0.00    +0.000 A 
ATOM     28  C   UNL     1       1.013  10.335  18.323  0.00  0.00    +0.000 A 
ATOM     29  C   UNL     1       0.539  10.020  19.592  0.00  0.00    +0.000 A 
ATOM     30  C   UNL     1       1.001   8.872  20.244  0.00  0.00    +0.000 A 
ATOM     31 CL   UNL     1       0.394   8.532  21.829  0.00  0.00    +0.000 Cl
ENDBRANCH  22  24
ENDBRANCH  19  20
ENDBRANCH   2  19
TORSDOF 6
ENDMDL
MODEL 3
REMARK VINA RESULT:      -7.1      4.038      6.170
REMARK  Name = 
REMARK  7 active torsions:
REMARK  status: ('A' for Active; 'I' for Inactive)
REMARK    1  A    between atoms: C_1  and  N_2
REMARK    2  A    between atoms: N_2  and  C_3
REMARK    3  A    between atoms: C_3  and  C_4
REMARK    4  A    between atoms: N_6  and  C_7
REMARK    5  A    between atoms: C_15  and  C_17
REMARK    6  A    between atoms: C_20  and  N_21
REMARK    7  A    between atoms: C_26  and  N_27
REMARK                            x       y       z     vdW  Elec       q    Type
REMARK                         _______ _______ _______ _____ _____    ______ ____
ROOT
ATOM      1  C   UNL     1       0.120  11.562  21.174  0.00  0.00    +0.000 C 
ATOM      2  N   UNL     1       0.469  10.397  20.363  0.00  0.00    +0.000 N 
ATOM      3  C   UNL     1       1.119   9.369  21.058  0.00  0.00    +0.000 C 
ATOM      4  O   UNL     1       1.362   9.440  22.263  0.00  0.00    +0.000 OA
ENDROOT
BRANCH   3   5
ATOM      5  C   UNL     1       1.546   8.114  20.376  0.00  0.00    +0.000 A 
ATOM      6  C   UNL     1       2.175   8.227  19.127  0.00  0.00    +0.000 A 
ATOM      7  C   UNL     1       2.600   7.086  18.429  0.00  0.00    +0.000 A 
ATOM      8  C   UNL     1       2.407   5.810  18.978  0.00  0.00    +0.000 A 
ATOM      9  C   UNL     1       1.728   5.707  20.203  0.00  0.00    +0.000 A 
ATOM     10  C   UNL     1       1.272   6.845  20.876  0.00  0.00    +0.000 A 
BRANCH   8  11
ATOM     11  N   UNL     1       2.829   4.676  18.252  0.00  0.00    +0.000 N 
ATOM     12  C   UNL     1       4.105   4.200  18.094  0.00  0.00    +0.000 A 
ATOM     13  N   UNL     1       4.117   3.194  17.251  0.00  0.00    +0.000 NA
ATOM     14  C   UNL     1       2.802   3.071  16.916  0.00  0.00    +0.000 A 
ATOM     15  N   UNL     1       1.978   3.938  17.511  0.00  0.00    +0.000 NA
ENDBRANCH   8  11
BRANCH   9  16
ATOM     16  N   UNL     1       1.638   4.456  20.943  0.00  0.00    +0.000 N 
ATOM     17  O   UNL     1       0.730   3.684  20.620  0.00  0.00    +0.000 OA
ATOM     18  O   UNL     1       2.575   4.198  21.711  0.00  0.00    +0.000 OA
ENDBRANCH   9  16
ENDBRANCH   3   5
BRANCH   2  19
ATOM     19  C   UNL     1      -0.121  10.268  19.021  0.00  0.00    +0.000 C 
BRANCH  19  20
ATOM     20  C   UNL     1      -1.255  11.217  18.587  0.00  0.00    +0.000 C 
ATOM     21  O   UNL     1      -1.035  12.344  18.153  0.00  0.00    +0.000 OA
ATOM     22  N   UNL     1      -2.527  10.666  18.780  0.00  0.00    +0.000 N 
ATOM     23  H   UNL     1      -2.627  10.087  19.607  0.00  0.00    +0.000 HD
BRANCH  22  24
ATOM     24  C   UNL     1      -3.686  11.427  18.442  0.00  0.00    +0.000 A 
ATOM     25  C   UNL     1      -4.330  12.274  19.359  0.00  0.00    +0.000 A 
ATOM     26 CL   UNL     1      -3.629  12.705  20.884  0.00  0.00    +0.000 Cl
ATOM     27  C   UNL     1      -5.526  12.910  19.013  0.00  0.00    +0.000 A 
ATOM     28  C   UNL     1      -6.078  12.724  17.745  0.00  0.00    +0.000 A 
ATOM     29  C   UNL     1      -5.409  11.949  16.804  0.00  0.00    +0.000 A 
ATOM     30  C   UNL     1      -4.207  11.321  17.143  0.00  0.00    +0.000 A 
ATOM     31 CL   UNL     1      -3.422  10.353  15.941  0.00  0.00    +0.000 Cl
ENDBRANCH  22  24
ENDBRANCH  19  20
ENDBRANCH   2  19
TORSDOF 6
ENDMDL
MODEL 4
REMARK VINA RESULT:      -7.0      1.194      1.323
REMARK  Name = 
REMARK  7 active torsions:
REMARK  status: ('A' for Active; 'I' for Inactive)
REMARK    1  A    between atoms: C_1  and  N_2
REMARK    2  A    between atoms: N_2  and  C_3
REMARK    3  A    between atoms: C_3  and  C_4
REMARK    4  A    between atoms: N_6  and  C_7
REMARK    5  A    between atoms: C_15  and  C_17
REMARK    6  A    between atoms: C_20  and  N_21
REMARK    7  A    between atoms: C_26  and  N_27
REMARK                            x       y       z     vdW  Elec       q    Type
REMARK                         _______ _______ _______ _____ _____    ______ ____
ROOT
ATOM      1  C   UNL     1       1.806   3.505  21.650  0.00  0.00    +0.000 C 
ATOM      2  N   UNL     1       2.698   4.047  20.627  0.00  0.00    +0.000 N 
ATOM      3  C   UNL     1       2.980   3.172  19.569  0.00  0.00    +0.000 C 
ATOM      4  O   UNL     1       2.499   2.041  19.504  0.00  0.00    +0.000 OA
ENDROOT
BRANCH   3   5
ATOM      5  C   UNL     1       3.876   3.569  18.446  0.00  0.00    +0.000 A 
ATOM      6  C   UNL     1       3.355   3.528  17.145  0.00  0.00    +0.000 A 
ATOM      7  C   UNL     1       4.145   3.886  16.041  0.00  0.00    +0.000 A 
ATOM      8  C   UNL     1       5.473   4.300  16.227  0.00  0.00    +0.000 A 
ATOM      9  C   UNL     1       5.999   4.284  17.530  0.00  0.00    +0.000 A 
ATOM     10  C   UNL     1       5.219   3.889  18.621  0.00  0.00    +0.000 A 
BRANCH   8  11
ATOM     11  N   UNL     1       6.252   4.642  15.103  0.00  0.00    +0.000 N 
ATOM     12  C   UNL     1       6.344   3.981  13.905  0.00  0.00    +0.000 A 
ATOM     13  N   UNL     1       7.264   4.532  13.147  0.00  0.00    +0.000 NA
ATOM     14  C   UNL     1       7.715   5.556  13.925  0.00  0.00    +0.000 A 
ATOM     15  N   UNL     1       7.120   5.674  15.115  0.00  0.00    +0.000 NA
ENDBRANCH   8  11
BRANCH   9  16
ATOM     16  N   UNL     1       7.295   4.863  17.855  0.00  0.00    +0.000 N 
ATOM     17  O   UNL     1       7.287   5.983  18.373  0.00  0.00    +0.000 OA
ATOM     18  O   UNL     1       8.278   4.119  17.741  0.00  0.00    +0.000 OA
ENDBRANCH   9  16
ENDBRANCH   3   5
BRANCH   2  19
ATOM     19  C   UNL     1       2.980   5.492  20.626  0.00  0.00    +0.000 C 
BRANCH  19  20
ATOM     20  C   UNL     1       1.820   6.499  20.496  0.00  0.00    +0.000 C 
ATOM     21  O   UNL     1       0.644   6.147  20.509  0.00  0.00    +0.000 OA
ATOM     22  N   UNL     1       2.261   7.815  20.326  0.00  0.00    +0.000 N 
ATOM     23  H   UNL     1       3.102   7.923  19.768  0.00  0.00    +0.000 HD
BRANCH  22  24
ATOM     24  C   UNL     1       1.308   8.867  20.174  0.00  0.00    +0.000 A 
ATOM     25  C   UNL     1       0.604   9.415  21.258  0.00  0.00    +0.000 A 
ATOM     26 CL   UNL     1       1.022   9.082  22.907  0.00  0.00    +0.000 Cl
ATOM     27  C   UNL     1      -0.399  10.364  21.042  0.00  0.00    +0.000 A 
ATOM     28  C   UNL     1      -0.694  10.790  19.747  0.00  0.00    +0.000 A 
ATOM     29  C   UNL     1       0.049  10.312  18.672  0.00  0.00    +0.000 A 
ATOM     30  C   UNL     1       1.060   9.370  18.887  0.00  0.00    +0.000 A 
ATOM     31 CL   UNL     1       1.944   8.793  17.515  0.00  0.00    +0.000 Cl
ENDBRANCH  22  24
ENDBRANCH  19  20
ENDBRANCH   2  19
TORSDOF 6
ENDMDL
MODEL 5
REMARK VINA RESULT:      -6.9      3.181      4.634
REMARK  Name = 
REMARK  7 active torsions:
REMARK  status: ('A' for Active; 'I' for Inactive)
REMARK    1  A    between atoms: C_1  and  N_2
REMARK    2  A    between atoms: N_2  and  C_3
REMARK    3  A    between atoms: C_3  and  C_4
REMARK    4  A    between atoms: N_6  and  C_7
REMARK    5  A    between atoms: C_15  and  C_17
REMARK    6  A    between atoms: C_20  and  N_21
REMARK    7  A    between atoms: C_26  and  N_27
REMARK                            x       y       z     vdW  Elec       q    Type
REMARK                         _______ _______ _______ _____ _____    ______ ____
ROOT
ATOM      1  C   UNL     1       0.029   8.902  21.273  0.00  0.00    +0.000 C 
ATOM      2  N   UNL     1       1.075   8.613  20.294  0.00  0.00    +0.000 N 
ATOM      3  C   UNL     1       1.591   7.312  20.351  0.00  0.00    +0.000 C 
ATOM      4  O   UNL     1       1.181   6.476  21.156  0.00  0.00    +0.000 OA
ENDROOT
BRANCH   3   5
ATOM      5  C   UNL     1       2.666   6.858  19.424  0.00  0.00    +0.000 A 
ATOM      6  C   UNL     1       2.758   7.480  18.170  0.00  0.00    +0.000 A 
ATOM      7  C   UNL     1       3.745   7.099  17.247  0.00  0.00    +0.000 A 
ATOM      8  C   UNL     1       4.664   6.090  17.573  0.00  0.00    +0.000 A 
ATOM      9  C   UNL     1       4.527   5.438  18.810  0.00  0.00    +0.000 A 
ATOM     10  C   UNL     1       3.518   5.795  19.709  0.00  0.00    +0.000 A 
BRANCH   8  11
ATOM     11  N   UNL     1       5.638   5.714  16.625  0.00  0.00    +0.000 N 
ATOM     12  C   UNL     1       6.945   6.122  16.548  0.00  0.00    +0.000 A 
ATOM     13  N   UNL     1       7.508   5.652  15.460  0.00  0.00    +0.000 NA
ATOM     14  C   UNL     1       6.500   4.936  14.888  0.00  0.00    +0.000 A 
ATOM     15  N   UNL     1       5.349   4.929  15.567  0.00  0.00    +0.000 NA
ENDBRANCH   8  11
BRANCH   9  16
ATOM     16  N   UNL     1       5.530   4.512  19.318  0.00  0.00    +0.000 N 
ATOM     17  O   UNL     1       6.539   5.012  19.825  0.00  0.00    +0.000 OA
ATOM     18  O   UNL     1       5.213   3.317  19.354  0.00  0.00    +0.000 OA
ENDBRANCH   9  16
ENDBRANCH   3   5
BRANCH   2  19
ATOM     19  C   UNL     1       1.287   9.559  19.186  0.00  0.00    +0.000 C 
BRANCH  19  20
ATOM     20  C   UNL     1       0.728  10.993  19.283  0.00  0.00    +0.000 C 
ATOM     21  O   UNL     1      -0.232  11.366  18.617  0.00  0.00    +0.000 OA
ATOM     22  N   UNL     1       1.453  11.798  20.168  0.00  0.00    +0.000 N 
ATOM     23  H   UNL     1       2.454  11.633  20.185  0.00  0.00    +0.000 HD
BRANCH  22  24
ATOM     24  C   UNL     1       1.071  13.160  20.359  0.00  0.00    +0.000 A 
ATOM     25  C   UNL     1       1.571  14.205  19.565  0.00  0.00    +0.000 A 
ATOM     26 CL   UNL     1       2.463  13.925  18.105  0.00  0.00    +0.000 Cl
ATOM     27  C   UNL     1       1.253  15.534  19.864  0.00  0.00    +0.000 A 
ATOM     28  C   UNL     1       0.419  15.829  20.942  0.00  0.00    +0.000 A 
ATOM     29  C   UNL     1      -0.143  14.799  21.688  0.00  0.00    +0.000 A 
ATOM     30  C   UNL     1       0.164  13.469  21.385  0.00  0.00    +0.000 A 
ATOM     31 CL   UNL     1      -0.548  12.223  22.353  0.00  0.00    +0.000 Cl
ENDBRANCH  22  24
ENDBRANCH  19  20
ENDBRANCH   2  19
TORSDOF 6
ENDMDL
MODEL 6
REMARK VINA RESULT:      -6.8      3.229      4.540
REMARK  Name = 
REMARK  7 active torsions:
REMARK  status: ('A' for Active; 'I' for Inactive)
REMARK    1  A    between atoms: C_1  and  N_2
REMARK    2  A    between atoms: N_2  and  C_3
REMARK    3  A    between atoms: C_3  and  C_4
REMARK    4  A    between atoms: N_6  and  C_7
REMARK    5  A    between atoms: C_15  and  C_17
REMARK    6  A    between atoms: C_20  and  N_21
REMARK    7  A    between atoms: C_26  and  N_27
REMARK                            x       y       z     vdW  Elec       q    Type
REMARK                         _______ _______ _______ _____ _____    ______ ____
ROOT
ATOM      1  C   UNL     1       0.025   8.656  21.501  0.00  0.00    +0.000 C 
ATOM      2  N   UNL     1       1.085   8.429  20.521  0.00  0.00    +0.000 N 
ATOM      3  C   UNL     1       1.532   7.103  20.433  0.00  0.00    +0.000 C 
ATOM      4  O   UNL     1       1.054   6.201  21.121  0.00  0.00    +0.000 OA
ENDROOT
BRANCH   3   5
ATOM      5  C   UNL     1       2.611   6.704  19.486  0.00  0.00    +0.000 A 
ATOM      6  C   UNL     1       2.661   7.346  18.240  0.00  0.00    +0.000 A 
ATOM      7  C   UNL     1       3.649   7.017  17.299  0.00  0.00    +0.000 A 
ATOM      8  C   UNL     1       4.612   6.041  17.598  0.00  0.00    +0.000 A 
ATOM      9  C   UNL     1       4.518   5.367  18.828  0.00  0.00    +0.000 A 
ATOM     10  C   UNL     1       3.508   5.672  19.745  0.00  0.00    +0.000 A 
BRANCH   8  11
ATOM     11  N   UNL     1       5.587   5.716  16.633  0.00  0.00    +0.000 N 
ATOM     12  C   UNL     1       6.895   6.125  16.581  0.00  0.00    +0.000 A 
ATOM     13  N   UNL     1       7.459   5.715  15.468  0.00  0.00    +0.000 NA
ATOM     14  C   UNL     1       6.450   5.033  14.857  0.00  0.00    +0.000 A 
ATOM     15  N   UNL     1       5.298   4.992  15.532  0.00  0.00    +0.000 NA
ENDBRANCH   8  11
BRANCH   9  16
ATOM     16  N   UNL     1       5.563   4.476  19.310  0.00  0.00    +0.000 N 
ATOM     17  O   UNL     1       6.576   5.009  19.773  0.00  0.00    +0.000 OA
ATOM     18  O   UNL     1       5.280   3.272  19.373  0.00  0.00    +0.000 OA
ENDBRANCH   9  16
ENDBRANCH   3   5
BRANCH   2  19
ATOM     19  C   UNL     1       1.382   9.486  19.541  0.00  0.00    +0.000 C 
BRANCH  19  20
ATOM     20  C   UNL     1       1.186  10.966  19.927  0.00  0.00    +0.000 C 
ATOM     21  O   UNL     1       1.357  11.370  21.073  0.00  0.00    +0.000 OA
ATOM     22  N   UNL     1       0.766  11.756  18.852  0.00  0.00    +0.000 N 
ATOM     23  H   UNL     1       0.128  11.304  18.205  0.00  0.00    +0.000 HD
BRANCH  22  24
ATOM     24  C   UNL     1       0.524  13.149  19.050  0.00  0.00    +0.000 A 
ATOM     25  C   UNL     1       1.530  14.119  18.918  0.00  0.00    +0.000 A 
ATOM     26 CL   UNL     1       3.080  13.768  18.226  0.00  0.00    +0.000 Cl
ATOM     27  C   UNL     1       1.269  15.456  19.232  0.00  0.00    +0.000 A 
ATOM     28  C   UNL     1      -0.003  15.840  19.659  0.00  0.00    +0.000 A 
ATOM     29  C   UNL     1      -1.028  14.901  19.720  0.00  0.00    +0.000 A 
ATOM     30  C   UNL     1      -0.771  13.566  19.396  0.00  0.00    +0.000 A 
ATOM     31 CL   UNL     1      -2.076  12.433  19.504  0.00  0.00    +0.000 Cl
ENDBRANCH  22  24
ENDBRANCH  19  20
ENDBRANCH   2  19
TORSDOF 6
ENDMDL
MODEL 7
REMARK VINA RESULT:      -6.8      7.275     11.636
REMARK  Name = 
REMARK  7 active torsions:
REMARK  status: ('A' for Active; 'I' for Inactive)
REMARK    1  A    between atoms: C_1  and  N_2
REMARK    2  A    between atoms: N_2  and  C_3
REMARK    3  A    between atoms: C_3  and  C_4
REMARK    4  A    between atoms: N_6  and  C_7
REMARK    5  A    between atoms: C_15  and  C_17
REMARK    6  A    between atoms: C_20  and  N_21
REMARK    7  A    between atoms: C_26  and  N_27
REMARK                            x       y       z     vdW  Elec       q    Type
REMARK                         _______ _______ _______ _____ _____    ______ ____
ROOT
ATOM      1  C   UNL     1       1.169   9.724  21.429  0.00  0.00    +0.000 C 
ATOM      2  N   UNL     1       0.271  10.872  21.535  0.00  0.00    +0.000 N 
ATOM      3  C   UNL     1      -0.462  10.937  22.728  0.00  0.00    +0.000 C 
ATOM      4  O   UNL     1      -0.343  10.098  23.620  0.00  0.00    +0.000 OA
ENDROOT
BRANCH   3   5
ATOM      5  C   UNL     1      -1.425  12.043  22.991  0.00  0.00    +0.000 A 
ATOM      6  C   UNL     1      -0.950  13.361  22.915  0.00  0.00    +0.000 A 
ATOM      7  C   UNL     1      -1.803  14.450  23.154  0.00  0.00    +0.000 A 
ATOM      8  C   UNL     1      -3.153  14.234  23.466  0.00  0.00    +0.000 A 
ATOM      9  C   UNL     1      -3.604  12.909  23.593  0.00  0.00    +0.000 A 
ATOM     10  C   UNL     1      -2.741  11.828  23.392  0.00  0.00    +0.000 A 
BRANCH   8  11
ATOM     11  N   UNL     1      -3.989  15.342  23.717  0.00  0.00    +0.000 N 
ATOM     12  C   UNL     1      -4.711  16.078  22.813  0.00  0.00    +0.000 A 
ATOM     13  N   UNL     1      -5.272  17.107  23.405  0.00  0.00    +0.000 NA
ATOM     14  C   UNL     1      -4.875  16.959  24.699  0.00  0.00    +0.000 A 
ATOM     15  N   UNL     1      -4.107  15.892  24.942  0.00  0.00    +0.000 NA
ENDBRANCH   8  11
BRANCH   9  16
ATOM     16  N   UNL     1      -5.015  12.575  23.732  0.00  0.00    +0.000 N 
ATOM     17  O   UNL     1      -5.705  12.651  22.711  0.00  0.00    +0.000 OA
ATOM     18  O   UNL     1      -5.364  12.084  24.813  0.00  0.00    +0.000 OA
ENDBRANCH   9  16
ENDBRANCH   3   5
BRANCH   2  19
ATOM     19  C   UNL     1       0.414  11.973  20.569  0.00  0.00    +0.000 C 
BRANCH  19  20
ATOM     20  C   UNL     1      -0.444  11.986  19.288  0.00  0.00    +0.000 C 
ATOM     21  O   UNL     1      -0.213  12.750  18.355  0.00  0.00    +0.000 OA
ATOM     22  N   UNL     1      -1.506  11.077  19.337  0.00  0.00    +0.000 N 
ATOM     23  H   UNL     1      -1.941  10.967  20.247  0.00  0.00    +0.000 HD
BRANCH  22  24
ATOM     24  C   UNL     1      -2.405  10.979  18.233  0.00  0.00    +0.000 A 
ATOM     25  C   UNL     1      -2.095  10.263  17.066  0.00  0.00    +0.000 A 
ATOM     26 CL   UNL     1      -0.734   9.196  16.957  0.00  0.00    +0.000 Cl
ATOM     27  C   UNL     1      -2.963  10.292  15.968  0.00  0.00    +0.000 A 
ATOM     28  C   UNL     1      -4.153  11.015  16.035  0.00  0.00    +0.000 A 
ATOM     29  C   UNL     1      -4.506  11.665  17.213  0.00  0.00    +0.000 A 
ATOM     30  C   UNL     1      -3.646  11.630  18.314  0.00  0.00    +0.000 A 
ATOM     31 CL   UNL     1      -4.123  12.468  19.752  0.00  0.00    +0.000 Cl
ENDBRANCH  22  24
ENDBRANCH  19  20
ENDBRANCH   2  19
TORSDOF 6
ENDMDL
MODEL 8
REMARK VINA RESULT:      -6.8      3.082      4.270
REMARK  Name = 
REMARK  7 active torsions:
REMARK  status: ('A' for Active; 'I' for Inactive)
REMARK    1  A    between atoms: C_1  and  N_2
REMARK    2  A    between atoms: N_2  and  C_3
REMARK    3  A    between atoms: C_3  and  C_4
REMARK    4  A    between atoms: N_6  and  C_7
REMARK    5  A    between atoms: C_15  and  C_17
REMARK    6  A    between atoms: C_20  and  N_21
REMARK    7  A    between atoms: C_26  and  N_27
REMARK                            x       y       z     vdW  Elec       q    Type
REMARK                         _______ _______ _______ _____ _____    ______ ____
ROOT
ATOM      1  C   UNL     1       0.247   8.848  21.534  0.00  0.00    +0.000 C 
ATOM      2  N   UNL     1       1.247   8.522  20.519  0.00  0.00    +0.000 N 
ATOM      3  C   UNL     1       1.597   7.166  20.453  0.00  0.00    +0.000 C 
ATOM      4  O   UNL     1       1.088   6.319  21.185  0.00  0.00    +0.000 OA
ENDROOT
BRANCH   3   5
ATOM      5  C   UNL     1       2.605   6.668  19.475  0.00  0.00    +0.000 A 
ATOM      6  C   UNL     1       2.529   7.138  18.156  0.00  0.00    +0.000 A 
ATOM      7  C   UNL     1       3.445   6.708  17.183  0.00  0.00    +0.000 A 
ATOM      8  C   UNL     1       4.461   5.802  17.522  0.00  0.00    +0.000 A 
ATOM      9  C   UNL     1       4.494   5.298  18.833  0.00  0.00    +0.000 A 
ATOM     10  C   UNL     1       3.555   5.700  19.788  0.00  0.00    +0.000 A 
BRANCH   8  11
ATOM     11  N   UNL     1       5.362   5.373  16.526  0.00  0.00    +0.000 N 
ATOM     12  C   UNL     1       5.314   4.223  15.781  0.00  0.00    +0.000 A 
ATOM     13  N   UNL     1       6.392   4.111  15.040  0.00  0.00    +0.000 NA
ATOM     14  C   UNL     1       7.087   5.240  15.354  0.00  0.00    +0.000 A 
ATOM     15  N   UNL     1       6.495   6.047  16.240  0.00  0.00    +0.000 NA
ENDBRANCH   8  11
BRANCH   9  16
ATOM     16  N   UNL     1       5.606   4.502  19.335  0.00  0.00    +0.000 N 
ATOM     17  O   UNL     1       6.603   5.122  19.718  0.00  0.00    +0.000 OA
ATOM     18  O   UNL     1       5.395   3.293  19.493  0.00  0.00    +0.000 OA
ENDBRANCH   9  16
ENDBRANCH   3   5
BRANCH   2  19
ATOM     19  C   UNL     1       1.573   9.530  19.497  0.00  0.00    +0.000 C 
BRANCH  19  20
ATOM     20  C   UNL     1       0.707  10.798  19.367  0.00  0.00    +0.000 C 
ATOM     21  O   UNL     1      -0.322  10.821  18.699  0.00  0.00    +0.000 OA
ATOM     22  N   UNL     1       1.243  11.894  20.051  0.00  0.00    +0.000 N 
ATOM     23  H   UNL     1       2.256  11.959  20.041  0.00  0.00    +0.000 HD
BRANCH  22  24
ATOM     24  C   UNL     1       0.567  13.150  20.016  0.00  0.00    +0.000 A 
ATOM     25  C   UNL     1      -0.478  13.473  20.895  0.00  0.00    +0.000 A 
ATOM     26 CL   UNL     1      -0.859  12.513  22.286  0.00  0.00    +0.000 Cl
ATOM     27  C   UNL     1      -1.182  14.673  20.746  0.00  0.00    +0.000 A 
ATOM     28  C   UNL     1      -0.836  15.567  19.733  0.00  0.00    +0.000 A 
ATOM     29  C   UNL     1       0.247  15.293  18.905  0.00  0.00    +0.000 A 
ATOM     30  C   UNL     1       0.960  14.100  19.059  0.00  0.00    +0.000 A 
ATOM     31 CL   UNL     1       2.289  13.797  17.992  0.00  0.00    +0.000 Cl
ENDBRANCH  22  24
ENDBRANCH  19  20
ENDBRANCH   2  19
TORSDOF 6
ENDMDL
MODEL 9
REMARK VINA RESULT:      -6.7      3.648      5.689
REMARK  Name = 
REMARK  7 active torsions:
REMARK  status: ('A' for Active; 'I' for Inactive)
REMARK    1  A    between atoms: C_1  and  N_2
REMARK    2  A    between atoms: N_2  and  C_3
REMARK    3  A    between atoms: C_3  and  C_4
REMARK    4  A    between atoms: N_6  and  C_7
REMARK    5  A    between atoms: C_15  and  C_17
REMARK    6  A    between atoms: C_20  and  N_21
REMARK    7  A    between atoms: C_26  and  N_27
REMARK                            x       y       z     vdW  Elec       q    Type
REMARK                         _______ _______ _______ _____ _____    ______ ____
ROOT
ATOM      1  C   UNL     1       0.627  11.115  21.260  0.00  0.00    +0.000 C 
ATOM      2  N   UNL     1       0.933   9.915  20.483  0.00  0.00    +0.000 N 
ATOM      3  C   UNL     1       1.375   8.821  21.239  0.00  0.00    +0.000 C 
ATOM      4  O   UNL     1       1.480   8.867  22.464  0.00  0.00    +0.000 OA
ENDROOT
BRANCH   3   5
ATOM      5  C   UNL     1       1.732   7.523  20.599  0.00  0.00    +0.000 A 
ATOM      6  C   UNL     1       0.934   6.407  20.888  0.00  0.00    +0.000 A 
ATOM      7  C   UNL     1       1.216   5.154  20.321  0.00  0.00    +0.000 A 
ATOM      8  C   UNL     1       2.301   5.003  19.445  0.00  0.00    +0.000 A 
ATOM      9  C   UNL     1       3.125   6.116  19.206  0.00  0.00    +0.000 A 
ATOM     10  C   UNL     1       2.862   7.352  19.804  0.00  0.00    +0.000 A 
BRANCH   8  11
ATOM     11  N   UNL     1       2.574   3.732  18.898  0.00  0.00    +0.000 N 
ATOM     12  C   UNL     1       3.514   2.820  19.305  0.00  0.00    +0.000 A 
ATOM     13  N   UNL     1       3.554   1.803  18.476  0.00  0.00    +0.000 NA
ATOM     14  C   UNL     1       2.596   2.126  17.562  0.00  0.00    +0.000 A 
ATOM     15  N   UNL     1       1.961   3.280  17.785  0.00  0.00    +0.000 NA
ENDBRANCH   8  11
BRANCH   9  16
ATOM     16  N   UNL     1       4.159   6.116  18.181  0.00  0.00    +0.000 N 
ATOM     17  O   UNL     1       5.297   5.804  18.542  0.00  0.00    +0.000 OA
ATOM     18  O   UNL     1       3.779   6.261  17.012  0.00  0.00    +0.000 OA
ENDBRANCH   9  16
ENDBRANCH   3   5
BRANCH   2  19
ATOM     19  C   UNL     1       0.495   9.851  19.079  0.00  0.00    +0.000 C 
BRANCH  19  20
ATOM     20  C   UNL     1      -0.621  10.790  18.580  0.00  0.00    +0.000 C 
ATOM     21  O   UNL     1      -0.391  11.932  18.197  0.00  0.00    +0.000 OA
ATOM     22  N   UNL     1      -1.892  10.209  18.654  0.00  0.00    +0.000 N 
ATOM     23  H   UNL     1      -2.047   9.604  19.453  0.00  0.00    +0.000 HD
BRANCH  22  24
ATOM     24  C   UNL     1      -3.036  10.957  18.244  0.00  0.00    +0.000 A 
ATOM     25  C   UNL     1      -3.701  11.853  19.096  0.00  0.00    +0.000 A 
ATOM     26 CL   UNL     1      -3.042  12.359  20.616  0.00  0.00    +0.000 Cl
ATOM     27  C   UNL     1      -4.883  12.476  18.683  0.00  0.00    +0.000 A 
ATOM     28  C   UNL     1      -5.399  12.227  17.411  0.00  0.00    +0.000 A 
ATOM     29  C   UNL     1      -4.708  11.401  16.530  0.00  0.00    +0.000 A 
ATOM     30  C   UNL     1      -3.520  10.785  16.937  0.00  0.00    +0.000 A 
ATOM     31 CL   UNL     1      -2.707   9.753  15.810  0.00  0.00    +0.000 Cl
ENDBRANCH  22  24
ENDBRANCH  19  20
ENDBRANCH   2  19
TORSDOF 6
ENDMDL
