MODEL 1
REMARK VINA RESULT:      -7.8      0.000      0.000
REMARK  Name = 
REMARK  8 active torsions:
REMARK  status: ('A' for Active; 'I' for Inactive)
REMARK    1  A    between atoms: C_2  and  C_3
REMARK    2  A    between atoms: C_6  and  C_7
REMARK    3  A    between atoms: C_7  and  N_8
REMARK    4  A    between atoms: C_12  and  C_13
REMARK    5  A    between atoms: C_13  and  C_14
REMARK    6  A    between atoms: C_14  and  N_15
REMARK    7  A    between atoms: N_15  and  C_16
REMARK    8  A    between atoms: N_19  and  C_20
REMARK                            x       y       z     vdW  Elec       q    Type
REMARK                         _______ _______ _______ _____ _____    ______ ____
ROOT
ATOM      1  C   UNL     1       1.544   4.491  17.615  0.00  0.00    +0.000 C 
ENDROOT
BRANCH   1   6
ATOM      2  N   UNL     1       2.711   2.922  19.301  0.00  0.00    +0.000 N 
ATOM      3  C   UNL     1       2.449   2.512  20.584  0.00  0.00    +0.000 A 
ATOM      4  N   UNL     1       1.273   2.919  20.994  0.00  0.00    +0.000 NA
ATOM      5  C   UNL     1       0.781   3.679  19.969  0.00  0.00    +0.000 A 
ATOM      6  C   UNL     1       1.670   3.741  18.911  0.00  0.00    +0.000 A 
BRANCH   2   7
ATOM      7  C   UNL     1       3.926   2.558  18.580  0.00  0.00    +0.000 C 
BRANCH   7  11
ATOM      8  C   UNL     1       6.469   5.978  17.715  0.00  0.00    +0.000 A 
ATOM      9  C   UNL     1       5.890   5.231  16.687  0.00  0.00    +0.000 A 
ATOM     10  C   UNL     1       5.099   4.115  16.986  0.00  0.00    +0.000 A 
ATOM     11  C   UNL     1       4.879   3.713  18.316  0.00  0.00    +0.000 A 
ATOM     12  C   UNL     1       5.484   4.466  19.337  0.00  0.00    +0.000 A 
ATOM     13  C   UNL     1       6.272   5.584  19.040  0.00  0.00    +0.000 A 
BRANCH   8  15
ATOM     14  N   UNL     1       7.870   8.094  17.162  0.00  0.00    +0.000 NA
ATOM     15  C   UNL     1       7.243   7.149  17.415  0.00  0.00    +0.000 C 
ENDBRANCH   8  15
ENDBRANCH   7  11
ENDBRANCH   2   7
ENDBRANCH   1   6
BRANCH   1  16
ATOM     16  C   UNL     1       1.540   6.000  17.851  0.00  0.00    +0.000 C 
BRANCH  16  17
ATOM     17  N   UNL     1       2.843   6.612  18.137  0.00  0.00    +0.000 NA
ATOM     18  H   UNL     1       3.419   6.673  17.294  0.00  0.00    +0.000 HD
BRANCH  17  19
ATOM     19  C   UNL     1       2.616   7.978  18.653  0.00  0.00    +0.000 C 
ATOM     20  C   UNL     1       1.770   8.809  17.700  0.00  0.00    +0.000 C 
ATOM     21  C   UNL     1       1.194   9.871  18.596  0.00  0.00    +0.000 C 
ATOM     22  N   UNL     1       1.016   9.214  19.870  0.00  0.00    +0.000 N 
ATOM     23  C   UNL     1       1.805   8.042  19.950  0.00  0.00    +0.000 C 
ATOM     24  O   UNL     1       1.926   7.249  20.875  0.00  0.00    +0.000 OA
BRANCH  22  25
ATOM     25  C   UNL     1       0.293   9.832  20.926  0.00  0.00    +0.000 A 
ATOM     26  C   UNL     1      -0.109   9.116  22.061  0.00  0.00    +0.000 A 
ATOM     27  C   UNL     1      -0.788   9.747  23.110  0.00  0.00    +0.000 A 
ATOM     28  C   UNL     1      -1.090  11.103  23.037  0.00  0.00    +0.000 A 
ATOM     29  C   UNL     1      -0.701  11.832  21.921  0.00  0.00    +0.000 A 
ATOM     30  C   UNL     1      -0.006  11.203  20.883  0.00  0.00    +0.000 A 
ENDBRANCH  22  25
ENDBRANCH  17  19
ENDBRANCH  16  17
ENDBRANCH   1  16
TORSDOF 8
ENDMDL
MODEL 2
REMARK VINA RESULT:      -7.8      2.757      8.391
REMARK  Name = 
REMARK  8 active torsions:
REMARK  status: ('A' for Active; 'I' for Inactive)
REMARK    1  A    between atoms: C_2  and  C_3
REMARK    2  A    between atoms: C_6  and  C_7
REMARK    3  A    between atoms: C_7  and  N_8
REMARK    4  A    between atoms: C_12  and  C_13
REMARK    5  A    between atoms: C_13  and  C_14
REMARK    6  A    between atoms: C_14  and  N_15
REMARK    7  A    between atoms: N_15  and  C_16
REMARK    8  A    between atoms: N_19  and  C_20
REMARK                            x       y       z     vdW  Elec       q    Type
REMARK                         _______ _______ _______ _____ _____    ______ ____
ROOT
ATOM      1  C   UNL     1      -0.096   8.557  21.234  0.00  0.00    +0.000 C 
ENDROOT
BRANCH   1   6
ATOM      2  N   UNL     1      -0.242  11.134  21.222  0.00  0.00    +0.000 N 
ATOM      3  C   UNL     1      -0.695  12.082  22.104  0.00  0.00    +0.000 A 
ATOM      4  N   UNL     1      -1.010  11.558  23.263  0.00  0.00    +0.000 NA
ATOM      5  C   UNL     1      -0.822  10.212  23.108  0.00  0.00    +0.000 A 
ATOM      6  C   UNL     1      -0.385   9.904  21.832  0.00  0.00    +0.000 A 
BRANCH   2   7
ATOM      7  C   UNL     1       0.230  11.455  19.880  0.00  0.00    +0.000 C 
BRANCH   7  11
ATOM      8  C   UNL     1      -2.418  10.519  16.559  0.00  0.00    +0.000 A 
ATOM      9  C   UNL     1      -2.608  11.667  17.331  0.00  0.00    +0.000 A 
ATOM     10  C   UNL     1      -1.762  11.935  18.415  0.00  0.00    +0.000 A 
ATOM     11  C   UNL     1      -0.719  11.056  18.759  0.00  0.00    +0.000 A 
ATOM     12  C   UNL     1      -0.555   9.896  17.983  0.00  0.00    +0.000 A 
ATOM     13  C   UNL     1      -1.396   9.629  16.896  0.00  0.00    +0.000 A 
BRANCH   8  15
ATOM     14  N   UNL     1      -3.937  10.051  14.505  0.00  0.00    +0.000 NA
ATOM     15  C   UNL     1      -3.255  10.263  15.421  0.00  0.00    +0.000 C 
ENDBRANCH   8  15
ENDBRANCH   7  11
ENDBRANCH   2   7
ENDBRANCH   1   6
BRANCH   1  16
ATOM     16  C   UNL     1       1.409   8.322  21.108  0.00  0.00    +0.000 C 
BRANCH  16  17
ATOM     17  N   UNL     1       1.835   6.923  20.985  0.00  0.00    +0.000 NA
ATOM     18  H   UNL     1       1.095   6.281  21.279  0.00  0.00    +0.000 HD
BRANCH  17  19
ATOM     19  C   UNL     1       2.156   6.655  19.568  0.00  0.00    +0.000 C 
ATOM     20  C   UNL     1       2.476   7.934  18.809  0.00  0.00    +0.000 C 
ATOM     21  C   UNL     1       3.292   7.442  17.645  0.00  0.00    +0.000 C 
ATOM     22  N   UNL     1       4.022   6.310  18.165  0.00  0.00    +0.000 N 
ATOM     23  C   UNL     1       3.421   5.820  19.349  0.00  0.00    +0.000 C 
ATOM     24  O   UNL     1       3.746   4.870  20.049  0.00  0.00    +0.000 OA
BRANCH  22  25
ATOM     25  C   UNL     1       5.069   5.700  17.422  0.00  0.00    +0.000 A 
ATOM     26  C   UNL     1       6.280   5.331  18.022  0.00  0.00    +0.000 A 
ATOM     27  C   UNL     1       7.287   4.696  17.284  0.00  0.00    +0.000 A 
ATOM     28  C   UNL     1       7.108   4.432  15.930  0.00  0.00    +0.000 A 
ATOM     29  C   UNL     1       5.915   4.790  15.316  0.00  0.00    +0.000 A 
ATOM     30  C   UNL     1       4.903   5.407  16.058  0.00  0.00    +0.000 A 
ENDBRANCH  22  25
ENDBRANCH  17  19
ENDBRANCH  16  17
ENDBRANCH   1  16
TORSDOF 8
ENDMDL
MODEL 3
REMARK VINA RESULT:      -7.7      2.623      8.327
REMARK  Name = 
REMARK  8 active torsions:
REMARK  status: ('A' for Active; 'I' for Inactive)
REMARK    1  A    between atoms: C_2  and  C_3
REMARK    2  A    between atoms: C_6  and  C_7
REMARK    3  A    between atoms: C_7  and  N_8
REMARK    4  A    between atoms: C_12  and  C_13
REMARK    5  A    between atoms: C_13  and  C_14
REMARK    6  A    between atoms: C_14  and  N_15
REMARK    7  A    between atoms: N_15  and  C_16
REMARK    8  A    between atoms: N_19  and  C_20
REMARK                            x       y       z     vdW  Elec       q    Type
REMARK                         _______ _______ _______ _____ _____    ______ ____
ROOT
ATOM      1  C   UNL     1       1.464   9.015  22.042  0.00  0.00    +0.000 C 
ENDROOT
BRANCH   1   6
ATOM      2  N   UNL     1      -0.077  11.020  21.521  0.00  0.00    +0.000 N 
ATOM      3  C   UNL     1      -1.206  11.548  22.094  0.00  0.00    +0.000 A 
ATOM      4  N   UNL     1      -1.488  10.970  23.235  0.00  0.00    +0.000 NA
ATOM      5  C   UNL     1      -0.552   9.983  23.376  0.00  0.00    +0.000 A 
ATOM      6  C   UNL     1       0.322   9.955  22.304  0.00  0.00    +0.000 A 
BRANCH   2   7
ATOM      7  C   UNL     1       0.494  11.520  20.275  0.00  0.00    +0.000 C 
BRANCH   7  11
ATOM      8  C   UNL     1      -2.065  10.648  16.868  0.00  0.00    +0.000 A 
ATOM      9  C   UNL     1      -1.164   9.698  17.355  0.00  0.00    +0.000 A 
ATOM     10  C   UNL     1      -0.328  10.010  18.434  0.00  0.00    +0.000 A 
ATOM     11  C   UNL     1      -0.363  11.279  19.041  0.00  0.00    +0.000 A 
ATOM     12  C   UNL     1      -1.263  12.227  18.527  0.00  0.00    +0.000 A 
ATOM     13  C   UNL     1      -2.103  11.917  17.451  0.00  0.00    +0.000 A 
BRANCH   8  15
ATOM     14  N   UNL     1      -3.677  10.061  14.919  0.00  0.00    +0.000 NA
ATOM     15  C   UNL     1      -2.955  10.318  15.792  0.00  0.00    +0.000 C 
ENDBRANCH   8  15
ENDBRANCH   7  11
ENDBRANCH   2   7
ENDBRANCH   1   6
BRANCH   1  16
ATOM     16  C   UNL     1       1.060   7.919  21.057  0.00  0.00    +0.000 C 
BRANCH  16  17
ATOM     17  N   UNL     1       1.984   6.784  20.942  0.00  0.00    +0.000 NA
ATOM     18  H   UNL     1       1.597   5.942  21.375  0.00  0.00    +0.000 HD
BRANCH  17  19
ATOM     19  C   UNL     1       2.213   6.512  19.507  0.00  0.00    +0.000 C 
ATOM     20  C   UNL     1       2.439   7.792  18.717  0.00  0.00    +0.000 C 
ATOM     21  C   UNL     1       3.186   7.314  17.502  0.00  0.00    +0.000 C 
ATOM     22  N   UNL     1       3.985   6.209  17.979  0.00  0.00    +0.000 N 
ATOM     23  C   UNL     1       3.484   5.713  19.206  0.00  0.00    +0.000 C 
ATOM     24  O   UNL     1       3.886   4.780  19.888  0.00  0.00    +0.000 OA
BRANCH  22  25
ATOM     25  C   UNL     1       4.995   5.623  17.169  0.00  0.00    +0.000 A 
ATOM     26  C   UNL     1       4.778   4.430  16.468  0.00  0.00    +0.000 A 
ATOM     27  C   UNL     1       5.771   3.886  15.644  0.00  0.00    +0.000 A 
ATOM     28  C   UNL     1       7.004   4.516  15.517  0.00  0.00    +0.000 A 
ATOM     29  C   UNL     1       7.241   5.700  16.205  0.00  0.00    +0.000 A 
ATOM     30  C   UNL     1       6.241   6.252  17.012  0.00  0.00    +0.000 A 
ENDBRANCH  22  25
ENDBRANCH  17  19
ENDBRANCH  16  17
ENDBRANCH   1  16
TORSDOF 8
ENDMDL
MODEL 4
REMARK VINA RESULT:      -7.6      2.279      2.977
REMARK  Name = 
REMARK  8 active torsions:
REMARK  status: ('A' for Active; 'I' for Inactive)
REMARK    1  A    between atoms: C_2  and  C_3
REMARK    2  A    between atoms: C_6  and  C_7
REMARK    3  A    between atoms: C_7  and  N_8
REMARK    4  A    between atoms: C_12  and  C_13
REMARK    5  A    between atoms: C_13  and  C_14
REMARK    6  A    between atoms: C_14  and  N_15
REMARK    7  A    between atoms: N_15  and  C_16
REMARK    8  A    between atoms: N_19  and  C_20
REMARK                            x       y       z     vdW  Elec       q    Type
REMARK                         _______ _______ _______ _____ _____    ______ ____
ROOT
ATOM      1  C   UNL     1       1.836   5.013  20.793  0.00  0.00    +0.000 C 
ENDROOT
BRANCH   1   6
ATOM      2  N   UNL     1       3.041   3.292  19.294  0.00  0.00    +0.000 N 
ATOM      3  C   UNL     1       2.649   2.190  18.576  0.00  0.00    +0.000 A 
ATOM      4  N   UNL     1       1.345   2.061  18.555  0.00  0.00    +0.000 NA
ATOM      5  C   UNL     1       0.874   3.075  19.344  0.00  0.00    +0.000 A 
ATOM      6  C   UNL     1       1.906   3.838  19.859  0.00  0.00    +0.000 A 
BRANCH   2   7
ATOM      7  C   UNL     1       4.434   3.701  19.428  0.00  0.00    +0.000 C 
BRANCH   7  11
ATOM      8  C   UNL     1       6.484   4.788  15.749  0.00  0.00    +0.000 A 
ATOM      9  C   UNL     1       7.139   4.838  16.982  0.00  0.00    +0.000 A 
ATOM     10  C   UNL     1       6.453   4.512  18.158  0.00  0.00    +0.000 A 
ATOM     11  C   UNL     1       5.095   4.144  18.131  0.00  0.00    +0.000 A 
ATOM     12  C   UNL     1       4.447   4.118  16.885  0.00  0.00    +0.000 A 
ATOM     13  C   UNL     1       5.133   4.438  15.707  0.00  0.00    +0.000 A 
BRANCH   8  15
ATOM     14  N   UNL     1       7.778   5.316  13.561  0.00  0.00    +0.000 NA
ATOM     15  C   UNL     1       7.196   5.077  14.537  0.00  0.00    +0.000 C 
ENDBRANCH   8  15
ENDBRANCH   7  11
ENDBRANCH   2   7
ENDBRANCH   1   6
BRANCH   1  16
ATOM     16  C   UNL     1       1.944   6.331  20.028  0.00  0.00    +0.000 C 
BRANCH  16  17
ATOM     17  N   UNL     1       2.125   7.537  20.845  0.00  0.00    +0.000 NA
ATOM     18  H   UNL     1       3.096   7.641  21.149  0.00  0.00    +0.000 HD
BRANCH  17  19
ATOM     19  C   UNL     1       1.759   8.714  20.029  0.00  0.00    +0.000 C 
ATOM     20  C   UNL     1       1.967   8.459  18.544  0.00  0.00    +0.000 C 
ATOM     21  C   UNL     1       1.052   9.462  17.896  0.00  0.00    +0.000 C 
ATOM     22  N   UNL     1      -0.065   9.576  18.804  0.00  0.00    +0.000 N 
ATOM     23  C   UNL     1       0.277   9.095  20.091  0.00  0.00    +0.000 C 
ATOM     24  O   UNL     1      -0.400   9.053  21.109  0.00  0.00    +0.000 OA
BRANCH  22  25
ATOM     25  C   UNL     1      -1.247  10.274  18.439  0.00  0.00    +0.000 A 
ATOM     26  C   UNL     1      -2.002   9.909  17.317  0.00  0.00    +0.000 A 
ATOM     27  C   UNL     1      -3.186  10.584  16.993  0.00  0.00    +0.000 A 
ATOM     28  C   UNL     1      -3.628  11.645  17.775  0.00  0.00    +0.000 A 
ATOM     29  C   UNL     1      -2.894  12.024  18.892  0.00  0.00    +0.000 A 
ATOM     30  C   UNL     1      -1.723  11.337  19.225  0.00  0.00    +0.000 A 
ENDBRANCH  22  25
ENDBRANCH  17  19
ENDBRANCH  16  17
ENDBRANCH   1  16
TORSDOF 8
ENDMDL
MODEL 5
REMARK VINA RESULT:      -7.6      2.701      8.593
REMARK  Name = 
REMARK  8 active torsions:
REMARK  status: ('A' for Active; 'I' for Inactive)
REMARK    1  A    between atoms: C_2  and  C_3
REMARK    2  A    between atoms: C_6  and  C_7
REMARK    3  A    between atoms: C_7  and  N_8
REMARK    4  A    between atoms: C_12  and  C_13
REMARK    5  A    between atoms: C_13  and  C_14
REMARK    6  A    between atoms: C_14  and  N_15
REMARK    7  A    between atoms: N_15  and  C_16
REMARK    8  A    between atoms: N_19  and  C_20
REMARK                            x       y       z     vdW  Elec       q    Type
REMARK                         _______ _______ _______ _____ _____    ______ ____
ROOT
ATOM      1  C   UNL     1       1.473   7.448  20.818  0.00  0.00    +0.000 C 
ENDROOT
BRANCH   1   6
ATOM      2  N   UNL     1       1.362   9.470  19.217  0.00  0.00    +0.000 N 
ATOM      3  C   UNL     1       1.899   9.763  17.989  0.00  0.00    +0.000 A 
ATOM      4  N   UNL     1       2.504   8.728  17.462  0.00  0.00    +0.000 NA
ATOM      5  C   UNL     1       2.419   7.746  18.410  0.00  0.00    +0.000 A 
ATOM      6  C   UNL     1       1.752   8.185  19.539  0.00  0.00    +0.000 A 
BRANCH   2   7
ATOM      7  C   UNL     1       0.585  10.427  19.997  0.00  0.00    +0.000 C 
BRANCH   7  11
ATOM      8  C   UNL     1      -3.280  11.374  18.242  0.00  0.00    +0.000 A 
ATOM      9  C   UNL     1      -2.475  10.363  17.711  0.00  0.00    +0.000 A 
ATOM     10  C   UNL     1      -1.221  10.094  18.272  0.00  0.00    +0.000 A 
ATOM     11  C   UNL     1      -0.738  10.836  19.366  0.00  0.00    +0.000 A 
ATOM     12  C   UNL     1      -1.553  11.861  19.875  0.00  0.00    +0.000 A 
ATOM     13  C   UNL     1      -2.810  12.128  19.318  0.00  0.00    +0.000 A 
BRANCH   8  15
ATOM     14  N   UNL     1      -5.639  11.833  17.259  0.00  0.00    +0.000 NA
ATOM     15  C   UNL     1      -4.585  11.623  17.698  0.00  0.00    +0.000 C 
ENDBRANCH   8  15
ENDBRANCH   7  11
ENDBRANCH   2   7
ENDBRANCH   1   6
BRANCH   1  16
ATOM     16  C   UNL     1       1.396   5.941  20.578  0.00  0.00    +0.000 C 
BRANCH  16  17
ATOM     17  N   UNL     1       2.515   5.147  21.102  0.00  0.00    +0.000 NA
ATOM     18  H   UNL     1       2.220   4.556  21.882  0.00  0.00    +0.000 HD
BRANCH  17  19
ATOM     19  C   UNL     1       3.019   4.279  20.018  0.00  0.00    +0.000 C 
ATOM     20  C   UNL     1       1.992   4.103  18.910  0.00  0.00    +0.000 C 
ATOM     21  C   UNL     1       2.835   3.718  17.724  0.00  0.00    +0.000 C 
ATOM     22  N   UNL     1       4.076   4.432  17.913  0.00  0.00    +0.000 N 
ATOM     23  C   UNL     1       4.225   4.841  19.259  0.00  0.00    +0.000 C 
ATOM     24  O   UNL     1       5.148   5.444  19.790  0.00  0.00    +0.000 OA
BRANCH  22  25
ATOM     25  C   UNL     1       5.057   4.495  16.887  0.00  0.00    +0.000 A 
ATOM     26  C   UNL     1       6.420   4.634  17.178  0.00  0.00    +0.000 A 
ATOM     27  C   UNL     1       7.377   4.656  16.157  0.00  0.00    +0.000 A 
ATOM     28  C   UNL     1       6.989   4.554  14.825  0.00  0.00    +0.000 A 
ATOM     29  C   UNL     1       5.643   4.416  14.514  0.00  0.00    +0.000 A 
ATOM     30  C   UNL     1       4.689   4.375  15.536  0.00  0.00    +0.000 A 
ENDBRANCH  22  25
ENDBRANCH  17  19
ENDBRANCH  16  17
ENDBRANCH   1  16
TORSDOF 8
ENDMDL
MODEL 6
REMARK VINA RESULT:      -7.5      2.415      3.059
REMARK  Name = 
REMARK  8 active torsions:
REMARK  status: ('A' for Active; 'I' for Inactive)
REMARK    1  A    between atoms: C_2  and  C_3
REMARK    2  A    between atoms: C_6  and  C_7
REMARK    3  A    between atoms: C_7  and  N_8
REMARK    4  A    between atoms: C_12  and  C_13
REMARK    5  A    between atoms: C_13  and  C_14
REMARK    6  A    between atoms: C_14  and  N_15
REMARK    7  A    between atoms: N_15  and  C_16
REMARK    8  A    between atoms: N_19  and  C_20
REMARK                            x       y       z     vdW  Elec       q    Type
REMARK                         _______ _______ _______ _____ _____    ______ ____
ROOT
ATOM      1  C   UNL     1       1.207   5.777  20.826  0.00  0.00    +0.000 C 
ENDROOT
BRANCH   1   6
ATOM      2  N   UNL     1       2.336   3.843  19.541  0.00  0.00    +0.000 N 
ATOM      3  C   UNL     1       3.027   2.715  19.902  0.00  0.00    +0.000 A 
ATOM      4  N   UNL     1       2.996   2.518  21.197  0.00  0.00    +0.000 NA
ATOM      5  C   UNL     1       2.321   3.593  21.704  0.00  0.00    +0.000 A 
ATOM      6  C   UNL     1       1.931   4.466  20.705  0.00  0.00    +0.000 A 
BRANCH   2   7
ATOM      7  C   UNL     1       2.163   4.263  18.155  0.00  0.00    +0.000 C 
BRANCH   7  11
ATOM      8  C   UNL     1       5.758   5.044  15.836  0.00  0.00    +0.000 A 
ATOM      9  C   UNL     1       5.250   3.749  15.965  0.00  0.00    +0.000 A 
ATOM     10  C   UNL     1       4.108   3.515  16.740  0.00  0.00    +0.000 A 
ATOM     11  C   UNL     1       3.458   4.564  17.415  0.00  0.00    +0.000 A 
ATOM     12  C   UNL     1       3.994   5.857  17.290  0.00  0.00    +0.000 A 
ATOM     13  C   UNL     1       5.133   6.095  16.510  0.00  0.00    +0.000 A 
BRANCH   8  15
ATOM     14  N   UNL     1       7.833   5.494  14.340  0.00  0.00    +0.000 NA
ATOM     15  C   UNL     1       6.902   5.296  15.006  0.00  0.00    +0.000 C 
ENDBRANCH   8  15
ENDBRANCH   7  11
ENDBRANCH   2   7
ENDBRANCH   1   6
BRANCH   1  16
ATOM     16  C   UNL     1       2.047   6.923  20.265  0.00  0.00    +0.000 C 
BRANCH  16  17
ATOM     17  N   UNL     1       2.019   8.176  21.029  0.00  0.00    +0.000 NA
ATOM     18  H   UNL     1       2.951   8.428  21.366  0.00  0.00    +0.000 HD
BRANCH  17  19
ATOM     19  C   UNL     1       1.531   9.254  20.143  0.00  0.00    +0.000 C 
ATOM     20  C   UNL     1       1.721   8.907  18.674  0.00  0.00    +0.000 C 
ATOM     21  C   UNL     1       0.707   9.779  17.986  0.00  0.00    +0.000 C 
ATOM     22  N   UNL     1      -0.392   9.865  18.919  0.00  0.00    +0.000 N 
ATOM     23  C   UNL     1       0.024   9.513  20.226  0.00  0.00    +0.000 C 
ATOM     24  O   UNL     1      -0.620   9.490  21.266  0.00  0.00    +0.000 OA
BRANCH  22  25
ATOM     25  C   UNL     1      -1.639  10.433  18.544  0.00  0.00    +0.000 A 
ATOM     26  C   UNL     1      -2.439   9.861  17.547  0.00  0.00    +0.000 A 
ATOM     27  C   UNL     1      -3.683  10.410  17.215  0.00  0.00    +0.000 A 
ATOM     28  C   UNL     1      -4.144  11.551  17.864  0.00  0.00    +0.000 A 
ATOM     29  C   UNL     1      -3.367  12.135  18.855  0.00  0.00    +0.000 A 
ATOM     30  C   UNL     1      -2.133  11.574  19.198  0.00  0.00    +0.000 A 
ENDBRANCH  22  25
ENDBRANCH  17  19
ENDBRANCH  16  17
ENDBRANCH   1  16
TORSDOF 8
ENDMDL
MODEL 7
REMARK VINA RESULT:      -7.5      1.944      2.510
REMARK  Name = 
REMARK  8 active torsions:
REMARK  status: ('A' for Active; 'I' for Inactive)
REMARK    1  A    between atoms: C_2  and  C_3
REMARK    2  A    between atoms: C_6  and  C_7
REMARK    3  A    between atoms: C_7  and  N_8
REMARK    4  A    between atoms: C_12  and  C_13
REMARK    5  A    between atoms: C_13  and  C_14
REMARK    6  A    between atoms: C_14  and  N_15
REMARK    7  A    between atoms: N_15  and  C_16
REMARK    8  A    between atoms: N_19  and  C_20
REMARK                            x       y       z     vdW  Elec       q    Type
REMARK                         _______ _______ _______ _____ _____    ______ ____
ROOT
ATOM      1  C   UNL     1       2.688   4.864  20.462  0.00  0.00    +0.000 C 
ENDROOT
BRANCH   1   6
ATOM      2  N   UNL     1       2.546   2.857  18.845  0.00  0.00    +0.000 N 
ATOM      3  C   UNL     1       1.547   2.010  18.438  0.00  0.00    +0.000 A 
ATOM      4  N   UNL     1       0.375   2.390  18.884  0.00  0.00    +0.000 NA
ATOM      5  C   UNL     1       0.629   3.483  19.666  0.00  0.00    +0.000 A 
ATOM      6  C   UNL     1       1.980   3.779  19.702  0.00  0.00    +0.000 A 
BRANCH   2   7
ATOM      7  C   UNL     1       3.939   2.698  18.441  0.00  0.00    +0.000 C 
BRANCH   7  11
ATOM      8  C   UNL     1       6.278   6.296  17.735  0.00  0.00    +0.000 A 
ATOM      9  C   UNL     1       6.548   5.462  18.823  0.00  0.00    +0.000 A 
ATOM     10  C   UNL     1       5.764   4.324  19.049  0.00  0.00    +0.000 A 
ATOM     11  C   UNL     1       4.686   4.002  18.205  0.00  0.00    +0.000 A 
ATOM     12  C   UNL     1       4.417   4.862  17.126  0.00  0.00    +0.000 A 
ATOM     13  C   UNL     1       5.203   5.998  16.895  0.00  0.00    +0.000 A 
BRANCH   8  15
ATOM     14  N   UNL     1       7.771   8.366  17.255  0.00  0.00    +0.000 NA
ATOM     15  C   UNL     1       7.106   7.438  17.474  0.00  0.00    +0.000 C 
ENDBRANCH   8  15
ENDBRANCH   7  11
ENDBRANCH   2   7
ENDBRANCH   1   6
BRANCH   1  16
ATOM     16  C   UNL     1       2.259   6.247  19.974  0.00  0.00    +0.000 C 
BRANCH  16  17
ATOM     17  N   UNL     1       1.982   7.241  21.019  0.00  0.00    +0.000 NA
ATOM     18  H   UNL     1       2.789   7.369  21.635  0.00  0.00    +0.000 HD
BRANCH  17  19
ATOM     19  C   UNL     1       1.677   8.531  20.367  0.00  0.00    +0.000 C 
ATOM     20  C   UNL     1       1.874   8.465  18.860  0.00  0.00    +0.000 C 
ATOM     21  C   UNL     1       1.012   9.590  18.355  0.00  0.00    +0.000 C 
ATOM     22  N   UNL     1      -0.099   9.638  19.276  0.00  0.00    +0.000 N 
ATOM     23  C   UNL     1       0.216   8.975  20.487  0.00  0.00    +0.000 C 
ATOM     24  O   UNL     1      -0.464   8.833  21.494  0.00  0.00    +0.000 OA
BRANCH  22  25
ATOM     25  C   UNL     1      -1.244  10.437  19.013  0.00  0.00    +0.000 A 
ATOM     26  C   UNL     1      -2.165  10.098  18.013  0.00  0.00    +0.000 A 
ATOM     27  C   UNL     1      -3.308  10.875  17.791  0.00  0.00    +0.000 A 
ATOM     28  C   UNL     1      -3.545  12.014  18.555  0.00  0.00    +0.000 A 
ATOM     29  C   UNL     1      -2.644  12.368  19.551  0.00  0.00    +0.000 A 
ATOM     30  C   UNL     1      -1.513  11.580  19.784  0.00  0.00    +0.000 A 
ENDBRANCH  22  25
ENDBRANCH  17  19
ENDBRANCH  16  17
ENDBRANCH   1  16
TORSDOF 8
ENDMDL
MODEL 8
REMARK VINA RESULT:      -7.4      1.170      1.834
REMARK  Name = 
REMARK  8 active torsions:
REMARK  status: ('A' for Active; 'I' for Inactive)
REMARK    1  A    between atoms: C_2  and  C_3
REMARK    2  A    between atoms: C_6  and  C_7
REMARK    3  A    between atoms: C_7  and  N_8
REMARK    4  A    between atoms: C_12  and  C_13
REMARK    5  A    between atoms: C_13  and  C_14
REMARK    6  A    between atoms: C_14  and  N_15
REMARK    7  A    between atoms: N_15  and  C_16
REMARK    8  A    between atoms: N_19  and  C_20
REMARK                            x       y       z     vdW  Elec       q    Type
REMARK                         _______ _______ _______ _____ _____    ______ ____
ROOT
ATOM      1  C   UNL     1       1.760   4.069  17.812  0.00  0.00    +0.000 C 
ENDROOT
BRANCH   1   6
ATOM      2  N   UNL     1       4.057   3.140  18.535  0.00  0.00    +0.000 N 
ATOM      3  C   UNL     1       4.542   2.523  19.660  0.00  0.00    +0.000 A 
ATOM      4  N   UNL     1       3.585   2.234  20.507  0.00  0.00    +0.000 NA
ATOM      5  C   UNL     1       2.447   2.743  19.945  0.00  0.00    +0.000 A 
ATOM      6  C   UNL     1       2.708   3.355  18.733  0.00  0.00    +0.000 A 
BRANCH   2   7
ATOM      7  C   UNL     1       4.902   3.516  17.406  0.00  0.00    +0.000 C 
BRANCH   7  11
ATOM      8  C   UNL     1       7.133   7.234  17.750  0.00  0.00    +0.000 A 
ATOM      9  C   UNL     1       7.553   6.077  18.410  0.00  0.00    +0.000 A 
ATOM     10  C   UNL     1       6.804   4.898  18.311  0.00  0.00    +0.000 A 
ATOM     11  C   UNL     1       5.614   4.852  17.563  0.00  0.00    +0.000 A 
ATOM     12  C   UNL     1       5.196   6.030  16.920  0.00  0.00    +0.000 A 
ATOM     13  C   UNL     1       5.946   7.209  17.015  0.00  0.00    +0.000 A 
BRANCH   8  15
ATOM     14  N   UNL     1       8.555   9.403  17.872  0.00  0.00    +0.000 NA
ATOM     15  C   UNL     1       7.921   8.431  17.813  0.00  0.00    +0.000 C 
ENDBRANCH   8  15
ENDBRANCH   7  11
ENDBRANCH   2   7
ENDBRANCH   1   6
BRANCH   1  16
ATOM     16  C   UNL     1       1.852   5.583  17.993  0.00  0.00    +0.000 C 
BRANCH  16  17
ATOM     17  N   UNL     1       2.513   6.046  19.219  0.00  0.00    +0.000 NA
ATOM     18  H   UNL     1       3.483   5.726  19.264  0.00  0.00    +0.000 HD
BRANCH  17  19
ATOM     19  C   UNL     1       2.504   7.524  19.225  0.00  0.00    +0.000 C 
ATOM     20  C   UNL     1       2.028   8.093  17.897  0.00  0.00    +0.000 C 
ATOM     21  C   UNL     1       1.555   9.472  18.268  0.00  0.00    +0.000 C 
ATOM     22  N   UNL     1       1.032   9.329  19.607  0.00  0.00    +0.000 N 
ATOM     23  C   UNL     1       1.524   8.152  20.220  0.00  0.00    +0.000 C 
ATOM     24  O   UNL     1       1.317   7.718  21.345  0.00  0.00    +0.000 OA
BRANCH  22  25
ATOM     25  C   UNL     1       0.296  10.373  20.229  0.00  0.00    +0.000 A 
ATOM     26  C   UNL     1      -0.276  11.414  19.488  0.00  0.00    +0.000 A 
ATOM     27  C   UNL     1      -1.031  12.415  20.112  0.00  0.00    +0.000 A 
ATOM     28  C   UNL     1      -1.215  12.401  21.490  0.00  0.00    +0.000 A 
ATOM     29  C   UNL     1      -0.655  11.378  22.245  0.00  0.00    +0.000 A 
ATOM     30  C   UNL     1       0.082  10.369  21.617  0.00  0.00    +0.000 A 
ENDBRANCH  22  25
ENDBRANCH  17  19
ENDBRANCH  16  17
ENDBRANCH   1  16
TORSDOF 8
ENDMDL
MODEL 9
REMARK VINA RESULT:      -7.4      1.680      2.303
REMARK  Name = 
REMARK  8 active torsions:
REMARK  status: ('A' for Active; 'I' for Inactive)
REMARK    1  A    between atoms: C_2  and  C_3
REMARK    2  A    between atoms: C_6  and  C_7
REMARK    3  A    between atoms: C_7  and  N_8
REMARK    4  A    between atoms: C_12  and  C_13
REMARK    5  A    between atoms: C_13  and  C_14
REMARK    6  A    between atoms: C_14  and  N_15
REMARK    7  A    between atoms: N_15  and  C_16
REMARK    8  A    between atoms: N_19  and  C_20
REMARK                            x       y       z     vdW  Elec       q    Type
REMARK                         _______ _______ _______ _____ _____    ______ ____
ROOT
ATOM      1  C   UNL     1       1.766   4.539  19.376  0.00  0.00    +0.000 C 
ENDROOT
BRANCH   1   6
ATOM      2  N   UNL     1       3.871   3.055  19.202  0.00  0.00    +0.000 N 
ATOM      3  C   UNL     1       4.513   2.183  20.045  0.00  0.00    +0.000 A 
ATOM      4  N   UNL     1       3.826   1.969  21.139  0.00  0.00    +0.000 NA
ATOM      5  C   UNL     1       2.732   2.783  21.038  0.00  0.00    +0.000 A 
ATOM      6  C   UNL     1       2.747   3.510  19.862  0.00  0.00    +0.000 A 
BRANCH   2   7
ATOM      7  C   UNL     1       4.389   3.422  17.889  0.00  0.00    +0.000 C 
BRANCH   7  11
ATOM      8  C   UNL     1       6.839   7.012  17.730  0.00  0.00    +0.000 A 
ATOM      9  C   UNL     1       7.133   5.977  18.621  0.00  0.00    +0.000 A 
ATOM     10  C   UNL     1       6.314   4.843  18.677  0.00  0.00    +0.000 A 
ATOM     11  C   UNL     1       5.178   4.723  17.857  0.00  0.00    +0.000 A 
ATOM     12  C   UNL     1       4.887   5.781  16.979  0.00  0.00    +0.000 A 
ATOM     13  C   UNL     1       5.707   6.914  16.918  0.00  0.00    +0.000 A 
BRANCH   8  15
ATOM     14  N   UNL     1       8.391   9.086  17.556  0.00  0.00    +0.000 NA
ATOM     15  C   UNL     1       7.700   8.156  17.637  0.00  0.00    +0.000 C 
ENDBRANCH   8  15
ENDBRANCH   7  11
ENDBRANCH   2   7
ENDBRANCH   1   6
BRANCH   1  16
ATOM     16  C   UNL     1       2.286   5.955  19.623  0.00  0.00    +0.000 C 
BRANCH  16  17
ATOM     17  N   UNL     1       1.765   6.633  20.815  0.00  0.00    +0.000 NA
ATOM     18  H   UNL     1       2.373   6.485  21.624  0.00  0.00    +0.000 HD
BRANCH  17  19
ATOM     19  C   UNL     1       1.698   8.083  20.537  0.00  0.00    +0.000 C 
ATOM     20  C   UNL     1       1.932   8.387  19.065  0.00  0.00    +0.000 C 
ATOM     21  C   UNL     1       1.283   9.734  18.890  0.00  0.00    +0.000 C 
ATOM     22  N   UNL     1       0.165   9.720  19.803  0.00  0.00    +0.000 N 
ATOM     23  C   UNL     1       0.327   8.717  20.788  0.00  0.00    +0.000 C 
ATOM     24  O   UNL     1      -0.401   8.427  21.728  0.00  0.00    +0.000 OA
BRANCH  22  25
ATOM     25  C   UNL     1      -0.825  10.740  19.776  0.00  0.00    +0.000 A 
ATOM     26  C   UNL     1      -1.810  10.785  18.782  0.00  0.00    +0.000 A 
ATOM     27  C   UNL     1      -2.800  11.775  18.792  0.00  0.00    +0.000 A 
ATOM     28  C   UNL     1      -2.815  12.746  19.788  0.00  0.00    +0.000 A 
ATOM     29  C   UNL     1      -1.847  12.720  20.783  0.00  0.00    +0.000 A 
ATOM     30  C   UNL     1      -0.870  11.719  20.782  0.00  0.00    +0.000 A 
ENDBRANCH  22  25
ENDBRANCH  17  19
ENDBRANCH  16  17
ENDBRANCH   1  16
TORSDOF 8
ENDMDL
