MODEL 1
REMARK VINA RESULT:      -6.7      0.000      0.000
REMARK  Name = 
REMARK  15 active torsions:
REMARK  status: ('A' for Active; 'I' for Inactive)
REMARK    1  A    between atoms: C_2  and  C_3
REMARK    2  A    between atoms: C_3  and  N_4
REMARK    3  A    between atoms: C_5  and  C_7
REMARK    4  A    between atoms: C_7  and  N_8
REMARK    5  A    between atoms: N_8  and  C_9
REMARK    6  A    between atoms: N_8  and  C_13
REMARK    7  A    between atoms: C_9  and  C_10
REMARK    8  A    between atoms: C_10  and  O_12
REMARK    9  A    between atoms: C_18  and  N_19
REMARK   10  A    between atoms: N_19  and  C_20
REMARK   11  A    between atoms: N_19  and  C_24
REMARK   12  A    between atoms: C_20  and  C_21
REMARK   13  A    between atoms: C_21  and  O_23
REMARK   14  A    between atoms: C_24  and  C_25
REMARK   15  A    between atoms: C_25  and  O_27
REMARK                            x       y       z     vdW  Elec       q    Type
REMARK                         _______ _______ _______ _____ _____    ______ ____
ROOT
ATOM      1  C   UNL     1       3.997   4.735  17.321  0.00  0.00    +0.000 C 
ATOM      2  C   UNL     1       3.433   3.404  16.737  0.00  0.00    +0.000 C 
ATOM      3  C   UNL     1       4.056   2.153  17.358  0.00  0.00    +0.000 C 
ATOM      4  C   UNL     1       3.899   2.146  18.871  0.00  0.00    +0.000 C 
ATOM      5  C   UNL     1       4.452   3.441  19.465  0.00  0.00    +0.000 C 
ATOM      6  C   UNL     1       3.729   4.695  18.900  0.00  0.00    +0.000 C 
ENDROOT
BRANCH   1   7
ATOM      7  N   UNL     1       5.421   4.965  16.889  0.00  0.00    +0.000 NA
BRANCH   7   8
ATOM      8  C   UNL     1       5.466   5.554  15.518  0.00  0.00    +0.000 C 
BRANCH   8  10
ATOM      9  N   UNL     1       6.383   4.148  13.664  0.00  0.00    +0.000 N 
ATOM     10  C   UNL     1       6.643   4.990  14.704  0.00  0.00    +0.000 C 
ATOM     11  O   UNL     1       7.808   5.267  15.015  0.00  0.00    +0.000 OA
ATOM     12  H   UNL     1       7.195   3.832  13.149  0.00  0.00    +0.000 HD
BRANCH   9  13
ATOM     13  C   UNL     1       5.108   3.554  13.337  0.00  0.00    +0.000 C 
BRANCH  13  15
ATOM     14  C   UNL     1       3.984   3.199  11.129  0.00  0.00    +0.000 C 
ATOM     15  C   UNL     1       5.089   3.227  11.878  0.00  0.00    +0.000 C 
ENDBRANCH  13  15
ENDBRANCH   9  13
ENDBRANCH   8  10
ENDBRANCH   7   8
BRANCH   7  16
ATOM     16  C   UNL     1       6.204   5.834  17.824  0.00  0.00    +0.000 C 
BRANCH  16  17
ATOM     17  C   UNL     1       7.376   5.123  18.504  0.00  0.00    +0.000 C 
ATOM     18  O   UNL     1       7.859   5.481  19.572  0.00  0.00    +0.000 OA
BRANCH  17  19
ATOM     19  O   UNL     1       7.903   4.104  17.782  0.00  0.00    +0.000 OA
ATOM     20  H   UNL     1       8.311   3.384  18.322  0.00  0.00    +0.000 HD
ENDBRANCH  17  19
ENDBRANCH  16  17
ENDBRANCH   7  16
ENDBRANCH   1   7
BRANCH   6  21
ATOM     21  N   UNL     1       2.264   4.726  19.308  0.00  0.00    +0.000 NA
BRANCH  21  22
ATOM     22  C   UNL     1       2.101   4.616  20.802  0.00  0.00    +0.000 C 
BRANCH  22  23
ATOM     23  C   UNL     1       1.435   3.338  21.320  0.00  0.00    +0.000 C 
ATOM     24  O   UNL     1       1.783   2.730  22.322  0.00  0.00    +0.000 OA
BRANCH  23  25
ATOM     25  O   UNL     1       0.427   2.891  20.536  0.00  0.00    +0.000 OA
ATOM     26  H   UNL     1      -0.409   2.665  20.988  0.00  0.00    +0.000 HD
ENDBRANCH  23  25
ENDBRANCH  22  23
ENDBRANCH  21  22
BRANCH  21  27
ATOM     27  C   UNL     1       1.608   5.973  18.796  0.00  0.00    +0.000 C 
BRANCH  27  28
ATOM     28  C   UNL     1       2.403   7.227  19.160  0.00  0.00    +0.000 C 
ATOM     29  O   UNL     1       3.094   7.866  18.385  0.00  0.00    +0.000 OA
BRANCH  28  30
ATOM     30  O   UNL     1       2.266   7.568  20.469  0.00  0.00    +0.000 OA
ATOM     31  H   UNL     1       2.367   6.758  21.018  0.00  0.00    +0.000 HD
ENDBRANCH  28  30
ENDBRANCH  27  28
ENDBRANCH  21  27
ENDBRANCH   6  21
TORSDOF 15
ENDMDL
MODEL 2
REMARK VINA RESULT:      -6.5      2.472      5.153
REMARK  Name = 
REMARK  15 active torsions:
REMARK  status: ('A' for Active; 'I' for Inactive)
REMARK    1  A    between atoms: C_2  and  C_3
REMARK    2  A    between atoms: C_3  and  N_4
REMARK    3  A    between atoms: C_5  and  C_7
REMARK    4  A    between atoms: C_7  and  N_8
REMARK    5  A    between atoms: N_8  and  C_9
REMARK    6  A    between atoms: N_8  and  C_13
REMARK    7  A    between atoms: C_9  and  C_10
REMARK    8  A    between atoms: C_10  and  O_12
REMARK    9  A    between atoms: C_18  and  N_19
REMARK   10  A    between atoms: N_19  and  C_20
REMARK   11  A    between atoms: N_19  and  C_24
REMARK   12  A    between atoms: C_20  and  C_21
REMARK   13  A    between atoms: C_21  and  O_23
REMARK   14  A    between atoms: C_24  and  C_25
REMARK   15  A    between atoms: C_25  and  O_27
REMARK                            x       y       z     vdW  Elec       q    Type
REMARK                         _______ _______ _______ _____ _____    ______ ____
ROOT
ATOM      1  C   UNL     1       5.085   4.704  18.239  0.00  0.00    +0.000 C 
ATOM      2  C   UNL     1       4.330   5.758  19.104  0.00  0.00    +0.000 C 
ATOM      3  C   UNL     1       3.114   6.364  18.403  0.00  0.00    +0.000 C 
ATOM      4  C   UNL     1       2.137   5.288  17.953  0.00  0.00    +0.000 C 
ATOM      5  C   UNL     1       2.857   4.245  17.098  0.00  0.00    +0.000 C 
ATOM      6  C   UNL     1       4.021   3.564  17.868  0.00  0.00    +0.000 C 
ENDROOT
BRANCH   1   7
ATOM      7  N   UNL     1       5.802   5.352  17.083  0.00  0.00    +0.000 NA
BRANCH   7   8
ATOM      8  C   UNL     1       6.390   6.661  17.498  0.00  0.00    +0.000 C 
BRANCH   8  10
ATOM      9  N   UNL     1       8.402   7.536  18.698  0.00  0.00    +0.000 N 
ATOM     10  C   UNL     1       7.611   6.462  18.410  0.00  0.00    +0.000 C 
ATOM     11  O   UNL     1       7.893   5.338  18.843  0.00  0.00    +0.000 OA
ATOM     12  H   UNL     1       9.174   7.348  19.326  0.00  0.00    +0.000 HD
BRANCH   9  13
ATOM     13  C   UNL     1       8.337   8.839  18.083  0.00  0.00    +0.000 C 
BRANCH  13  15
ATOM     14  C   UNL     1       9.527  10.998  18.524  0.00  0.00    +0.000 C 
ATOM     15  C   UNL     1       9.067   9.816  18.947  0.00  0.00    +0.000 C 
ENDBRANCH  13  15
ENDBRANCH   9  13
ENDBRANCH   8  10
ENDBRANCH   7   8
BRANCH   7  16
ATOM     16  C   UNL     1       6.875   4.499  16.481  0.00  0.00    +0.000 C 
BRANCH  16  17
ATOM     17  C   UNL     1       7.001   4.635  14.962  0.00  0.00    +0.000 C 
ATOM     18  O   UNL     1       7.725   5.457  14.413  0.00  0.00    +0.000 OA
BRANCH  17  19
ATOM     19  O   UNL     1       6.174   3.823  14.260  0.00  0.00    +0.000 OA
ATOM     20  H   UNL     1       5.608   3.231  14.814  0.00  0.00    +0.000 HD
ENDBRANCH  17  19
ENDBRANCH  16  17
ENDBRANCH   7  16
ENDBRANCH   1   7
BRANCH   6  21
ATOM     21  N   UNL     1       3.510   2.749  19.046  0.00  0.00    +0.000 NA
BRANCH  21  22
ATOM     22  C   UNL     1       2.380   1.838  18.643  0.00  0.00    +0.000 C 
BRANCH  22  23
ATOM     23  C   UNL     1       0.982   2.240  19.122  0.00  0.00    +0.000 C 
ATOM     24  O   UNL     1      -0.029   2.190  18.436  0.00  0.00    +0.000 OA
BRANCH  23  25
ATOM     25  O   UNL     1       0.953   2.709  20.391  0.00  0.00    +0.000 OA
ATOM     26  H   UNL     1       0.458   3.539  20.537  0.00  0.00    +0.000 HD
ENDBRANCH  23  25
ENDBRANCH  22  23
ENDBRANCH  21  22
BRANCH  21  27
ATOM     27  C   UNL     1       4.630   1.962  19.658  0.00  0.00    +0.000 C 
BRANCH  27  28
ATOM     28  C   UNL     1       4.454   1.799  21.168  0.00  0.00    +0.000 C 
ATOM     29  O   UNL     1       3.468   2.143  21.798  0.00  0.00    +0.000 OA
BRANCH  28  30
ATOM     30  O   UNL     1       5.534   1.222  21.758  0.00  0.00    +0.000 OA
ATOM     31  H   UNL     1       6.166   0.946  21.058  0.00  0.00    +0.000 HD
ENDBRANCH  28  30
ENDBRANCH  27  28
ENDBRANCH  21  27
ENDBRANCH   6  21
TORSDOF 15
ENDMDL
MODEL 3
REMARK VINA RESULT:      -6.3      2.577      5.174
REMARK  Name = 
REMARK  15 active torsions:
REMARK  status: ('A' for Active; 'I' for Inactive)
REMARK    1  A    between atoms: C_2  and  C_3
REMARK    2  A    between atoms: C_3  and  N_4
REMARK    3  A    between atoms: C_5  and  C_7
REMARK    4  A    between atoms: C_7  and  N_8
REMARK    5  A    between atoms: N_8  and  C_9
REMARK    6  A    between atoms: N_8  and  C_13
REMARK    7  A    between atoms: C_9  and  C_10
REMARK    8  A    between atoms: C_10  and  O_12
REMARK    9  A    between atoms: C_18  and  N_19
REMARK   10  A    between atoms: N_19  and  C_20
REMARK   11  A    between atoms: N_19  and  C_24
REMARK   12  A    between atoms: C_20  and  C_21
REMARK   13  A    between atoms: C_21  and  O_23
REMARK   14  A    between atoms: C_24  and  C_25
REMARK   15  A    between atoms: C_25  and  O_27
REMARK                            x       y       z     vdW  Elec       q    Type
REMARK                         _______ _______ _______ _____ _____    ______ ____
ROOT
ATOM      1  C   UNL     1       5.272   4.372  18.198  0.00  0.00    +0.000 C 
ATOM      2  C   UNL     1       4.857   5.447  19.249  0.00  0.00    +0.000 C 
ATOM      3  C   UNL     1       3.692   6.326  18.793  0.00  0.00    +0.000 C 
ATOM      4  C   UNL     1       2.477   5.489  18.420  0.00  0.00    +0.000 C 
ATOM      5  C   UNL     1       2.861   4.432  17.386  0.00  0.00    +0.000 C 
ATOM      6  C   UNL     1       3.972   3.481  17.911  0.00  0.00    +0.000 C 
ENDROOT
BRANCH   1   7
ATOM      7  N   UNL     1       5.931   5.001  16.999  0.00  0.00    +0.000 NA
BRANCH   7   8
ATOM      8  C   UNL     1       6.962   5.993  17.426  0.00  0.00    +0.000 C 
BRANCH   8  10
ATOM      9  N   UNL     1       7.422   8.446  17.274  0.00  0.00    +0.000 N 
ATOM     10  C   UNL     1       6.659   7.393  16.866  0.00  0.00    +0.000 C 
ATOM     11  O   UNL     1       5.712   7.564  16.088  0.00  0.00    +0.000 OA
ATOM     12  H   UNL     1       7.192   9.337  16.850  0.00  0.00    +0.000 HD
BRANCH   9  13
ATOM     13  C   UNL     1       8.392   8.441  18.342  0.00  0.00    +0.000 C 
BRANCH  13  15
ATOM     14  C   UNL     1       9.427  10.287  19.681  0.00  0.00    +0.000 C 
ATOM     15  C   UNL     1       8.898   9.834  18.540  0.00  0.00    +0.000 C 
ENDBRANCH  13  15
ENDBRANCH   9  13
ENDBRANCH   8  10
ENDBRANCH   7   8
BRANCH   7  16
ATOM     16  C   UNL     1       6.556   4.012  16.063  0.00  0.00    +0.000 C 
BRANCH  16  17
ATOM     17  C   UNL     1       5.993   4.057  14.641  0.00  0.00    +0.000 C 
ATOM     18  O   UNL     1       4.987   4.684  14.329  0.00  0.00    +0.000 OA
BRANCH  17  19
ATOM     19  O   UNL     1       6.653   3.270  13.757  0.00  0.00    +0.000 OA
ATOM     20  H   UNL     1       6.500   3.498  12.807  0.00  0.00    +0.000 HD
ENDBRANCH  17  19
ENDBRANCH  16  17
ENDBRANCH   7  16
ENDBRANCH   1   7
BRANCH   6  21
ATOM     21  N   UNL     1       3.484   2.651  19.089  0.00  0.00    +0.000 NA
BRANCH  21  22
ATOM     22  C   UNL     1       2.305   1.791  18.712  0.00  0.00    +0.000 C 
BRANCH  22  23
ATOM     23  C   UNL     1       0.931   2.285  19.174  0.00  0.00    +0.000 C 
ATOM     24  O   UNL     1      -0.059   2.352  18.459  0.00  0.00    +0.000 OA
BRANCH  23  25
ATOM     25  O   UNL     1       0.903   2.696  20.462  0.00  0.00    +0.000 OA
ATOM     26  H   UNL     1       0.542   3.589  20.628  0.00  0.00    +0.000 HD
ENDBRANCH  23  25
ENDBRANCH  22  23
ENDBRANCH  21  22
BRANCH  21  27
ATOM     27  C   UNL     1       4.601   1.808  19.628  0.00  0.00    +0.000 C 
BRANCH  27  28
ATOM     28  C   UNL     1       4.544   1.691  21.151  0.00  0.00    +0.000 C 
ATOM     29  O   UNL     1       3.591   2.012  21.841  0.00  0.00    +0.000 OA
BRANCH  28  30
ATOM     30  O   UNL     1       5.691   1.187  21.677  0.00  0.00    +0.000 OA
ATOM     31  H   UNL     1       5.483   0.767  22.542  0.00  0.00    +0.000 HD
ENDBRANCH  28  30
ENDBRANCH  27  28
ENDBRANCH  21  27
ENDBRANCH   6  21
TORSDOF 15
ENDMDL
MODEL 4
REMARK VINA RESULT:      -6.2      0.747      1.056
REMARK  Name = 
REMARK  15 active torsions:
REMARK  status: ('A' for Active; 'I' for Inactive)
REMARK    1  A    between atoms: C_2  and  C_3
REMARK    2  A    between atoms: C_3  and  N_4
REMARK    3  A    between atoms: C_5  and  C_7
REMARK    4  A    between atoms: C_7  and  N_8
REMARK    5  A    between atoms: N_8  and  C_9
REMARK    6  A    between atoms: N_8  and  C_13
REMARK    7  A    between atoms: C_9  and  C_10
REMARK    8  A    between atoms: C_10  and  O_12
REMARK    9  A    between atoms: C_18  and  N_19
REMARK   10  A    between atoms: N_19  and  C_20
REMARK   11  A    between atoms: N_19  and  C_24
REMARK   12  A    between atoms: C_20  and  C_21
REMARK   13  A    between atoms: C_21  and  O_23
REMARK   14  A    between atoms: C_24  and  C_25
REMARK   15  A    between atoms: C_25  and  O_27
REMARK                            x       y       z     vdW  Elec       q    Type
REMARK                         _______ _______ _______ _____ _____    ______ ____
ROOT
ATOM      1  C   UNL     1       4.223   5.014  17.435  0.00  0.00    +0.000 C 
ATOM      2  C   UNL     1       3.364   3.838  16.879  0.00  0.00    +0.000 C 
ATOM      3  C   UNL     1       3.818   2.465  17.374  0.00  0.00    +0.000 C 
ATOM      4  C   UNL     1       3.838   2.400  18.894  0.00  0.00    +0.000 C 
ATOM      5  C   UNL     1       4.681   3.542  19.460  0.00  0.00    +0.000 C 
ATOM      6  C   UNL     1       4.136   4.933  19.033  0.00  0.00    +0.000 C 
ENDROOT
BRANCH   1   7
ATOM      7  N   UNL     1       5.606   5.015  16.838  0.00  0.00    +0.000 NA
BRANCH   7   8
ATOM      8  C   UNL     1       5.562   5.448  15.410  0.00  0.00    +0.000 C 
BRANCH   8  10
ATOM      9  N   UNL     1       6.406   4.090  13.487  0.00  0.00    +0.000 N 
ATOM     10  C   UNL     1       6.708   4.820  14.599  0.00  0.00    +0.000 C 
ATOM     11  O   UNL     1       7.880   4.943  14.974  0.00  0.00    +0.000 OA
ATOM     12  H   UNL     1       7.203   3.726  12.980  0.00  0.00    +0.000 HD
BRANCH   9  13
ATOM     13  C   UNL     1       5.092   3.666  13.068  0.00  0.00    +0.000 C 
BRANCH  13  15
ATOM     14  C   UNL     1       5.690   1.832  11.472  0.00  0.00    +0.000 C 
ATOM     15  C   UNL     1       5.195   3.051  11.709  0.00  0.00    +0.000 C 
ENDBRANCH  13  15
ENDBRANCH   9  13
ENDBRANCH   8  10
ENDBRANCH   7   8
BRANCH   7  16
ATOM     16  C   UNL     1       6.585   5.870  17.582  0.00  0.00    +0.000 C 
BRANCH  16  17
ATOM     17  C   UNL     1       7.614   5.080  18.393  0.00  0.00    +0.000 C 
ATOM     18  O   UNL     1       7.922   5.352  19.547  0.00  0.00    +0.000 OA
BRANCH  17  19
ATOM     19  O   UNL     1       8.232   4.094  17.698  0.00  0.00    +0.000 OA
ATOM     20  H   UNL     1       8.395   4.301  16.745  0.00  0.00    +0.000 HD
ENDBRANCH  17  19
ENDBRANCH  16  17
ENDBRANCH   7  16
ENDBRANCH   1   7
BRANCH   6  21
ATOM     21  N   UNL     1       2.758   5.198  19.620  0.00  0.00    +0.000 NA
BRANCH  21  22
ATOM     22  C   UNL     1       2.563   4.473  20.927  0.00  0.00    +0.000 C 
BRANCH  22  23
ATOM     23  C   UNL     1       1.411   3.464  20.977  0.00  0.00    +0.000 C 
ATOM     24  O   UNL     1       0.538   3.364  20.126  0.00  0.00    +0.000 OA
BRANCH  23  25
ATOM     25  O   UNL     1       1.408   2.694  22.089  0.00  0.00    +0.000 OA
ATOM     26  H   UNL     1       1.384   3.165  22.945  0.00  0.00    +0.000 HD
ENDBRANCH  23  25
ENDBRANCH  22  23
ENDBRANCH  21  22
BRANCH  21  27
ATOM     27  C   UNL     1       2.542   6.671  19.796  0.00  0.00    +0.000 C 
BRANCH  27  28
ATOM     28  C   UNL     1       2.374   7.387  18.456  0.00  0.00    +0.000 C 
ATOM     29  O   UNL     1       3.000   8.375  18.108  0.00  0.00    +0.000 OA
BRANCH  28  30
ATOM     30  O   UNL     1       1.431   6.805  17.670  0.00  0.00    +0.000 OA
ATOM     31  H   UNL     1       0.847   6.251  18.235  0.00  0.00    +0.000 HD
ENDBRANCH  28  30
ENDBRANCH  27  28
ENDBRANCH  21  27
ENDBRANCH   6  21
TORSDOF 15
ENDMDL
MODEL 5
REMARK VINA RESULT:      -6.2      1.086      1.360
REMARK  Name = 
REMARK  15 active torsions:
REMARK  status: ('A' for Active; 'I' for Inactive)
REMARK    1  A    between atoms: C_2  and  C_3
REMARK    2  A    between atoms: C_3  and  N_4
REMARK    3  A    between atoms: C_5  and  C_7
REMARK    4  A    between atoms: C_7  and  N_8
REMARK    5  A    between atoms: N_8  and  C_9
REMARK    6  A    between atoms: N_8  and  C_13
REMARK    7  A    between atoms: C_9  and  C_10
REMARK    8  A    between atoms: C_10  and  O_12
REMARK    9  A    between atoms: C_18  and  N_19
REMARK   10  A    between atoms: N_19  and  C_20
REMARK   11  A    between atoms: N_19  and  C_24
REMARK   12  A    between atoms: C_20  and  C_21
REMARK   13  A    between atoms: C_21  and  O_23
REMARK   14  A    between atoms: C_24  and  C_25
REMARK   15  A    between atoms: C_25  and  O_27
REMARK                            x       y       z     vdW  Elec       q    Type
REMARK                         _______ _______ _______ _____ _____    ______ ____
ROOT
ATOM      1  C   UNL     1       4.112   5.284  17.314  0.00  0.00    +0.000 C 
ATOM      2  C   UNL     1       3.730   3.878  16.761  0.00  0.00    +0.000 C 
ATOM      3  C   UNL     1       4.486   2.732  17.433  0.00  0.00    +0.000 C 
ATOM      4  C   UNL     1       4.294   2.749  18.942  0.00  0.00    +0.000 C 
ATOM      5  C   UNL     1       4.668   4.118  19.507  0.00  0.00    +0.000 C 
ATOM      6  C   UNL     1       3.811   5.257  18.888  0.00  0.00    +0.000 C 
ENDROOT
BRANCH   1   7
ATOM      7  N   UNL     1       5.507   5.676  16.905  0.00  0.00    +0.000 NA
BRANCH   7   8
ATOM      8  C   UNL     1       5.692   5.501  15.435  0.00  0.00    +0.000 C 
BRANCH   8  10
ATOM      9  N   UNL     1       6.901   3.875  13.968  0.00  0.00    +0.000 N 
ATOM     10  C   UNL     1       6.898   4.598  15.125  0.00  0.00    +0.000 C 
ATOM     11  O   UNL     1       7.830   4.499  15.933  0.00  0.00    +0.000 OA
ATOM     12  H   UNL     1       7.733   3.321  13.807  0.00  0.00    +0.000 HD
BRANCH   9  13
ATOM     13  C   UNL     1       5.794   3.706  13.058  0.00  0.00    +0.000 C 
BRANCH  13  15
ATOM     14  C   UNL     1       5.380   1.973  11.300  0.00  0.00    +0.000 C 
ATOM     15  C   UNL     1       6.213   2.785  11.957  0.00  0.00    +0.000 C 
ENDBRANCH  13  15
ENDBRANCH   9  13
ENDBRANCH   8  10
ENDBRANCH   7   8
BRANCH   7  16
ATOM     16  C   UNL     1       5.879   7.076  17.286  0.00  0.00    +0.000 C 
BRANCH  16  17
ATOM     17  C   UNL     1       7.330   7.234  17.744  0.00  0.00    +0.000 C 
ATOM     18  O   UNL     1       7.872   6.487  18.551  0.00  0.00    +0.000 OA
BRANCH  17  19
ATOM     19  O   UNL     1       7.954   8.331  17.249  0.00  0.00    +0.000 OA
ATOM     20  H   UNL     1       8.334   8.216  16.344  0.00  0.00    +0.000 HD
ENDBRANCH  17  19
ENDBRANCH  16  17
ENDBRANCH   7  16
ENDBRANCH   1   7
BRANCH   6  21
ATOM     21  N   UNL     1       2.344   5.119  19.264  0.00  0.00    +0.000 NA
BRANCH  21  22
ATOM     22  C   UNL     1       2.162   4.987  20.754  0.00  0.00    +0.000 C 
BRANCH  22  23
ATOM     23  C   UNL     1       1.583   3.660  21.251  0.00  0.00    +0.000 C 
ATOM     24  O   UNL     1       2.027   3.017  22.192  0.00  0.00    +0.000 OA
BRANCH  23  25
ATOM     25  O   UNL     1       0.534   3.214  20.523  0.00  0.00    +0.000 OA
ATOM     26  H   UNL     1       0.166   2.345  20.775  0.00  0.00    +0.000 HD
ENDBRANCH  23  25
ENDBRANCH  22  23
ENDBRANCH  21  22
BRANCH  21  27
ATOM     27  C   UNL     1       1.561   6.284  18.738  0.00  0.00    +0.000 C 
BRANCH  27  28
ATOM     28  C   UNL     1       2.109   7.617  19.247  0.00  0.00    +0.000 C 
ATOM     29  O   UNL     1       2.020   8.015  20.397  0.00  0.00    +0.000 OA
BRANCH  28  30
ATOM     30  O   UNL     1       2.718   8.337  18.269  0.00  0.00    +0.000 OA
ATOM     31  H   UNL     1       2.090   9.020  17.943  0.00  0.00    +0.000 HD
ENDBRANCH  28  30
ENDBRANCH  27  28
ENDBRANCH  21  27
ENDBRANCH   6  21
TORSDOF 15
ENDMDL
MODEL 6
REMARK VINA RESULT:      -6.1      2.524      5.138
REMARK  Name = 
REMARK  15 active torsions:
REMARK  status: ('A' for Active; 'I' for Inactive)
REMARK    1  A    between atoms: C_2  and  C_3
REMARK    2  A    between atoms: C_3  and  N_4
REMARK    3  A    between atoms: C_5  and  C_7
REMARK    4  A    between atoms: C_7  and  N_8
REMARK    5  A    between atoms: N_8  and  C_9
REMARK    6  A    between atoms: N_8  and  C_13
REMARK    7  A    between atoms: C_9  and  C_10
REMARK    8  A    between atoms: C_10  and  O_12
REMARK    9  A    between atoms: C_18  and  N_19
REMARK   10  A    between atoms: N_19  and  C_20
REMARK   11  A    between atoms: N_19  and  C_24
REMARK   12  A    between atoms: C_20  and  C_21
REMARK   13  A    between atoms: C_21  and  O_23
REMARK   14  A    between atoms: C_24  and  C_25
REMARK   15  A    between atoms: C_25  and  O_27
REMARK                            x       y       z     vdW  Elec       q    Type
REMARK                         _______ _______ _______ _____ _____    ______ ____
ROOT
ATOM      1  C   UNL     1       4.935   4.598  18.312  0.00  0.00    +0.000 C 
ATOM      2  C   UNL     1       4.004   5.611  19.044  0.00  0.00    +0.000 C 
ATOM      3  C   UNL     1       2.755   5.981  18.242  0.00  0.00    +0.000 C 
ATOM      4  C   UNL     1       1.954   4.746  17.860  0.00  0.00    +0.000 C 
ATOM      5  C   UNL     1       2.847   3.740  17.135  0.00  0.00    +0.000 C 
ATOM      6  C   UNL     1       4.051   3.295  18.010  0.00  0.00    +0.000 C 
ENDROOT
BRANCH   1   7
ATOM      7  N   UNL     1       5.617   5.233  17.129  0.00  0.00    +0.000 NA
BRANCH   7   8
ATOM      8  C   UNL     1       6.212   6.548  17.510  0.00  0.00    +0.000 C 
BRANCH   8  10
ATOM      9  N   UNL     1       8.286   7.438  18.588  0.00  0.00    +0.000 N 
ATOM     10  C   UNL     1       7.475   6.364  18.368  0.00  0.00    +0.000 C 
ATOM     11  O   UNL     1       7.768   5.249  18.818  0.00  0.00    +0.000 OA
ATOM     12  H   UNL     1       9.086   7.261  19.183  0.00  0.00    +0.000 HD
BRANCH   9  13
ATOM     13  C   UNL     1       8.202   8.724  17.940  0.00  0.00    +0.000 C 
BRANCH  13  15
ATOM     14  C   UNL     1       9.507  10.827  18.318  0.00  0.00    +0.000 C 
ATOM     15  C   UNL     1       8.894   9.739  18.793  0.00  0.00    +0.000 C 
ENDBRANCH  13  15
ENDBRANCH   9  13
ENDBRANCH   8  10
ENDBRANCH   7   8
BRANCH   7  16
ATOM     16  C   UNL     1       6.675   4.374  16.507  0.00  0.00    +0.000 C 
BRANCH  16  17
ATOM     17  C   UNL     1       6.760   4.493  14.984  0.00  0.00    +0.000 C 
ATOM     18  O   UNL     1       6.102   3.805  14.212  0.00  0.00    +0.000 OA
BRANCH  17  19
ATOM     19  O   UNL     1       7.696   5.369  14.546  0.00  0.00    +0.000 OA
ATOM     20  H   UNL     1       7.593   6.290  14.889  0.00  0.00    +0.000 HD
ENDBRANCH  17  19
ENDBRANCH  16  17
ENDBRANCH   7  16
ENDBRANCH   1   7
BRANCH   6  21
ATOM     21  N   UNL     1       3.593   2.526  19.240  0.00  0.00    +0.000 NA
BRANCH  21  22
ATOM     22  C   UNL     1       2.090   2.457  19.324  0.00  0.00    +0.000 C 
BRANCH  22  23
ATOM     23  C   UNL     1       1.472   2.795  20.684  0.00  0.00    +0.000 C 
ATOM     24  O   UNL     1       1.856   2.342  21.753  0.00  0.00    +0.000 OA
BRANCH  23  25
ATOM     25  O   UNL     1       0.407   3.626  20.609  0.00  0.00    +0.000 OA
ATOM     26  H   UNL     1      -0.054   3.820  21.448  0.00  0.00    +0.000 HD
ENDBRANCH  23  25
ENDBRANCH  22  23
ENDBRANCH  21  22
BRANCH  21  27
ATOM     27  C   UNL     1       4.185   1.148  19.240  0.00  0.00    +0.000 C 
BRANCH  27  28
ATOM     28  C   UNL     1       5.122   0.930  20.428  0.00  0.00    +0.000 C 
ATOM     29  O   UNL     1       5.195   1.659  21.403  0.00  0.00    +0.000 OA
BRANCH  28  30
ATOM     30  O   UNL     1       5.891  -0.181  20.287  0.00  0.00    +0.000 OA
ATOM     31  H   UNL     1       5.302  -0.960  20.173  0.00  0.00    +0.000 HD
ENDBRANCH  28  30
ENDBRANCH  27  28
ENDBRANCH  21  27
ENDBRANCH   6  21
TORSDOF 15
ENDMDL
MODEL 7
REMARK VINA RESULT:      -6.1      1.222      1.502
REMARK  Name = 
REMARK  15 active torsions:
REMARK  status: ('A' for Active; 'I' for Inactive)
REMARK    1  A    between atoms: C_2  and  C_3
REMARK    2  A    between atoms: C_3  and  N_4
REMARK    3  A    between atoms: C_5  and  C_7
REMARK    4  A    between atoms: C_7  and  N_8
REMARK    5  A    between atoms: N_8  and  C_9
REMARK    6  A    between atoms: N_8  and  C_13
REMARK    7  A    between atoms: C_9  and  C_10
REMARK    8  A    between atoms: C_10  and  O_12
REMARK    9  A    between atoms: C_18  and  N_19
REMARK   10  A    between atoms: N_19  and  C_20
REMARK   11  A    between atoms: N_19  and  C_24
REMARK   12  A    between atoms: C_20  and  C_21
REMARK   13  A    between atoms: C_21  and  O_23
REMARK   14  A    between atoms: C_24  and  C_25
REMARK   15  A    between atoms: C_25  and  O_27
REMARK                            x       y       z     vdW  Elec       q    Type
REMARK                         _______ _______ _______ _____ _____    ______ ____
ROOT
ATOM      1  C   UNL     1       4.225   5.607  17.433  0.00  0.00    +0.000 C 
ATOM      2  C   UNL     1       3.583   4.264  16.969  0.00  0.00    +0.000 C 
ATOM      3  C   UNL     1       4.215   3.031  17.615  0.00  0.00    +0.000 C 
ATOM      4  C   UNL     1       4.169   3.113  19.133  0.00  0.00    +0.000 C 
ATOM      5  C   UNL     1       4.799   4.420  19.611  0.00  0.00    +0.000 C 
ATOM      6  C   UNL     1       4.072   5.663  19.028  0.00  0.00    +0.000 C 
ENDROOT
BRANCH   1   7
ATOM      7  N   UNL     1       5.620   5.767  16.889  0.00  0.00    +0.000 NA
BRANCH   7   8
ATOM      8  C   UNL     1       5.636   5.545  15.413  0.00  0.00    +0.000 C 
BRANCH   8  10
ATOM      9  N   UNL     1       6.563   3.806  13.873  0.00  0.00    +0.000 N 
ATOM     10  C   UNL     1       6.729   4.541  15.009  0.00  0.00    +0.000 C 
ATOM     11  O   UNL     1       7.723   4.376  15.727  0.00  0.00    +0.000 OA
ATOM     12  H   UNL     1       7.328   3.183  13.645  0.00  0.00    +0.000 HD
BRANCH   9  13
ATOM     13  C   UNL     1       5.364   3.718  13.075  0.00  0.00    +0.000 C 
BRANCH  13  15
ATOM     14  C   UNL     1       6.851   2.490  11.478  0.00  0.00    +0.000 C 
ATOM     15  C   UNL     1       5.630   2.828  11.903  0.00  0.00    +0.000 C 
ENDBRANCH  13  15
ENDBRANCH   9  13
ENDBRANCH   8  10
ENDBRANCH   7   8
BRANCH   7  16
ATOM     16  C   UNL     1       6.240   7.096  17.194  0.00  0.00    +0.000 C 
BRANCH  16  17
ATOM     17  C   UNL     1       7.530   7.010  18.011  0.00  0.00    +0.000 C 
ATOM     18  O   UNL     1       8.254   7.972  18.240  0.00  0.00    +0.000 OA
BRANCH  17  19
ATOM     19  O   UNL     1       7.863   5.753  18.395  0.00  0.00    +0.000 OA
ATOM     20  H   UNL     1       7.192   5.304  18.963  0.00  0.00    +0.000 HD
ENDBRANCH  17  19
ENDBRANCH  16  17
ENDBRANCH   7  16
ENDBRANCH   1   7
BRANCH   6  21
ATOM     21  N   UNL     1       2.642   5.763  19.537  0.00  0.00    +0.000 NA
BRANCH  21  22
ATOM     22  C   UNL     1       2.348   4.713  20.577  0.00  0.00    +0.000 C 
BRANCH  22  23
ATOM     23  C   UNL     1       1.242   3.711  20.234  0.00  0.00    +0.000 C 
ATOM     24  O   UNL     1       0.713   3.609  19.136  0.00  0.00    +0.000 OA
BRANCH  23  25
ATOM     25  O   UNL     1       0.850   2.950  21.282  0.00  0.00    +0.000 OA
ATOM     26  H   UNL     1       0.007   2.465  21.177  0.00  0.00    +0.000 HD
ENDBRANCH  23  25
ENDBRANCH  22  23
ENDBRANCH  21  22
BRANCH  21  27
ATOM     27  C   UNL     1       2.379   7.135  20.083  0.00  0.00    +0.000 C 
BRANCH  27  28
ATOM     28  C   UNL     1       1.877   8.093  19.003  0.00  0.00    +0.000 C 
ATOM     29  O   UNL     1       2.063   7.954  17.805  0.00  0.00    +0.000 OA
BRANCH  28  30
ATOM     30  O   UNL     1       1.190   9.145  19.519  0.00  0.00    +0.000 OA
ATOM     31  H   UNL     1       0.996   8.961  20.465  0.00  0.00    +0.000 HD
ENDBRANCH  28  30
ENDBRANCH  27  28
ENDBRANCH  21  27
ENDBRANCH   6  21
TORSDOF 15
ENDMDL
MODEL 8
REMARK VINA RESULT:      -6.1      2.022      3.319
REMARK  Name = 
REMARK  15 active torsions:
REMARK  status: ('A' for Active; 'I' for Inactive)
REMARK    1  A    between atoms: C_2  and  C_3
REMARK    2  A    between atoms: C_3  and  N_4
REMARK    3  A    between atoms: C_5  and  C_7
REMARK    4  A    between atoms: C_7  and  N_8
REMARK    5  A    between atoms: N_8  and  C_9
REMARK    6  A    between atoms: N_8  and  C_13
REMARK    7  A    between atoms: C_9  and  C_10
REMARK    8  A    between atoms: C_10  and  O_12
REMARK    9  A    between atoms: C_18  and  N_19
REMARK   10  A    between atoms: N_19  and  C_20
REMARK   11  A    between atoms: N_19  and  C_24
REMARK   12  A    between atoms: C_20  and  C_21
REMARK   13  A    between atoms: C_21  and  O_23
REMARK   14  A    between atoms: C_24  and  C_25
REMARK   15  A    between atoms: C_25  and  O_27
REMARK                            x       y       z     vdW  Elec       q    Type
REMARK                         _______ _______ _______ _____ _____    ______ ____
ROOT
ATOM      1  C   UNL     1       5.257   4.665  18.482  0.00  0.00    +0.000 C 
ATOM      2  C   UNL     1       4.519   5.678  19.410  0.00  0.00    +0.000 C 
ATOM      3  C   UNL     1       3.388   6.433  18.711  0.00  0.00    +0.000 C 
ATOM      4  C   UNL     1       2.374   5.476  18.102  0.00  0.00    +0.000 C 
ATOM      5  C   UNL     1       3.075   4.476  17.184  0.00  0.00    +0.000 C 
ATOM      6  C   UNL     1       4.146   3.643  17.940  0.00  0.00    +0.000 C 
ENDROOT
BRANCH   1   7
ATOM      7  N   UNL     1       6.080   5.373  17.439  0.00  0.00    +0.000 NA
BRANCH   7   8
ATOM      8  C   UNL     1       5.582   5.052  16.069  0.00  0.00    +0.000 C 
BRANCH   8  10
ATOM      9  N   UNL     1       6.406   4.065  13.924  0.00  0.00    +0.000 N 
ATOM     10  C   UNL     1       6.714   4.526  15.170  0.00  0.00    +0.000 C 
ATOM     11  O   UNL     1       7.878   4.487  15.588  0.00  0.00    +0.000 OA
ATOM     12  H   UNL     1       7.196   3.758  13.369  0.00  0.00    +0.000 HD
BRANCH   9  13
ATOM     13  C   UNL     1       5.084   3.830  13.397  0.00  0.00    +0.000 C 
BRANCH  13  15
ATOM     14  C   UNL     1       4.190   3.113  11.171  0.00  0.00    +0.000 C 
ATOM     15  C   UNL     1       5.208   3.248  12.025  0.00  0.00    +0.000 C 
ENDBRANCH  13  15
ENDBRANCH   9  13
ENDBRANCH   8  10
ENDBRANCH   7   8
BRANCH   7  16
ATOM     16  C   UNL     1       6.126   6.861  17.610  0.00  0.00    +0.000 C 
BRANCH  16  17
ATOM     17  C   UNL     1       7.532   7.457  17.520  0.00  0.00    +0.000 C 
ATOM     18  O   UNL     1       8.019   8.180  18.381  0.00  0.00    +0.000 OA
BRANCH  17  19
ATOM     19  O   UNL     1       8.175   7.191  16.356  0.00  0.00    +0.000 OA
ATOM     20  H   UNL     1       7.619   6.748  15.669  0.00  0.00    +0.000 HD
ENDBRANCH  17  19
ENDBRANCH  16  17
ENDBRANCH   7  16
ENDBRANCH   1   7
BRANCH   6  21
ATOM     21  N   UNL     1       3.515   2.753  19.000  0.00  0.00    +0.000 NA
BRANCH  21  22
ATOM     22  C   UNL     1       2.365   1.956  18.442  0.00  0.00    +0.000 C 
BRANCH  22  23
ATOM     23  C   UNL     1       0.980   2.271  19.015  0.00  0.00    +0.000 C 
ATOM     24  O   UNL     1      -0.062   2.229  18.377  0.00  0.00    +0.000 OA
BRANCH  23  25
ATOM     25  O   UNL     1       1.000   2.655  20.312  0.00  0.00    +0.000 OA
ATOM     26  H   UNL     1       1.826   3.070  20.631  0.00  0.00    +0.000 HD
ENDBRANCH  23  25
ENDBRANCH  22  23
ENDBRANCH  21  22
BRANCH  21  27
ATOM     27  C   UNL     1       4.548   1.844  19.597  0.00  0.00    +0.000 C 
BRANCH  27  28
ATOM     28  C   UNL     1       4.435   1.775  21.120  0.00  0.00    +0.000 C 
ATOM     29  O   UNL     1       3.469   2.146  21.767  0.00  0.00    +0.000 OA
BRANCH  28  30
ATOM     30  O   UNL     1       5.545   1.250  21.700  0.00  0.00    +0.000 OA
ATOM     31  H   UNL     1       6.326   1.467  21.143  0.00  0.00    +0.000 HD
ENDBRANCH  28  30
ENDBRANCH  27  28
ENDBRANCH  21  27
ENDBRANCH   6  21
TORSDOF 15
ENDMDL
MODEL 9
REMARK VINA RESULT:      -6.0      2.409      3.263
REMARK  Name = 
REMARK  15 active torsions:
REMARK  status: ('A' for Active; 'I' for Inactive)
REMARK    1  A    between atoms: C_2  and  C_3
REMARK    2  A    between atoms: C_3  and  N_4
REMARK    3  A    between atoms: C_5  and  C_7
REMARK    4  A    between atoms: C_7  and  N_8
REMARK    5  A    between atoms: N_8  and  C_9
REMARK    6  A    between atoms: N_8  and  C_13
REMARK    7  A    between atoms: C_9  and  C_10
REMARK    8  A    between atoms: C_10  and  O_12
REMARK    9  A    between atoms: C_18  and  N_19
REMARK   10  A    between atoms: N_19  and  C_20
REMARK   11  A    between atoms: N_19  and  C_24
REMARK   12  A    between atoms: C_20  and  C_21
REMARK   13  A    between atoms: C_21  and  O_23
REMARK   14  A    between atoms: C_24  and  C_25
REMARK   15  A    between atoms: C_25  and  O_27
REMARK                            x       y       z     vdW  Elec       q    Type
REMARK                         _______ _______ _______ _____ _____    ______ ____
ROOT
ATOM      1  C   UNL     1       3.075   6.147  18.203  0.00  0.00    +0.000 C 
ATOM      2  C   UNL     1       1.830   5.374  17.671  0.00  0.00    +0.000 C 
ATOM      3  C   UNL     1       1.483   4.135  18.496  0.00  0.00    +0.000 C 
ATOM      4  C   UNL     1       1.271   4.483  19.961  0.00  0.00    +0.000 C 
ATOM      5  C   UNL     1       2.483   5.237  20.506  0.00  0.00    +0.000 C 
ATOM      6  C   UNL     1       2.752   6.551  19.720  0.00  0.00    +0.000 C 
ENDROOT
BRANCH   1   7
ATOM      7  N   UNL     1       4.344   5.370  17.972  0.00  0.00    +0.000 NA
BRANCH   7   8
ATOM      8  C   UNL     1       4.552   5.125  16.514  0.00  0.00    +0.000 C 
BRANCH   8  10
ATOM      9  N   UNL     1       5.828   3.412  15.213  0.00  0.00    +0.000 N 
ATOM     10  C   UNL     1       4.975   3.671  16.245  0.00  0.00    +0.000 C 
ATOM     11  O   UNL     1       4.517   2.749  16.931  0.00  0.00    +0.000 OA
ATOM     12  H   UNL     1       6.091   2.441  15.103  0.00  0.00    +0.000 HD
BRANCH   9  13
ATOM     13  C   UNL     1       6.250   4.342  14.194  0.00  0.00    +0.000 C 
BRANCH  13  15
ATOM     14  C   UNL     1       5.099   3.421  12.170  0.00  0.00    +0.000 C 
ATOM     15  C   UNL     1       6.215   3.652  12.868  0.00  0.00    +0.000 C 
ENDBRANCH  13  15
ENDBRANCH   9  13
ENDBRANCH   8  10
ENDBRANCH   7   8
BRANCH   7  16
ATOM     16  C   UNL     1       5.566   6.023  18.542  0.00  0.00    +0.000 C 
BRANCH  16  17
ATOM     17  C   UNL     1       6.423   5.097  19.407  0.00  0.00    +0.000 C 
ATOM     18  O   UNL     1       7.416   5.470  20.021  0.00  0.00    +0.000 OA
BRANCH  17  19
ATOM     19  O   UNL     1       6.046   3.796  19.372  0.00  0.00    +0.000 OA
ATOM     20  H   UNL     1       6.345   3.259  20.146  0.00  0.00    +0.000 HD
ENDBRANCH  17  19
ENDBRANCH  16  17
ENDBRANCH   7  16
ENDBRANCH   1   7
BRANCH   6  21
ATOM     21  N   UNL     1       1.618   7.549  19.896  0.00  0.00    +0.000 NA
BRANCH  21  22
ATOM     22  C   UNL     1       1.138   7.597  21.324  0.00  0.00    +0.000 C 
BRANCH  22  23
ATOM     23  C   UNL     1       0.607   8.947  21.814  0.00  0.00    +0.000 C 
ATOM     24  O   UNL     1       1.128   9.621  22.692  0.00  0.00    +0.000 OA
BRANCH  23  25
ATOM     25  O   UNL     1      -0.544   9.332  21.216  0.00  0.00    +0.000 OA
ATOM     26  H   UNL     1      -0.483   9.575  20.271  0.00  0.00    +0.000 HD
ENDBRANCH  23  25
ENDBRANCH  22  23
ENDBRANCH  21  22
BRANCH  21  27
ATOM     27  C   UNL     1       2.049   8.910  19.438  0.00  0.00    +0.000 C 
BRANCH  27  28
ATOM     28  C   UNL     1       1.247   9.384  18.226  0.00  0.00    +0.000 C 
ATOM     29  O   UNL     1       0.058   9.656  18.236  0.00  0.00    +0.000 OA
BRANCH  28  30
ATOM     30  O   UNL     1       2.007   9.471  17.102  0.00  0.00    +0.000 OA
ATOM     31  H   UNL     1       2.950   9.344  17.348  0.00  0.00    +0.000 HD
ENDBRANCH  28  30
ENDBRANCH  27  28
ENDBRANCH  21  27
ENDBRANCH   6  21
TORSDOF 15
ENDMDL
