MODEL 1
REMARK VINA RESULT:      -6.5      0.000      0.000
REMARK  Name = 
REMARK  8 active torsions:
REMARK  status: ('A' for Active; 'I' for Inactive)
REMARK    1  A    between atoms: C_1  and  N_2
REMARK    2  A    between atoms: N_2  and  C_3
REMARK    3  A    between atoms: N_2  and  C_14
REMARK    4  A    between atoms: C_3  and  C_4
REMARK    5  A    between atoms: C_4  and  C_5
REMARK    6  A    between atoms: C_5  and  O_6
REMARK    7  A    between atoms: O_6  and  C_7
REMARK    8  A    between atoms: C_14  and  C_15
REMARK                            x       y       z     vdW  Elec       q    Type
REMARK                         _______ _______ _______ _____ _____    ______ ____
ROOT
ATOM      1  C   UNL     1       7.315   4.855  17.581  0.00  0.00    +0.000 C 
ENDROOT
BRANCH   1   3
ATOM      2  C   UNL     1       7.392   7.204  17.077  0.00  0.00    +0.000 C 
ATOM      3  N   UNL     1       7.296   5.857  16.498  0.00  0.00    +0.000 NA
BRANCH   3   4
ATOM      4  C   UNL     1       6.094   5.718  15.654  0.00  0.00    +0.000 C 
BRANCH   4   5
ATOM      5  C   UNL     1       6.347   4.989  14.351  0.00  0.00    +0.000 A 
ATOM      6  C   UNL     1       7.458   5.306  13.559  0.00  0.00    +0.000 A 
ATOM      7  C   UNL     1       7.674   4.647  12.345  0.00  0.00    +0.000 A 
ATOM      8  C   UNL     1       6.782   3.663  11.920  0.00  0.00    +0.000 A 
ATOM      9  C   UNL     1       5.685   3.326  12.711  0.00  0.00    +0.000 A 
ATOM     10  C   UNL     1       5.473   3.983  13.924  0.00  0.00    +0.000 A 
ENDBRANCH   4   5
ENDBRANCH   3   4
ENDBRANCH   1   3
BRANCH   1  11
ATOM     11  C   UNL     1       7.013   5.422  18.976  0.00  0.00    +0.000 C 
BRANCH  11  12
ATOM     12  C   UNL     1       5.678   4.903  19.495  0.00  0.00    +0.000 C 
BRANCH  12  13
ATOM     13  O   UNL     1       4.613   5.320  18.633  0.00  0.00    +0.000 OA
BRANCH  13  14
ATOM     14  C   UNL     1       3.594   4.400  18.539  0.00  0.00    +0.000 A 
ATOM     15  C   UNL     1       3.726   3.205  17.819  0.00  0.00    +0.000 A 
ATOM     16  C   UNL     1       2.676   2.290  17.746  0.00  0.00    +0.000 A 
ATOM     17  C   UNL     1       1.483   2.548  18.412  0.00  0.00    +0.000 A 
ATOM     18  C   UNL     1       1.344   3.721  19.157  0.00  0.00    +0.000 A 
ATOM     19  C   UNL     1       2.397   4.641  19.225  0.00  0.00    +0.000 A 
ATOM     20 BR   UNL     1       2.131   6.221  20.245  0.00  0.00    +0.000 Br
ENDBRANCH  13  14
ENDBRANCH  12  13
ENDBRANCH  11  12
ENDBRANCH   1  11
TORSDOF 7
ENDMDL
MODEL 2
REMARK VINA RESULT:      -6.3      1.009      1.450
REMARK  Name = 
REMARK  8 active torsions:
REMARK  status: ('A' for Active; 'I' for Inactive)
REMARK    1  A    between atoms: C_1  and  N_2
REMARK    2  A    between atoms: N_2  and  C_3
REMARK    3  A    between atoms: N_2  and  C_14
REMARK    4  A    between atoms: C_3  and  C_4
REMARK    5  A    between atoms: C_4  and  C_5
REMARK    6  A    between atoms: C_5  and  O_6
REMARK    7  A    between atoms: O_6  and  C_7
REMARK    8  A    between atoms: C_14  and  C_15
REMARK                            x       y       z     vdW  Elec       q    Type
REMARK                         _______ _______ _______ _____ _____    ______ ____
ROOT
ATOM      1  C   UNL     1       6.020   6.437  17.381  0.00  0.00    +0.000 C 
ENDROOT
BRANCH   1   3
ATOM      2  C   UNL     1       7.549   4.615  17.729  0.00  0.00    +0.000 C 
ATOM      3  N   UNL     1       6.633   5.244  16.768  0.00  0.00    +0.000 NA
BRANCH   3   4
ATOM      4  C   UNL     1       7.324   5.578  15.507  0.00  0.00    +0.000 C 
BRANCH   4   5
ATOM      5  C   UNL     1       6.804   4.813  14.308  0.00  0.00    +0.000 A 
ATOM      6  C   UNL     1       7.570   4.710  13.139  0.00  0.00    +0.000 A 
ATOM      7  C   UNL     1       7.076   4.023  12.027  0.00  0.00    +0.000 A 
ATOM      8  C   UNL     1       5.813   3.431  12.079  0.00  0.00    +0.000 A 
ATOM      9  C   UNL     1       5.052   3.512  13.243  0.00  0.00    +0.000 A 
ATOM     10  C   UNL     1       5.549   4.195  14.354  0.00  0.00    +0.000 A 
ENDBRANCH   4   5
ENDBRANCH   3   4
ENDBRANCH   1   3
BRANCH   1  11
ATOM     11  C   UNL     1       4.612   6.764  16.862  0.00  0.00    +0.000 C 
BRANCH  11  12
ATOM     12  C   UNL     1       3.572   6.585  17.961  0.00  0.00    +0.000 C 
BRANCH  12  13
ATOM     13  O   UNL     1       3.932   5.491  18.811  0.00  0.00    +0.000 OA
BRANCH  13  14
ATOM     14  C   UNL     1       3.095   4.405  18.689  0.00  0.00    +0.000 A 
ATOM     15  C   UNL     1       3.327   3.379  17.763  0.00  0.00    +0.000 A 
ATOM     16  C   UNL     1       2.462   2.290  17.667  0.00  0.00    +0.000 A 
ATOM     17  C   UNL     1       1.362   2.200  18.512  0.00  0.00    +0.000 A 
ATOM     18  C   UNL     1       1.131   3.199  19.458  0.00  0.00    +0.000 A 
ATOM     19  C   UNL     1       1.996   4.295  19.552  0.00  0.00    +0.000 A 
ATOM     20 BR   UNL     1       1.612   5.623  20.854  0.00  0.00    +0.000 Br
ENDBRANCH  13  14
ENDBRANCH  12  13
ENDBRANCH  11  12
ENDBRANCH   1  11
TORSDOF 7
ENDMDL
MODEL 3
REMARK VINA RESULT:      -6.2      3.280      5.510
REMARK  Name = 
REMARK  8 active torsions:
REMARK  status: ('A' for Active; 'I' for Inactive)
REMARK    1  A    between atoms: C_1  and  N_2
REMARK    2  A    between atoms: N_2  and  C_3
REMARK    3  A    between atoms: N_2  and  C_14
REMARK    4  A    between atoms: C_3  and  C_4
REMARK    5  A    between atoms: C_4  and  C_5
REMARK    6  A    between atoms: C_5  and  O_6
REMARK    7  A    between atoms: O_6  and  C_7
REMARK    8  A    between atoms: C_14  and  C_15
REMARK                            x       y       z     vdW  Elec       q    Type
REMARK                         _______ _______ _______ _____ _____    ______ ____
ROOT
ATOM      1  C   UNL     1       2.217   3.025  20.471  0.00  0.00    +0.000 C 
ENDROOT
BRANCH   1   3
ATOM      2  C   UNL     1       1.349   2.216  18.380  0.00  0.00    +0.000 C 
ATOM      3  N   UNL     1       2.347   3.096  19.003  0.00  0.00    +0.000 NA
BRANCH   3   4
ATOM      4  C   UNL     1       3.714   2.754  18.564  0.00  0.00    +0.000 C 
BRANCH   4   5
ATOM      5  C   UNL     1       4.529   3.953  18.126  0.00  0.00    +0.000 A 
ATOM      6  C   UNL     1       4.328   4.532  16.866  0.00  0.00    +0.000 A 
ATOM      7  C   UNL     1       5.099   5.624  16.457  0.00  0.00    +0.000 A 
ATOM      8  C   UNL     1       6.074   6.145  17.308  0.00  0.00    +0.000 A 
ATOM      9  C   UNL     1       6.267   5.588  18.571  0.00  0.00    +0.000 A 
ATOM     10  C   UNL     1       5.494   4.500  18.979  0.00  0.00    +0.000 A 
ENDBRANCH   4   5
ENDBRANCH   3   4
ENDBRANCH   1   3
BRANCH   1  11
ATOM     11  C   UNL     1       2.111   4.390  21.165  0.00  0.00    +0.000 C 
BRANCH  11  12
ATOM     12  C   UNL     1       2.030   5.515  20.140  0.00  0.00    +0.000 C 
BRANCH  12  13
ATOM     13  O   UNL     1       1.662   6.743  20.778  0.00  0.00    +0.000 OA
BRANCH  13  14
ATOM     14  C   UNL     1       1.669   7.824  19.927  0.00  0.00    +0.000 A 
ATOM     15  C   UNL     1       2.300   7.790  18.675  0.00  0.00    +0.000 A 
ATOM     16  C   UNL     1       2.285   8.901  17.833  0.00  0.00    +0.000 A 
ATOM     17  C   UNL     1       1.619  10.058  18.222  0.00  0.00    +0.000 A 
ATOM     18  C   UNL     1       0.962  10.100  19.452  0.00  0.00    +0.000 A 
ATOM     19  C   UNL     1       0.982   8.986  20.300  0.00  0.00    +0.000 A 
ATOM     20 BR   UNL     1       0.078   9.121  21.964  0.00  0.00    +0.000 Br
ENDBRANCH  13  14
ENDBRANCH  12  13
ENDBRANCH  11  12
ENDBRANCH   1  11
TORSDOF 7
ENDMDL
MODEL 4
REMARK VINA RESULT:      -6.2      1.487      2.269
REMARK  Name = 
REMARK  8 active torsions:
REMARK  status: ('A' for Active; 'I' for Inactive)
REMARK    1  A    between atoms: C_1  and  N_2
REMARK    2  A    between atoms: N_2  and  C_3
REMARK    3  A    between atoms: N_2  and  C_14
REMARK    4  A    between atoms: C_3  and  C_4
REMARK    5  A    between atoms: C_4  and  C_5
REMARK    6  A    between atoms: C_5  and  O_6
REMARK    7  A    between atoms: O_6  and  C_7
REMARK    8  A    between atoms: C_14  and  C_15
REMARK                            x       y       z     vdW  Elec       q    Type
REMARK                         _______ _______ _______ _____ _____    ______ ____
ROOT
ATOM      1  C   UNL     1       6.525   6.660  17.619  0.00  0.00    +0.000 C 
ENDROOT
BRANCH   1   3
ATOM      2  C   UNL     1       5.153   6.783  15.648  0.00  0.00    +0.000 C 
ATOM      3  N   UNL     1       6.462   6.373  16.173  0.00  0.00    +0.000 NA
BRANCH   3   4
ATOM      4  C   UNL     1       6.732   4.949  15.893  0.00  0.00    +0.000 C 
BRANCH   4   5
ATOM      5  C   UNL     1       6.762   4.615  14.415  0.00  0.00    +0.000 A 
ATOM      6  C   UNL     1       5.780   3.792  13.849  0.00  0.00    +0.000 A 
ATOM      7  C   UNL     1       5.825   3.468  12.490  0.00  0.00    +0.000 A 
ATOM      8  C   UNL     1       6.852   3.969  11.689  0.00  0.00    +0.000 A 
ATOM      9  C   UNL     1       7.822   4.804  12.240  0.00  0.00    +0.000 A 
ATOM     10  C   UNL     1       7.773   5.130  13.596  0.00  0.00    +0.000 A 
ENDBRANCH   4   5
ENDBRANCH   3   4
ENDBRANCH   1   3
BRANCH   1  11
ATOM     11  C   UNL     1       6.522   5.413  18.514  0.00  0.00    +0.000 C 
BRANCH  11  12
ATOM     12  C   UNL     1       5.258   5.356  19.362  0.00  0.00    +0.000 C 
BRANCH  12  13
ATOM     13  O   UNL     1       4.118   5.090  18.537  0.00  0.00    +0.000 OA
BRANCH  13  14
ATOM     14  C   UNL     1       3.064   4.533  19.224  0.00  0.00    +0.000 A 
ATOM     15  C   UNL     1       2.321   5.252  20.170  0.00  0.00    +0.000 A 
ATOM     16  C   UNL     1       1.255   4.659  20.847  0.00  0.00    +0.000 A 
ATOM     17  C   UNL     1       0.902   3.344  20.570  0.00  0.00    +0.000 A 
ATOM     18  C   UNL     1       1.613   2.622  19.610  0.00  0.00    +0.000 A 
ATOM     19  C   UNL     1       2.687   3.215  18.935  0.00  0.00    +0.000 A 
ATOM     20 BR   UNL     1       3.617   2.168  17.652  0.00  0.00    +0.000 Br
ENDBRANCH  13  14
ENDBRANCH  12  13
ENDBRANCH  11  12
ENDBRANCH   1  11
TORSDOF 7
ENDMDL
MODEL 5
REMARK VINA RESULT:      -6.2      2.986      5.072
REMARK  Name = 
REMARK  8 active torsions:
REMARK  status: ('A' for Active; 'I' for Inactive)
REMARK    1  A    between atoms: C_1  and  N_2
REMARK    2  A    between atoms: N_2  and  C_3
REMARK    3  A    between atoms: N_2  and  C_14
REMARK    4  A    between atoms: C_3  and  C_4
REMARK    5  A    between atoms: C_4  and  C_5
REMARK    6  A    between atoms: C_5  and  O_6
REMARK    7  A    between atoms: O_6  and  C_7
REMARK    8  A    between atoms: C_14  and  C_15
REMARK                            x       y       z     vdW  Elec       q    Type
REMARK                         _______ _______ _______ _____ _____    ______ ____
ROOT
ATOM      1  C   UNL     1       2.371   3.247  19.817  0.00  0.00    +0.000 C 
ENDROOT
BRANCH   1   3
ATOM      2  C   UNL     1       2.104   3.641  17.461  0.00  0.00    +0.000 C 
ATOM      3  N   UNL     1       2.992   3.834  18.614  0.00  0.00    +0.000 NA
BRANCH   3   4
ATOM      4  C   UNL     1       4.330   3.265  18.364  0.00  0.00    +0.000 C 
BRANCH   4   5
ATOM      5  C   UNL     1       5.371   4.299  17.986  0.00  0.00    +0.000 A 
ATOM      6  C   UNL     1       6.000   5.072  18.970  0.00  0.00    +0.000 A 
ATOM      7  C   UNL     1       6.942   6.041  18.614  0.00  0.00    +0.000 A 
ATOM      8  C   UNL     1       7.263   6.239  17.271  0.00  0.00    +0.000 A 
ATOM      9  C   UNL     1       6.656   5.461  16.286  0.00  0.00    +0.000 A 
ATOM     10  C   UNL     1       5.719   4.491  16.645  0.00  0.00    +0.000 A 
ENDBRANCH   4   5
ENDBRANCH   3   4
ENDBRANCH   1   3
BRANCH   1  11
ATOM     11  C   UNL     1       2.251   4.214  21.005  0.00  0.00    +0.000 C 
BRANCH  11  12
ATOM     12  C   UNL     1       1.356   5.396  20.654  0.00  0.00    +0.000 C 
BRANCH  12  13
ATOM     13  O   UNL     1       2.016   6.628  20.966  0.00  0.00    +0.000 OA
BRANCH  13  14
ATOM     14  C   UNL     1       1.959   7.552  19.947  0.00  0.00    +0.000 A 
ATOM     15  C   UNL     1       2.566   7.334  18.703  0.00  0.00    +0.000 A 
ATOM     16  C   UNL     1       2.486   8.288  17.689  0.00  0.00    +0.000 A 
ATOM     17  C   UNL     1       1.777   9.465  17.897  0.00  0.00    +0.000 A 
ATOM     18  C   UNL     1       1.142   9.686  19.120  0.00  0.00    +0.000 A 
ATOM     19  C   UNL     1       1.227   8.731  20.140  0.00  0.00    +0.000 A 
ATOM     20 BR   UNL     1       0.349   9.104  21.782  0.00  0.00    +0.000 Br
ENDBRANCH  13  14
ENDBRANCH  12  13
ENDBRANCH  11  12
ENDBRANCH   1  11
TORSDOF 7
ENDMDL
MODEL 6
REMARK VINA RESULT:      -6.2      1.853      2.472
REMARK  Name = 
REMARK  8 active torsions:
REMARK  status: ('A' for Active; 'I' for Inactive)
REMARK    1  A    between atoms: C_1  and  N_2
REMARK    2  A    between atoms: N_2  and  C_3
REMARK    3  A    between atoms: N_2  and  C_14
REMARK    4  A    between atoms: C_3  and  C_4
REMARK    5  A    between atoms: C_4  and  C_5
REMARK    6  A    between atoms: C_5  and  O_6
REMARK    7  A    between atoms: O_6  and  C_7
REMARK    8  A    between atoms: C_14  and  C_15
REMARK                            x       y       z     vdW  Elec       q    Type
REMARK                         _______ _______ _______ _____ _____    ______ ____
ROOT
ATOM      1  C   UNL     1       5.291   4.914  18.025  0.00  0.00    +0.000 C 
ENDROOT
BRANCH   1   3
ATOM      2  C   UNL     1       7.612   4.491  17.562  0.00  0.00    +0.000 C 
ATOM      3  N   UNL     1       6.269   4.578  16.972  0.00  0.00    +0.000 NA
BRANCH   3   4
ATOM      4  C   UNL     1       6.230   5.555  15.866  0.00  0.00    +0.000 C 
BRANCH   4   5
ATOM      5  C   UNL     1       6.443   4.935  14.500  0.00  0.00    +0.000 A 
ATOM      6  C   UNL     1       7.542   5.302  13.713  0.00  0.00    +0.000 A 
ATOM      7  C   UNL     1       7.721   4.744  12.444  0.00  0.00    +0.000 A 
ATOM      8  C   UNL     1       6.803   3.814  11.957  0.00  0.00    +0.000 A 
ATOM      9  C   UNL     1       5.717   3.429  12.741  0.00  0.00    +0.000 A 
ATOM     10  C   UNL     1       5.542   3.983  14.010  0.00  0.00    +0.000 A 
ENDBRANCH   4   5
ENDBRANCH   3   4
ENDBRANCH   1   3
BRANCH   1  11
ATOM     11  C   UNL     1       3.844   5.039  17.529  0.00  0.00    +0.000 C 
BRANCH  11  12
ATOM     12  C   UNL     1       3.331   3.701  17.010  0.00  0.00    +0.000 C 
BRANCH  12  13
ATOM     13  O   UNL     1       3.542   2.675  17.986  0.00  0.00    +0.000 OA
BRANCH  13  14
ATOM     14  C   UNL     1       2.739   2.804  19.096  0.00  0.00    +0.000 A 
ATOM     15  C   UNL     1       1.403   3.219  19.011  0.00  0.00    +0.000 A 
ATOM     16  C   UNL     1       0.613   3.335  20.155  0.00  0.00    +0.000 A 
ATOM     17  C   UNL     1       1.143   3.015  21.400  0.00  0.00    +0.000 A 
ATOM     18  C   UNL     1       2.463   2.574  21.499  0.00  0.00    +0.000 A 
ATOM     19  C   UNL     1       3.258   2.462  20.352  0.00  0.00    +0.000 A 
ATOM     20 BR   UNL     1       5.048   1.868  20.565  0.00  0.00    +0.000 Br
ENDBRANCH  13  14
ENDBRANCH  12  13
ENDBRANCH  11  12
ENDBRANCH   1  11
TORSDOF 7
ENDMDL
MODEL 7
REMARK VINA RESULT:      -6.1      4.347      7.911
REMARK  Name = 
REMARK  8 active torsions:
REMARK  status: ('A' for Active; 'I' for Inactive)
REMARK    1  A    between atoms: C_1  and  N_2
REMARK    2  A    between atoms: N_2  and  C_3
REMARK    3  A    between atoms: N_2  and  C_14
REMARK    4  A    between atoms: C_3  and  C_4
REMARK    5  A    between atoms: C_4  and  C_5
REMARK    6  A    between atoms: C_5  and  O_6
REMARK    7  A    between atoms: O_6  and  C_7
REMARK    8  A    between atoms: C_14  and  C_15
REMARK                            x       y       z     vdW  Elec       q    Type
REMARK                         _______ _______ _______ _____ _____    ______ ____
ROOT
ATOM      1  C   UNL     1       6.918   7.468  17.382  0.00  0.00    +0.000 C 
ENDROOT
BRANCH   1   3
ATOM      2  C   UNL     1       7.502   5.269  18.158  0.00  0.00    +0.000 C 
ATOM      3  N   UNL     1       6.390   6.146  17.770  0.00  0.00    +0.000 NA
BRANCH   3   4
ATOM      4  C   UNL     1       5.585   5.547  16.688  0.00  0.00    +0.000 C 
BRANCH   4   5
ATOM      5  C   UNL     1       4.224   5.057  17.142  0.00  0.00    +0.000 A 
ATOM      6  C   UNL     1       3.309   5.938  17.731  0.00  0.00    +0.000 A 
ATOM      7  C   UNL     1       2.064   5.477  18.169  0.00  0.00    +0.000 A 
ATOM      8  C   UNL     1       1.727   4.132  18.017  0.00  0.00    +0.000 A 
ATOM      9  C   UNL     1       2.625   3.252  17.414  0.00  0.00    +0.000 A 
ATOM     10  C   UNL     1       3.865   3.716  16.973  0.00  0.00    +0.000 A 
ENDBRANCH   4   5
ENDBRANCH   3   4
ENDBRANCH   1   3
BRANCH   1  11
ATOM     11  C   UNL     1       8.121   7.938  18.213  0.00  0.00    +0.000 C 
BRANCH  11  12
ATOM     12  C   UNL     1       8.490   9.375  17.868  0.00  0.00    +0.000 C 
BRANCH  12  13
ATOM     13  O   UNL     1       8.610  10.158  19.061  0.00  0.00    +0.000 OA
BRANCH  13  14
ATOM     14  C   UNL     1       9.733  10.953  19.083  0.00  0.00    +0.000 A 
ATOM     15  C   UNL     1      10.577  11.089  17.972  0.00  0.00    +0.000 A 
ATOM     16  C   UNL     1      11.706  11.907  18.024  0.00  0.00    +0.000 A 
ATOM     17  C   UNL     1      11.995  12.619  19.183  0.00  0.00    +0.000 A 
ATOM     18  C   UNL     1      11.150  12.517  20.288  0.00  0.00    +0.000 A 
ATOM     19  C   UNL     1      10.020  11.692  20.238  0.00  0.00    +0.000 A 
ATOM     20 BR   UNL     1       8.923  11.592  21.785  0.00  0.00    +0.000 Br
ENDBRANCH  13  14
ENDBRANCH  12  13
ENDBRANCH  11  12
ENDBRANCH   1  11
TORSDOF 7
ENDMDL
MODEL 8
REMARK VINA RESULT:      -6.1      5.448      8.594
REMARK  Name = 
REMARK  8 active torsions:
REMARK  status: ('A' for Active; 'I' for Inactive)
REMARK    1  A    between atoms: C_1  and  N_2
REMARK    2  A    between atoms: N_2  and  C_3
REMARK    3  A    between atoms: N_2  and  C_14
REMARK    4  A    between atoms: C_3  and  C_4
REMARK    5  A    between atoms: C_4  and  C_5
REMARK    6  A    between atoms: C_5  and  O_6
REMARK    7  A    between atoms: O_6  and  C_7
REMARK    8  A    between atoms: C_14  and  C_15
REMARK                            x       y       z     vdW  Elec       q    Type
REMARK                         _______ _______ _______ _____ _____    ______ ____
ROOT
ATOM      1  C   UNL     1       1.859   9.602  17.979  0.00  0.00    +0.000 C 
ENDROOT
BRANCH   1   3
ATOM      2  C   UNL     1      -0.483  10.137  18.047  0.00  0.00    +0.000 C 
ATOM      3  N   UNL     1       0.714   9.893  18.863  0.00  0.00    +0.000 NA
BRANCH   3   4
ATOM      4  C   UNL     1       0.997  11.031  19.758  0.00  0.00    +0.000 C 
BRANCH   4   5
ATOM      5  C   UNL     1       0.127  11.061  20.997  0.00  0.00    +0.000 A 
ATOM      6  C   UNL     1       0.182  10.021  21.934  0.00  0.00    +0.000 A 
ATOM      7  C   UNL     1      -0.640  10.042  23.065  0.00  0.00    +0.000 A 
ATOM      8  C   UNL     1      -1.519  11.106  23.266  0.00  0.00    +0.000 A 
ATOM      9  C   UNL     1      -1.567  12.155  22.349  0.00  0.00    +0.000 A 
ATOM     10  C   UNL     1      -0.743  12.134  21.223  0.00  0.00    +0.000 A 
ENDBRANCH   4   5
ENDBRANCH   3   4
ENDBRANCH   1   3
BRANCH   1  11
ATOM     11  C   UNL     1       2.209   8.111  17.864  0.00  0.00    +0.000 C 
BRANCH  11  12
ATOM     12  C   UNL     1       2.342   7.477  19.243  0.00  0.00    +0.000 C 
BRANCH  12  13
ATOM     13  O   UNL     1       3.214   6.342  19.186  0.00  0.00    +0.000 OA
BRANCH  13  14
ATOM     14  C   UNL     1       2.561   5.143  19.355  0.00  0.00    +0.000 A 
ATOM     15  C   UNL     1       1.593   4.949  20.349  0.00  0.00    +0.000 A 
ATOM     16  C   UNL     1       0.945   3.722  20.491  0.00  0.00    +0.000 A 
ATOM     17  C   UNL     1       1.242   2.676  19.625  0.00  0.00    +0.000 A 
ATOM     18  C   UNL     1       2.183   2.860  18.612  0.00  0.00    +0.000 A 
ATOM     19  C   UNL     1       2.837   4.090  18.472  0.00  0.00    +0.000 A 
ATOM     20 BR   UNL     1       4.116   4.263  17.079  0.00  0.00    +0.000 Br
ENDBRANCH  13  14
ENDBRANCH  12  13
ENDBRANCH  11  12
ENDBRANCH   1  11
TORSDOF 7
ENDMDL
MODEL 9
REMARK VINA RESULT:      -6.0      2.811      5.315
REMARK  Name = 
REMARK  8 active torsions:
REMARK  status: ('A' for Active; 'I' for Inactive)
REMARK    1  A    between atoms: C_1  and  N_2
REMARK    2  A    between atoms: N_2  and  C_3
REMARK    3  A    between atoms: N_2  and  C_14
REMARK    4  A    between atoms: C_3  and  C_4
REMARK    5  A    between atoms: C_4  and  C_5
REMARK    6  A    between atoms: C_5  and  O_6
REMARK    7  A    between atoms: O_6  and  C_7
REMARK    8  A    between atoms: C_14  and  C_15
REMARK                            x       y       z     vdW  Elec       q    Type
REMARK                         _______ _______ _______ _____ _____    ______ ____
ROOT
ATOM      1  C   UNL     1       5.487   5.629  15.801  0.00  0.00    +0.000 C 
ENDROOT
BRANCH   1   3
ATOM      2  C   UNL     1       7.113   4.607  17.248  0.00  0.00    +0.000 C 
ATOM      3  N   UNL     1       5.677   4.751  16.972  0.00  0.00    +0.000 NA
BRANCH   3   4
ATOM      4  C   UNL     1       5.033   3.439  16.774  0.00  0.00    +0.000 C 
BRANCH   4   5
ATOM      5  C   UNL     1       3.888   3.172  17.730  0.00  0.00    +0.000 A 
ATOM      6  C   UNL     1       4.138   2.761  19.046  0.00  0.00    +0.000 A 
ATOM      7  C   UNL     1       3.079   2.493  19.918  0.00  0.00    +0.000 A 
ATOM      8  C   UNL     1       1.763   2.640  19.478  0.00  0.00    +0.000 A 
ATOM      9  C   UNL     1       1.505   3.067  18.177  0.00  0.00    +0.000 A 
ATOM     10  C   UNL     1       2.564   3.338  17.310  0.00  0.00    +0.000 A 
ENDBRANCH   4   5
ENDBRANCH   3   4
ENDBRANCH   1   3
BRANCH   1  11
ATOM     11  C   UNL     1       4.720   6.926  16.099  0.00  0.00    +0.000 C 
BRANCH  11  12
ATOM     12  C   UNL     1       4.396   7.036  17.584  0.00  0.00    +0.000 C 
BRANCH  12  13
ATOM     13  O   UNL     1       3.005   6.782  17.810  0.00  0.00    +0.000 OA
BRANCH  13  14
ATOM     14  C   UNL     1       2.346   7.835  18.402  0.00  0.00    +0.000 A 
ATOM     15  C   UNL     1       2.124   9.049  17.738  0.00  0.00    +0.000 A 
ATOM     16  C   UNL     1       1.449  10.096  18.364  0.00  0.00    +0.000 A 
ATOM     17  C   UNL     1       0.965   9.936  19.657  0.00  0.00    +0.000 A 
ATOM     18  C   UNL     1       1.153   8.724  20.323  0.00  0.00    +0.000 A 
ATOM     19  C   UNL     1       1.836   7.674  19.696  0.00  0.00    +0.000 A 
ATOM     20 BR   UNL     1       2.066   6.059  20.668  0.00  0.00    +0.000 Br
ENDBRANCH  13  14
ENDBRANCH  12  13
ENDBRANCH  11  12
ENDBRANCH   1  11
TORSDOF 7
ENDMDL
