MODEL 1
REMARK VINA RESULT:      -7.1      0.000      0.000
REMARK  Name = 
REMARK  6 active torsions:
REMARK  status: ('A' for Active; 'I' for Inactive)
REMARK    1  A    between atoms: C_13  and  C_14
REMARK    2  A    between atoms: C_16  and  O_17
REMARK    3  A    between atoms: O_17  and  C_18
REMARK    4  A    between atoms: C_18  and  C_20
REMARK    5  A    between atoms: C_29  and  C_30
REMARK    6  A    between atoms: C_29  and  C_31
REMARK                            x       y       z     vdW  Elec       q    Type
REMARK                         _______ _______ _______ _____ _____    ______ ____
ROOT
ATOM      1  C   UNL     1       7.002  12.350  22.805  0.00  0.00    +0.000 C 
ATOM      2  C   UNL     1       7.515  13.598  22.798  0.00  0.00    +0.000 C 
ATOM      3  C   UNL     1       9.001  13.838  22.512  0.00  0.00    +0.000 C 
ATOM      4  C   UNL     1       9.342  13.875  21.020  0.00  0.00    +0.000 C 
ATOM      5  C   UNL     1      10.788  13.415  20.554  0.00  0.00    +0.000 C 
ATOM      6  C   UNL     1      11.691  14.360  19.705  0.00  0.00    +0.000 C 
ATOM      7  C   UNL     1      10.928  15.227  18.752  0.00  0.00    +0.000 C 
ATOM      8  C   UNL     1       9.691  14.540  18.155  0.00  0.00    +0.000 C 
ATOM      9  O   UNL     1       8.582  15.388  18.589  0.00  0.00    +0.000 OA
ATOM     10  C   UNL     1       8.635  16.737  18.308  0.00  0.00    +0.000 C 
ATOM     11  O   UNL     1       9.268  17.215  17.390  0.00  0.00    +0.000 OA
ATOM     12  C   UNL     1       8.089  17.637  19.461  0.00  0.00    +0.000 C 
ATOM     13  C   UNL     1       6.859  17.097  20.144  0.00  0.00    +0.000 C 
ATOM     14  C   UNL     1       5.607  17.177  19.320  0.00  0.00    +0.000 C 
ATOM     15  C   UNL     1       6.954  16.539  21.367  0.00  0.00    +0.000 C 
ATOM     16  C   UNL     1       5.972  15.652  22.089  0.00  0.00    +0.000 C 
ATOM     17  C   UNL     1       6.627  14.772  23.201  0.00  0.00    +0.000 C 
ATOM     18  C   UNL     1       9.734  12.847  18.386  0.00  0.00    +0.000 C 
ATOM     19  O   UNL     1       9.129  12.096  17.611  0.00  0.00    +0.000 OA
ATOM     20  C   UNL     1      10.578  12.197  19.622  0.00  0.00    +0.000 C 
ATOM     21  C   UNL     1      11.956  11.565  19.227  0.00  0.00    +0.000 C 
ATOM     22  C   UNL     1       9.888  11.064  20.440  0.00  0.00    +0.000 C 
ENDROOT
BRANCH  16  23
ATOM     23  O   UNL     1       5.090  14.845  21.279  0.00  0.00    +0.000 OA
BRANCH  23  24
ATOM     24  C   UNL     1       3.814  14.626  21.665  0.00  0.00    +0.000 C 
ATOM     25  O   UNL     1       3.278  14.944  22.716  0.00  0.00    +0.000 OA
BRANCH  24  26
ATOM     26  C   UNL     1       3.025  14.047  20.554  0.00  0.00    +0.000 A 
ATOM     27  C   UNL     1       3.515  14.182  19.245  0.00  0.00    +0.000 A 
ATOM     28  C   UNL     1       2.917  13.474  18.206  0.00  0.00    +0.000 A 
ATOM     29  C   UNL     1       1.830  12.638  18.468  0.00  0.00    +0.000 A 
ATOM     30  C   UNL     1       1.318  12.533  19.760  0.00  0.00    +0.000 A 
ATOM     31  C   UNL     1       1.910  13.242  20.802  0.00  0.00    +0.000 A 
ENDBRANCH  24  26
ENDBRANCH  23  24
ENDBRANCH  16  23
TORSDOF 3
ENDMDL
MODEL 2
REMARK VINA RESULT:      -6.9      1.050      1.417
REMARK  Name = 
REMARK  6 active torsions:
REMARK  status: ('A' for Active; 'I' for Inactive)
REMARK    1  A    between atoms: C_13  and  C_14
REMARK    2  A    between atoms: C_16  and  O_17
REMARK    3  A    between atoms: O_17  and  C_18
REMARK    4  A    between atoms: C_18  and  C_20
REMARK    5  A    between atoms: C_29  and  C_30
REMARK    6  A    between atoms: C_29  and  C_31
REMARK                            x       y       z     vdW  Elec       q    Type
REMARK                         _______ _______ _______ _____ _____    ______ ____
ROOT
ATOM      1  C   UNL     1       7.235  12.309  22.705  0.00  0.00    +0.000 C 
ATOM      2  C   UNL     1       7.786  13.540  22.738  0.00  0.00    +0.000 C 
ATOM      3  C   UNL     1       9.276  13.744  22.442  0.00  0.00    +0.000 C 
ATOM      4  C   UNL     1       9.602  13.827  20.949  0.00  0.00    +0.000 C 
ATOM      5  C   UNL     1      11.027  13.340  20.449  0.00  0.00    +0.000 C 
ATOM      6  C   UNL     1      11.950  14.288  19.624  0.00  0.00    +0.000 C 
ATOM      7  C   UNL     1      11.204  15.213  18.713  0.00  0.00    +0.000 C 
ATOM      8  C   UNL     1       9.940  14.588  18.107  0.00  0.00    +0.000 C 
ATOM      9  O   UNL     1       8.863  15.452  18.585  0.00  0.00    +0.000 OA
ATOM     10  C   UNL     1       8.955  16.809  18.354  0.00  0.00    +0.000 C 
ATOM     11  O   UNL     1       9.593  17.301  17.446  0.00  0.00    +0.000 OA
ATOM     12  C   UNL     1       8.450  17.681  19.546  0.00  0.00    +0.000 C 
ATOM     13  C   UNL     1       7.212  17.154  20.223  0.00  0.00    +0.000 C 
ATOM     14  C   UNL     1       5.954  17.304  19.419  0.00  0.00    +0.000 C 
ATOM     15  C   UNL     1       7.302  16.549  21.424  0.00  0.00    +0.000 C 
ATOM     16  C   UNL     1       6.301  15.665  22.124  0.00  0.00    +0.000 C 
ATOM     17  C   UNL     1       6.940  14.725  23.195  0.00  0.00    +0.000 C 
ATOM     18  C   UNL     1       9.932  12.887  18.274  0.00  0.00    +0.000 C 
ATOM     19  O   UNL     1       9.296  12.184  17.479  0.00  0.00    +0.000 OA
ATOM     20  C   UNL     1      10.769  12.165  19.475  0.00  0.00    +0.000 C 
ATOM     21  C   UNL     1      12.122  11.506  19.040  0.00  0.00    +0.000 C 
ATOM     22  C   UNL     1      10.053  11.024  20.258  0.00  0.00    +0.000 C 
ENDROOT
BRANCH  16  23
ATOM     23  O   UNL     1       5.386  14.917  21.296  0.00  0.00    +0.000 OA
BRANCH  23  24
ATOM     24  C   UNL     1       4.078  14.829  21.626  0.00  0.00    +0.000 C 
ATOM     25  O   UNL     1       3.591  14.511  22.700  0.00  0.00    +0.000 OA
BRANCH  24  26
ATOM     26  C   UNL     1       3.227  15.328  20.522  0.00  0.00    +0.000 A 
ATOM     27  C   UNL     1       2.560  16.552  20.693  0.00  0.00    +0.000 A 
ATOM     28  C   UNL     1       1.927  17.152  19.608  0.00  0.00    +0.000 A 
ATOM     29  C   UNL     1       1.951  16.532  18.357  0.00  0.00    +0.000 A 
ATOM     30  C   UNL     1       2.578  15.298  18.195  0.00  0.00    +0.000 A 
ATOM     31  C   UNL     1       3.210  14.692  19.278  0.00  0.00    +0.000 A 
ENDBRANCH  24  26
ENDBRANCH  23  24
ENDBRANCH  16  23
TORSDOF 3
ENDMDL
MODEL 3
REMARK VINA RESULT:      -6.8      6.465     11.858
REMARK  Name = 
REMARK  6 active torsions:
REMARK  status: ('A' for Active; 'I' for Inactive)
REMARK    1  A    between atoms: C_13  and  C_14
REMARK    2  A    between atoms: C_16  and  O_17
REMARK    3  A    between atoms: O_17  and  C_18
REMARK    4  A    between atoms: C_18  and  C_20
REMARK    5  A    between atoms: C_29  and  C_30
REMARK    6  A    between atoms: C_29  and  C_31
REMARK                            x       y       z     vdW  Elec       q    Type
REMARK                         _______ _______ _______ _____ _____    ______ ____
ROOT
ATOM      1  C   UNL     1      -0.326  13.606  22.004  0.00  0.00    +0.000 C 
ATOM      2  C   UNL     1      -0.925  12.428  21.735  0.00  0.00    +0.000 C 
ATOM      3  C   UNL     1      -2.276  12.069  22.363  0.00  0.00    +0.000 C 
ATOM      4  C   UNL     1      -3.477  12.654  21.615  0.00  0.00    +0.000 C 
ATOM      5  C   UNL     1      -4.795  12.994  22.433  0.00  0.00    +0.000 C 
ATOM      6  C   UNL     1      -6.170  12.390  22.015  0.00  0.00    +0.000 C 
ATOM      7  C   UNL     1      -6.328  12.216  20.536  0.00  0.00    +0.000 C 
ATOM      8  C   UNL     1      -5.647  13.320  19.713  0.00  0.00    +0.000 C 
ATOM      9  O   UNL     1      -4.670  12.594  18.905  0.00  0.00    +0.000 OA
ATOM     10  C   UNL     1      -5.108  11.540  18.131  0.00  0.00    +0.000 C 
ATOM     11  O   UNL     1      -6.244  11.424  17.720  0.00  0.00    +0.000 OA
ATOM     12  C   UNL     1      -4.116  10.334  18.100  0.00  0.00    +0.000 C 
ATOM     13  C   UNL     1      -2.663  10.724  18.021  0.00  0.00    +0.000 C 
ATOM     14  C   UNL     1      -2.239  11.267  16.688  0.00  0.00    +0.000 C 
ATOM     15  C   UNL     1      -1.877  10.631  19.112  0.00  0.00    +0.000 C 
ATOM     16  C   UNL     1      -0.531  11.258  19.373  0.00  0.00    +0.000 C 
ATOM     17  C   UNL     1      -0.189  11.391  20.891  0.00  0.00    +0.000 C 
ATOM     18  C   UNL     1      -5.258  14.677  20.676  0.00  0.00    +0.000 C 
ATOM     19  O   UNL     1      -5.160  15.799  20.162  0.00  0.00    +0.000 OA
ATOM     20  C   UNL     1      -5.019  14.518  22.282  0.00  0.00    +0.000 C 
ATOM     21  C   UNL     1      -6.213  14.988  23.181  0.00  0.00    +0.000 C 
ATOM     22  C   UNL     1      -3.795  15.260  22.899  0.00  0.00    +0.000 C 
ENDROOT
BRANCH  16  23
ATOM     23  O   UNL     1      -0.235  12.496  18.692  0.00  0.00    +0.000 OA
BRANCH  23  24
ATOM     24  C   UNL     1       1.037  12.946  18.610  0.00  0.00    +0.000 C 
ATOM     25  O   UNL     1       2.050  12.305  18.375  0.00  0.00    +0.000 OA
BRANCH  24  26
ATOM     26  C   UNL     1       1.074  14.424  18.699  0.00  0.00    +0.000 A 
ATOM     27  C   UNL     1       2.318  15.068  18.600  0.00  0.00    +0.000 A 
ATOM     28  C   UNL     1       2.370  16.453  18.467  0.00  0.00    +0.000 A 
ATOM     29  C   UNL     1       1.189  17.196  18.440  0.00  0.00    +0.000 A 
ATOM     30  C   UNL     1      -0.044  16.561  18.577  0.00  0.00    +0.000 A 
ATOM     31  C   UNL     1      -0.103  15.177  18.714  0.00  0.00    +0.000 A 
ENDBRANCH  24  26
ENDBRANCH  23  24
ENDBRANCH  16  23
TORSDOF 3
ENDMDL
MODEL 4
REMARK VINA RESULT:      -6.7      2.123      7.082
REMARK  Name = 
REMARK  6 active torsions:
REMARK  status: ('A' for Active; 'I' for Inactive)
REMARK    1  A    between atoms: C_13  and  C_14
REMARK    2  A    between atoms: C_16  and  O_17
REMARK    3  A    between atoms: O_17  and  C_18
REMARK    4  A    between atoms: C_18  and  C_20
REMARK    5  A    between atoms: C_29  and  C_30
REMARK    6  A    between atoms: C_29  and  C_31
REMARK                            x       y       z     vdW  Elec       q    Type
REMARK                         _______ _______ _______ _____ _____    ______ ____
ROOT
ATOM      1  C   UNL     1       7.471  14.246  17.893  0.00  0.00    +0.000 C 
ATOM      2  C   UNL     1       7.672  15.136  18.886  0.00  0.00    +0.000 C 
ATOM      3  C   UNL     1       6.779  16.373  19.029  0.00  0.00    +0.000 C 
ATOM      4  C   UNL     1       5.468  16.103  19.771  0.00  0.00    +0.000 C 
ATOM      5  C   UNL     1       4.193  16.980  19.414  0.00  0.00    +0.000 C 
ATOM      6  C   UNL     1       3.430  17.767  20.524  0.00  0.00    +0.000 C 
ATOM      7  C   UNL     1       3.414  17.073  21.851  0.00  0.00    +0.000 C 
ATOM      8  C   UNL     1       3.330  15.544  21.742  0.00  0.00    +0.000 C 
ATOM      9  O   UNL     1       4.552  15.084  22.396  0.00  0.00    +0.000 OA
ATOM     10  C   UNL     1       4.817  15.517  23.679  0.00  0.00    +0.000 C 
ATOM     11  O   UNL     1       3.964  15.877  24.463  0.00  0.00    +0.000 OA
ATOM     12  C   UNL     1       6.325  15.828  23.934  0.00  0.00    +0.000 C 
ATOM     13  C   UNL     1       7.279  14.850  23.300  0.00  0.00    +0.000 C 
ATOM     14  C   UNL     1       7.317  13.503  23.960  0.00  0.00    +0.000 C 
ATOM     15  C   UNL     1       7.964  15.194  22.192  0.00  0.00    +0.000 C 
ATOM     16  C   UNL     1       8.691  14.313  21.207  0.00  0.00    +0.000 C 
ATOM     17  C   UNL     1       8.881  14.971  19.803  0.00  0.00    +0.000 C 
ATOM     18  C   UNL     1       2.848  15.046  20.179  0.00  0.00    +0.000 C 
ATOM     19  O   UNL     1       2.278  13.960  20.018  0.00  0.00    +0.000 OA
ATOM     20  C   UNL     1       3.124  15.997  18.882  0.00  0.00    +0.000 C 
ATOM     21  C   UNL     1       1.874  16.779  18.353  0.00  0.00    +0.000 C 
ATOM     22  C   UNL     1       3.682  15.308  17.599  0.00  0.00    +0.000 C 
ENDROOT
BRANCH  16  23
ATOM     23  O   UNL     1       8.215  12.959  21.055  0.00  0.00    +0.000 OA
BRANCH  23  24
ATOM     24  C   UNL     1       9.029  11.913  21.319  0.00  0.00    +0.000 C 
ATOM     25  O   UNL     1       8.967  11.125  22.250  0.00  0.00    +0.000 OA
BRANCH  24  26
ATOM     26  C   UNL     1       9.991  11.709  20.212  0.00  0.00    +0.000 A 
ATOM     27  C   UNL     1       9.489  11.407  18.936  0.00  0.00    +0.000 A 
ATOM     28  C   UNL     1      10.343  11.419  17.836  0.00  0.00    +0.000 A 
ATOM     29  C   UNL     1      11.694  11.722  18.006  0.00  0.00    +0.000 A 
ATOM     30  C   UNL     1      12.202  11.984  19.278  0.00  0.00    +0.000 A 
ATOM     31  C   UNL     1      11.354  11.970  20.382  0.00  0.00    +0.000 A 
ENDBRANCH  24  26
ENDBRANCH  23  24
ENDBRANCH  16  23
TORSDOF 3
ENDMDL
MODEL 5
REMARK VINA RESULT:      -6.6      6.633     12.067
REMARK  Name = 
REMARK  6 active torsions:
REMARK  status: ('A' for Active; 'I' for Inactive)
REMARK    1  A    between atoms: C_13  and  C_14
REMARK    2  A    between atoms: C_16  and  O_17
REMARK    3  A    between atoms: O_17  and  C_18
REMARK    4  A    between atoms: C_18  and  C_20
REMARK    5  A    between atoms: C_29  and  C_30
REMARK    6  A    between atoms: C_29  and  C_31
REMARK                            x       y       z     vdW  Elec       q    Type
REMARK                         _______ _______ _______ _____ _____    ______ ____
ROOT
ATOM      1  C   UNL     1      -1.642  14.284  23.409  0.00  0.00    +0.000 C 
ATOM      2  C   UNL     1      -1.859  13.048  22.915  0.00  0.00    +0.000 C 
ATOM      3  C   UNL     1      -3.224  12.368  23.063  0.00  0.00    +0.000 C 
ATOM      4  C   UNL     1      -4.238  12.785  21.994  0.00  0.00    +0.000 C 
ATOM      5  C   UNL     1      -5.782  12.773  22.359  0.00  0.00    +0.000 C 
ATOM      6  C   UNL     1      -6.799  11.961  21.499  0.00  0.00    +0.000 C 
ATOM      7  C   UNL     1      -6.457  11.919  20.042  0.00  0.00    +0.000 C 
ATOM      8  C   UNL     1      -5.816  13.215  19.526  0.00  0.00    +0.000 C 
ATOM      9  O   UNL     1      -4.505  12.784  19.044  0.00  0.00    +0.000 OA
ATOM     10  C   UNL     1      -4.445  11.754  18.129  0.00  0.00    +0.000 C 
ATOM     11  O   UNL     1      -5.348  11.465  17.372  0.00  0.00    +0.000 OA
ATOM     12  C   UNL     1      -3.253  10.775  18.370  0.00  0.00    +0.000 C 
ATOM     13  C   UNL     1      -1.967  11.446  18.775  0.00  0.00    +0.000 C 
ATOM     14  C   UNL     1      -1.286  12.201  17.671  0.00  0.00    +0.000 C 
ATOM     15  C   UNL     1      -1.551  11.392  20.056  0.00  0.00    +0.000 C 
ATOM     16  C   UNL     1      -0.519  12.237  20.759  0.00  0.00    +0.000 C 
ATOM     17  C   UNL     1      -0.693  12.271  22.311  0.00  0.00    +0.000 C 
ATOM     18  C   UNL     1      -6.045  14.512  20.615  0.00  0.00    +0.000 C 
ATOM     19  O   UNL     1      -6.042  15.680  20.206  0.00  0.00    +0.000 OA
ATOM     20  C   UNL     1      -6.278  14.230  22.206  0.00  0.00    +0.000 C 
ATOM     21  C   UNL     1      -7.761  14.360  22.694  0.00  0.00    +0.000 C 
ATOM     22  C   UNL     1      -5.493  15.126  23.212  0.00  0.00    +0.000 C 
ENDROOT
BRANCH  16  23
ATOM     23  O   UNL     1      -0.307  13.575  20.259  0.00  0.00    +0.000 OA
BRANCH  23  24
ATOM     24  C   UNL     1       0.938  14.005  19.958  0.00  0.00    +0.000 C 
ATOM     25  O   UNL     1       1.993  13.399  20.070  0.00  0.00    +0.000 OA
BRANCH  24  26
ATOM     26  C   UNL     1       0.887  15.329  19.297  0.00  0.00    +0.000 A 
ATOM     27  C   UNL     1       2.091  15.906  18.864  0.00  0.00    +0.000 A 
ATOM     28  C   UNL     1       2.063  17.041  18.056  0.00  0.00    +0.000 A 
ATOM     29  C   UNL     1       0.840  17.602  17.687  0.00  0.00    +0.000 A 
ATOM     30  C   UNL     1      -0.355  17.053  18.148  0.00  0.00    +0.000 A 
ATOM     31  C   UNL     1      -0.332  15.921  18.959  0.00  0.00    +0.000 A 
ENDBRANCH  24  26
ENDBRANCH  23  24
ENDBRANCH  16  23
TORSDOF 3
ENDMDL
MODEL 6
REMARK VINA RESULT:      -6.5      1.952      7.086
REMARK  Name = 
REMARK  6 active torsions:
REMARK  status: ('A' for Active; 'I' for Inactive)
REMARK    1  A    between atoms: C_13  and  C_14
REMARK    2  A    between atoms: C_16  and  O_17
REMARK    3  A    between atoms: O_17  and  C_18
REMARK    4  A    between atoms: C_18  and  C_20
REMARK    5  A    between atoms: C_29  and  C_30
REMARK    6  A    between atoms: C_29  and  C_31
REMARK                            x       y       z     vdW  Elec       q    Type
REMARK                         _______ _______ _______ _____ _____    ______ ____
ROOT
ATOM      1  C   UNL     1       6.379  14.303  17.719  0.00  0.00    +0.000 C 
ATOM      2  C   UNL     1       6.281  15.472  18.385  0.00  0.00    +0.000 C 
ATOM      3  C   UNL     1       4.960  16.246  18.427  0.00  0.00    +0.000 C 
ATOM      4  C   UNL     1       3.991  15.752  19.504  0.00  0.00    +0.000 C 
ATOM      5  C   UNL     1       2.430  15.907  19.258  0.00  0.00    +0.000 C 
ATOM      6  C   UNL     1       1.531  16.655  20.289  0.00  0.00    +0.000 C 
ATOM      7  C   UNL     1       1.968  16.479  21.710  0.00  0.00    +0.000 C 
ATOM      8  C   UNL     1       2.549  15.088  22.004  0.00  0.00    +0.000 C 
ATOM      9  O   UNL     1       3.915  15.370  22.440  0.00  0.00    +0.000 OA
ATOM     10  C   UNL     1       4.106  16.262  23.475  0.00  0.00    +0.000 C 
ATOM     11  O   UNL     1       3.276  16.501  24.328  0.00  0.00    +0.000 OA
ATOM     12  C   UNL     1       5.345  17.191  23.278  0.00  0.00    +0.000 C 
ATOM     13  C   UNL     1       6.553  16.504  22.695  0.00  0.00    +0.000 C 
ATOM     14  C   UNL     1       7.249  15.567  23.638  0.00  0.00    +0.000 C 
ATOM     15  C   UNL     1       6.888  16.705  21.405  0.00  0.00    +0.000 C 
ATOM     16  C   UNL     1       7.811  15.902  20.524  0.00  0.00    +0.000 C 
ATOM     17  C   UNL     1       7.535  16.088  18.998  0.00  0.00    +0.000 C 
ATOM     18  C   UNL     1       2.161  13.967  20.775  0.00  0.00    +0.000 C 
ATOM     19  O   UNL     1       2.108  12.757  21.027  0.00  0.00    +0.000 OA
ATOM     20  C   UNL     1       1.845  14.474  19.256  0.00  0.00    +0.000 C 
ATOM     21  C   UNL     1       0.329  14.501  18.865  0.00  0.00    +0.000 C 
ATOM     22  C   UNL     1       2.499  13.676  18.087  0.00  0.00    +0.000 C 
ENDROOT
BRANCH  16  23
ATOM     23  O   UNL     1       7.961  14.499  20.828  0.00  0.00    +0.000 OA
BRANCH  23  24
ATOM     24  C   UNL     1       9.188  13.966  21.021  0.00  0.00    +0.000 C 
ATOM     25  O   UNL     1       9.995  14.229  21.900  0.00  0.00    +0.000 OA
BRANCH  24  26
ATOM     26  C   UNL     1       9.425  12.848  20.080  0.00  0.00    +0.000 A 
ATOM     27  C   UNL     1       9.347  11.535  20.570  0.00  0.00    +0.000 A 
ATOM     28  C   UNL     1       9.353  10.463  19.680  0.00  0.00    +0.000 A 
ATOM     29  C   UNL     1       9.445  10.698  18.307  0.00  0.00    +0.000 A 
ATOM     30  C   UNL     1       9.563  12.000  17.822  0.00  0.00    +0.000 A 
ATOM     31  C   UNL     1       9.560  13.074  18.708  0.00  0.00    +0.000 A 
ENDBRANCH  24  26
ENDBRANCH  23  24
ENDBRANCH  16  23
TORSDOF 3
ENDMDL
MODEL 7
REMARK VINA RESULT:      -6.4      1.330      1.570
REMARK  Name = 
REMARK  6 active torsions:
REMARK  status: ('A' for Active; 'I' for Inactive)
REMARK    1  A    between atoms: C_13  and  C_14
REMARK    2  A    between atoms: C_16  and  O_17
REMARK    3  A    between atoms: O_17  and  C_18
REMARK    4  A    between atoms: C_18  and  C_20
REMARK    5  A    between atoms: C_29  and  C_30
REMARK    6  A    between atoms: C_29  and  C_31
REMARK                            x       y       z     vdW  Elec       q    Type
REMARK                         _______ _______ _______ _____ _____    ______ ____
ROOT
ATOM      1  C   UNL     1       6.764  12.625  22.847  0.00  0.00    +0.000 C 
ATOM      2  C   UNL     1       7.307  13.859  22.796  0.00  0.00    +0.000 C 
ATOM      3  C   UNL     1       8.811  14.050  22.572  0.00  0.00    +0.000 C 
ATOM      4  C   UNL     1       9.225  13.996  21.099  0.00  0.00    +0.000 C 
ATOM      5  C   UNL     1      10.680  13.478  20.733  0.00  0.00    +0.000 C 
ATOM      6  C   UNL     1      11.647  14.354  19.879  0.00  0.00    +0.000 C 
ATOM      7  C   UNL     1      10.952  15.183  18.842  0.00  0.00    +0.000 C 
ATOM      8  C   UNL     1       9.729  14.490  18.223  0.00  0.00    +0.000 C 
ATOM      9  O   UNL     1       8.622  15.385  18.554  0.00  0.00    +0.000 OA
ATOM     10  C   UNL     1       8.722  16.714  18.201  0.00  0.00    +0.000 C 
ATOM     11  O   UNL     1       9.410  17.126  17.291  0.00  0.00    +0.000 OA
ATOM     12  C   UNL     1       8.142  17.689  19.274  0.00  0.00    +0.000 C 
ATOM     13  C   UNL     1       6.868  17.216  19.923  0.00  0.00    +0.000 C 
ATOM     14  C   UNL     1       5.660  17.276  19.035  0.00  0.00    +0.000 C 
ATOM     15  C   UNL     1       6.889  16.726  21.178  0.00  0.00    +0.000 C 
ATOM     16  C   UNL     1       5.851  15.903  21.898  0.00  0.00    +0.000 C 
ATOM     17  C   UNL     1       6.430  15.073  23.089  0.00  0.00    +0.000 C 
ATOM     18  C   UNL     1       9.720  12.812  18.549  0.00  0.00    +0.000 C 
ATOM     19  O   UNL     1       9.135  12.032  17.788  0.00  0.00    +0.000 OA
ATOM     20  C   UNL     1      10.487  12.215  19.861  0.00  0.00    +0.000 C 
ATOM     21  C   UNL     1      11.866  11.532  19.570  0.00  0.00    +0.000 C 
ATOM     22  C   UNL     1       9.730  11.145  20.704  0.00  0.00    +0.000 C 
ENDROOT
BRANCH  16  23
ATOM     23  O   UNL     1       4.991  15.071  21.091  0.00  0.00    +0.000 OA
BRANCH  23  24
ATOM     24  C   UNL     1       3.701  14.875  21.443  0.00  0.00    +0.000 C 
ATOM     25  O   UNL     1       3.262  14.181  22.347  0.00  0.00    +0.000 OA
BRANCH  24  26
ATOM     26  C   UNL     1       2.807  15.760  20.659  0.00  0.00    +0.000 A 
ATOM     27  C   UNL     1       2.561  15.438  19.315  0.00  0.00    +0.000 A 
ATOM     28  C   UNL     1       1.568  16.118  18.613  0.00  0.00    +0.000 A 
ATOM     29  C   UNL     1       0.829  17.120  19.244  0.00  0.00    +0.000 A 
ATOM     30  C   UNL     1       1.100  17.466  20.567  0.00  0.00    +0.000 A 
ATOM     31  C   UNL     1       2.093  16.792  21.273  0.00  0.00    +0.000 A 
ENDBRANCH  24  26
ENDBRANCH  23  24
ENDBRANCH  16  23
TORSDOF 3
ENDMDL
MODEL 8
REMARK VINA RESULT:      -6.4      2.739      3.781
REMARK  Name = 
REMARK  6 active torsions:
REMARK  status: ('A' for Active; 'I' for Inactive)
REMARK    1  A    between atoms: C_13  and  C_14
REMARK    2  A    between atoms: C_16  and  O_17
REMARK    3  A    between atoms: O_17  and  C_18
REMARK    4  A    between atoms: C_18  and  C_20
REMARK    5  A    between atoms: C_29  and  C_30
REMARK    6  A    between atoms: C_29  and  C_31
REMARK                            x       y       z     vdW  Elec       q    Type
REMARK                         _______ _______ _______ _____ _____    ______ ____
ROOT
ATOM      1  C   UNL     1       8.682  12.062  22.669  0.00  0.00    +0.000 C 
ATOM      2  C   UNL     1       9.139  13.331  22.672  0.00  0.00    +0.000 C 
ATOM      3  C   UNL     1      10.225  13.780  21.689  0.00  0.00    +0.000 C 
ATOM      4  C   UNL     1       9.687  14.160  20.307  0.00  0.00    +0.000 C 
ATOM      5  C   UNL     1      10.623  13.960  19.041  0.00  0.00    +0.000 C 
ATOM      6  C   UNL     1      10.931  15.150  18.082  0.00  0.00    +0.000 C 
ATOM      7  C   UNL     1       9.792  16.110  17.926  0.00  0.00    +0.000 C 
ATOM      8  C   UNL     1       8.414  15.434  17.957  0.00  0.00    +0.000 C 
ATOM      9  O   UNL     1       7.752  16.053  19.104  0.00  0.00    +0.000 OA
ATOM     10  C   UNL     1       7.677  17.428  19.158  0.00  0.00    +0.000 C 
ATOM     11  O   UNL     1       7.711  18.150  18.183  0.00  0.00    +0.000 OA
ATOM     12  C   UNL     1       7.883  18.008  20.593  0.00  0.00    +0.000 C 
ATOM     13  C   UNL     1       7.220  17.213  21.688  0.00  0.00    +0.000 C 
ATOM     14  C   UNL     1       5.725  17.329  21.721  0.00  0.00    +0.000 C 
ATOM     15  C   UNL     1       7.960  16.428  22.496  0.00  0.00    +0.000 C 
ATOM     16  C   UNL     1       7.516  15.313  23.408  0.00  0.00    +0.000 C 
ATOM     17  C   UNL     1       8.653  14.296  23.749  0.00  0.00    +0.000 C 
ATOM     18  C   UNL     1       8.532  13.744  17.731  0.00  0.00    +0.000 C 
ATOM     19  O   UNL     1       7.580  13.109  17.260  0.00  0.00    +0.000 OA
ATOM     20  C   UNL     1       9.901  12.946  18.122  0.00  0.00    +0.000 C 
ATOM     21  C   UNL     1      10.813  12.557  16.909  0.00  0.00    +0.000 C 
ATOM     22  C   UNL     1       9.746  11.602  18.896  0.00  0.00    +0.000 C 
ENDROOT
BRANCH  16  23
ATOM     23  O   UNL     1       6.313  14.602  23.047  0.00  0.00    +0.000 OA
BRANCH  23  24
ATOM     24  C   UNL     1       5.299  14.478  23.932  0.00  0.00    +0.000 C 
ATOM     25  O   UNL     1       4.180  14.964  23.869  0.00  0.00    +0.000 OA
BRANCH  24  26
ATOM     26  C   UNL     1       5.650  13.508  24.995  0.00  0.00    +0.000 A 
ATOM     27  C   UNL     1       5.841  12.164  24.637  0.00  0.00    +0.000 A 
ATOM     28  C   UNL     1       6.375  11.271  25.563  0.00  0.00    +0.000 A 
ATOM     29  C   UNL     1       6.710  11.713  26.844  0.00  0.00    +0.000 A 
ATOM     30  C   UNL     1       6.483  13.038  27.213  0.00  0.00    +0.000 A 
ATOM     31  C   UNL     1       5.947  13.934  26.292  0.00  0.00    +0.000 A 
ENDBRANCH  24  26
ENDBRANCH  23  24
ENDBRANCH  16  23
TORSDOF 3
ENDMDL
MODEL 9
REMARK VINA RESULT:      -6.4      6.930      9.613
REMARK  Name = 
REMARK  6 active torsions:
REMARK  status: ('A' for Active; 'I' for Inactive)
REMARK    1  A    between atoms: C_13  and  C_14
REMARK    2  A    between atoms: C_16  and  O_17
REMARK    3  A    between atoms: O_17  and  C_18
REMARK    4  A    between atoms: C_18  and  C_20
REMARK    5  A    between atoms: C_29  and  C_30
REMARK    6  A    between atoms: C_29  and  C_31
REMARK                            x       y       z     vdW  Elec       q    Type
REMARK                         _______ _______ _______ _____ _____    ______ ____
ROOT
ATOM      1  C   UNL     1      -3.037  12.163  23.170  0.00  0.00    +0.000 C 
ATOM      2  C   UNL     1      -2.187  13.203  23.295  0.00  0.00    +0.000 C 
ATOM      3  C   UNL     1      -0.718  13.075  22.876  0.00  0.00    +0.000 C 
ATOM      4  C   UNL     1      -0.485  13.288  21.378  0.00  0.00    +0.000 C 
ATOM      5  C   UNL     1       0.730  12.542  20.681  0.00  0.00    +0.000 C 
ATOM      6  C   UNL     1       1.808  13.342  19.887  0.00  0.00    +0.000 C 
ATOM      7  C   UNL     1       1.264  14.542  19.175  0.00  0.00    +0.000 C 
ATOM      8  C   UNL     1      -0.157  14.339  18.629  0.00  0.00    +0.000 C 
ATOM      9  O   UNL     1      -0.940  15.365  19.316  0.00  0.00    +0.000 OA
ATOM     10  C   UNL     1      -0.518  16.676  19.242  0.00  0.00    +0.000 C 
ATOM     11  O   UNL     1       0.161  17.121  18.341  0.00  0.00    +0.000 OA
ATOM     12  C   UNL     1      -0.700  17.466  20.576  0.00  0.00    +0.000 C 
ATOM     13  C   UNL     1      -1.983  17.168  21.307  0.00  0.00    +0.000 C 
ATOM     14  C   UNL     1      -3.212  17.735  20.659  0.00  0.00    +0.000 C 
ATOM     15  C   UNL     1      -1.970  16.394  22.410  0.00  0.00    +0.000 C 
ATOM     16  C   UNL     1      -3.115  15.693  23.097  0.00  0.00    +0.000 C 
ATOM     17  C   UNL     1      -2.667  14.482  23.975  0.00  0.00    +0.000 C 
ATOM     18  C   UNL     1      -0.589  12.687  18.590  0.00  0.00    +0.000 C 
ATOM     19  O   UNL     1      -1.438  12.283  17.785  0.00  0.00    +0.000 OA
ATOM     20  C   UNL     1       0.114  11.618  19.603  0.00  0.00    +0.000 C 
ATOM     21  C   UNL     1       1.219  10.716  18.956  0.00  0.00    +0.000 C 
ATOM     22  C   UNL     1      -0.817  10.588  20.312  0.00  0.00    +0.000 C 
ENDROOT
BRANCH  16  23
ATOM     23  O   UNL     1      -4.245  15.319  22.282  0.00  0.00    +0.000 OA
BRANCH  23  24
ATOM     24  C   UNL     1      -5.432  15.015  22.854  0.00  0.00    +0.000 C 
ATOM     25  O   UNL     1      -5.995  15.589  23.774  0.00  0.00    +0.000 OA
BRANCH  24  26
ATOM     26  C   UNL     1      -6.105  13.925  22.111  0.00  0.00    +0.000 A 
ATOM     27  C   UNL     1      -5.557  13.514  20.886  0.00  0.00    +0.000 A 
ATOM     28  C   UNL     1      -6.033  12.360  20.267  0.00  0.00    +0.000 A 
ATOM     29  C   UNL     1      -7.056  11.622  20.864  0.00  0.00    +0.000 A 
ATOM     30  C   UNL     1      -7.627  12.050  22.061  0.00  0.00    +0.000 A 
ATOM     31  C   UNL     1      -7.158  13.205  22.681  0.00  0.00    +0.000 A 
ENDBRANCH  24  26
ENDBRANCH  23  24
ENDBRANCH  16  23
TORSDOF 3
ENDMDL
