MODEL 1
REMARK VINA RESULT:      -8.1      0.000      0.000
REMARK  Name = 
REMARK  6 active torsions:
REMARK  status: ('A' for Active; 'I' for Inactive)
REMARK    1  A    between atoms: C_2  and  C_3
REMARK    2  A    between atoms: C_2  and  C_13
REMARK    3  A    between atoms: C_4  and  O_5
REMARK    4  A    between atoms: C_4  and  C_6
REMARK    5  A    between atoms: C_13  and  C_16
REMARK    6  A    between atoms: C_16  and  C_19
REMARK                            x       y       z     vdW  Elec       q    Type
REMARK                         _______ _______ _______ _____ _____    ______ ____
ROOT
ATOM      1  O   UNL     1       3.256   1.641  18.070  0.00  0.00    +0.000 OA
ATOM      2  C   UNL     1       2.828   2.771  18.304  0.00  0.00    +0.000 C 
ENDROOT
BRANCH   2   3
ATOM      3  C   UNL     1       1.414   3.050  18.811  0.00  0.00    +0.000 C 
ATOM      4  F   UNL     1       0.684   3.677  17.836  0.00  0.00    +0.000 F 
ATOM      5  F   UNL     1       0.742   1.884  19.051  0.00  0.00    +0.000 F 
BRANCH   3   6
ATOM      6  C   UNL     1       1.428   3.906  20.064  0.00  0.00    +0.000 C 
ATOM      7  F   UNL     1       2.172   5.034  19.867  0.00  0.00    +0.000 F 
ATOM      8  F   UNL     1       0.159   4.369  20.305  0.00  0.00    +0.000 F 
BRANCH   6   9
ATOM      9  C   UNL     1       1.922   3.112  21.270  0.00  0.00    +0.000 C 
ATOM     10  F   UNL     1       2.880   2.206  20.963  0.00  0.00    +0.000 F 
ATOM     11  F   UNL     1       2.425   3.918  22.237  0.00  0.00    +0.000 F 
ATOM     12  F   UNL     1       0.911   2.414  21.848  0.00  0.00    +0.000 F 
ENDBRANCH   6   9
ENDBRANCH   3   6
ENDBRANCH   2   3
BRANCH   2  13
ATOM     13  C   UNL     1       3.706   3.952  18.042  0.00  0.00    +0.000 C 
ATOM     14  C   UNL     1       4.910   4.088  18.626  0.00  0.00    +0.000 C 
BRANCH  14  15
ATOM     15  C   UNL     1       5.801   5.249  18.372  0.00  0.00    +0.000 A 
ATOM     16  C   UNL     1       7.051   5.378  18.995  0.00  0.00    +0.000 A 
ATOM     17  C   UNL     1       7.880   6.476  18.734  0.00  0.00    +0.000 A 
ATOM     18  C   UNL     1       7.469   7.452  17.827  0.00  0.00    +0.000 A 
ATOM     19 CL   UNL     1       8.491   8.797  17.498  0.00  0.00    +0.000 Cl
ATOM     20  C   UNL     1       6.242   7.339  17.184  0.00  0.00    +0.000 A 
ATOM     21  C   UNL     1       5.417   6.241  17.453  0.00  0.00    +0.000 A 
ENDBRANCH  14  15
BRANCH  14  22
ATOM     22  O   UNL     1       5.447   3.145  19.480  0.00  0.00    +0.000 OA
ATOM     23  H   UNL     1       5.732   3.581  20.311  0.00  0.00    +0.000 HD
ENDBRANCH  14  22
ENDBRANCH   2  13
TORSDOF 6
ENDMDL
MODEL 2
REMARK VINA RESULT:      -8.0      0.218      1.050
REMARK  Name = 
REMARK  6 active torsions:
REMARK  status: ('A' for Active; 'I' for Inactive)
REMARK    1  A    between atoms: C_2  and  C_3
REMARK    2  A    between atoms: C_2  and  C_13
REMARK    3  A    between atoms: C_4  and  O_5
REMARK    4  A    between atoms: C_4  and  C_6
REMARK    5  A    between atoms: C_13  and  C_16
REMARK    6  A    between atoms: C_16  and  C_19
REMARK                            x       y       z     vdW  Elec       q    Type
REMARK                         _______ _______ _______ _____ _____    ______ ____
ROOT
ATOM      1  O   UNL     1       3.253   1.825  17.829  0.00  0.00    +0.000 OA
ATOM      2  C   UNL     1       2.829   2.940  18.133  0.00  0.00    +0.000 C 
ENDROOT
BRANCH   2   3
ATOM      3  C   UNL     1       1.422   3.188  18.676  0.00  0.00    +0.000 C 
ATOM      4  F   UNL     1       0.676   3.863  17.746  0.00  0.00    +0.000 F 
ATOM      5  F   UNL     1       0.756   2.010  18.865  0.00  0.00    +0.000 F 
BRANCH   3   6
ATOM      6  C   UNL     1       1.455   3.978  19.971  0.00  0.00    +0.000 C 
ATOM      7  F   UNL     1       2.156   5.138  19.809  0.00  0.00    +0.000 F 
ATOM      8  F   UNL     1       0.181   4.387  20.278  0.00  0.00    +0.000 F 
BRANCH   6   9
ATOM      9  C   UNL     1       2.014   3.140  21.115  0.00  0.00    +0.000 C 
ATOM     10  F   UNL     1       3.037   2.334  20.744  0.00  0.00    +0.000 F 
ATOM     11  F   UNL     1       2.459   3.909  22.139  0.00  0.00    +0.000 F 
ATOM     12  F   UNL     1       1.063   2.326  21.642  0.00  0.00    +0.000 F 
ENDBRANCH   6   9
ENDBRANCH   3   6
ENDBRANCH   2   3
BRANCH   2  13
ATOM     13  C   UNL     1       3.702   4.134  17.925  0.00  0.00    +0.000 C 
ATOM     14  C   UNL     1       4.960   4.189  18.401  0.00  0.00    +0.000 C 
BRANCH  14  15
ATOM     15  C   UNL     1       5.847   5.363  18.198  0.00  0.00    +0.000 A 
ATOM     16  C   UNL     1       5.488   6.431  17.364  0.00  0.00    +0.000 A 
ATOM     17  C   UNL     1       6.334   7.534  17.194  0.00  0.00    +0.000 A 
ATOM     18  C   UNL     1       7.549   7.583  17.877  0.00  0.00    +0.000 A 
ATOM     19 CL   UNL     1       8.586   8.941  17.675  0.00  0.00    +0.000 Cl
ATOM     20  C   UNL     1       7.921   6.545  18.721  0.00  0.00    +0.000 A 
ATOM     21  C   UNL     1       7.071   5.445  18.884  0.00  0.00    +0.000 A 
ENDBRANCH  14  15
BRANCH  14  22
ATOM     22  O   UNL     1       5.556   3.147  19.083  0.00  0.00    +0.000 OA
ATOM     23  H   UNL     1       4.915   2.764  19.719  0.00  0.00    +0.000 HD
ENDBRANCH  14  22
ENDBRANCH   2  13
TORSDOF 6
ENDMDL
MODEL 3
REMARK VINA RESULT:      -7.9      4.650      5.994
REMARK  Name = 
REMARK  6 active torsions:
REMARK  status: ('A' for Active; 'I' for Inactive)
REMARK    1  A    between atoms: C_2  and  C_3
REMARK    2  A    between atoms: C_2  and  C_13
REMARK    3  A    between atoms: C_4  and  O_5
REMARK    4  A    between atoms: C_4  and  C_6
REMARK    5  A    between atoms: C_13  and  C_16
REMARK    6  A    between atoms: C_16  and  C_19
REMARK                            x       y       z     vdW  Elec       q    Type
REMARK                         _______ _______ _______ _____ _____    ______ ____
ROOT
ATOM      1  O   UNL     1       4.020   3.446  17.642  0.00  0.00    +0.000 OA
ATOM      2  C   UNL     1       4.448   4.537  17.265  0.00  0.00    +0.000 C 
ENDROOT
BRANCH   2   3
ATOM      3  C   UNL     1       5.836   4.732  16.654  0.00  0.00    +0.000 C 
ATOM      4  F   UNL     1       6.199   3.613  15.953  0.00  0.00    +0.000 F 
ATOM      5  F   UNL     1       5.823   5.734  15.724  0.00  0.00    +0.000 F 
BRANCH   3   6
ATOM      6  C   UNL     1       6.878   5.026  17.717  0.00  0.00    +0.000 C 
ATOM      7  F   UNL     1       6.435   4.632  18.947  0.00  0.00    +0.000 F 
ATOM      8  F   UNL     1       7.985   4.250  17.486  0.00  0.00    +0.000 F 
BRANCH   6   9
ATOM      9  C   UNL     1       7.275   6.499  17.709  0.00  0.00    +0.000 C 
ATOM     10  F   UNL     1       7.982   6.862  16.613  0.00  0.00    +0.000 F 
ATOM     11  F   UNL     1       6.196   7.317  17.780  0.00  0.00    +0.000 F 
ATOM     12  F   UNL     1       8.051   6.807  18.780  0.00  0.00    +0.000 F 
ENDBRANCH   6   9
ENDBRANCH   3   6
ENDBRANCH   2   3
BRANCH   2  13
ATOM     13  C   UNL     1       3.603   5.755  17.446  0.00  0.00    +0.000 C 
ATOM     14  C   UNL     1       3.319   6.251  18.665  0.00  0.00    +0.000 C 
BRANCH  14  15
ATOM     15  C   UNL     1       2.488   7.465  18.866  0.00  0.00    +0.000 A 
ATOM     16  C   UNL     1       1.871   7.749  20.093  0.00  0.00    +0.000 A 
ATOM     17  C   UNL     1       1.100   8.906  20.264  0.00  0.00    +0.000 A 
ATOM     18  C   UNL     1       0.954   9.802  19.206  0.00  0.00    +0.000 A 
ATOM     19 CL   UNL     1       0.014  11.227  19.418  0.00  0.00    +0.000 Cl
ATOM     20  C   UNL     1       1.568   9.551  17.986  0.00  0.00    +0.000 A 
ATOM     21  C   UNL     1       2.335   8.392  17.820  0.00  0.00    +0.000 A 
ENDBRANCH  14  15
BRANCH  14  22
ATOM     22  O   UNL     1       3.807   5.704  19.836  0.00  0.00    +0.000 OA
ATOM     23  H   UNL     1       3.206   4.990  20.137  0.00  0.00    +0.000 HD
ENDBRANCH  14  22
ENDBRANCH   2  13
TORSDOF 6
ENDMDL
MODEL 4
REMARK VINA RESULT:      -7.9      0.716      1.632
REMARK  Name = 
REMARK  6 active torsions:
REMARK  status: ('A' for Active; 'I' for Inactive)
REMARK    1  A    between atoms: C_2  and  C_3
REMARK    2  A    between atoms: C_2  and  C_13
REMARK    3  A    between atoms: C_4  and  O_5
REMARK    4  A    between atoms: C_4  and  C_6
REMARK    5  A    between atoms: C_13  and  C_16
REMARK    6  A    between atoms: C_16  and  C_19
REMARK                            x       y       z     vdW  Elec       q    Type
REMARK                         _______ _______ _______ _____ _____    ______ ____
ROOT
ATOM      1  O   UNL     1       3.484   1.386  17.923  0.00  0.00    +0.000 OA
ATOM      2  C   UNL     1       3.021   2.509  18.122  0.00  0.00    +0.000 C 
ENDROOT
BRANCH   2   3
ATOM      3  C   UNL     1       1.587   2.761  18.587  0.00  0.00    +0.000 C 
ATOM      4  F   UNL     1       1.009   3.732  17.812  0.00  0.00    +0.000 F 
ATOM      5  F   UNL     1       0.809   1.654  18.392  0.00  0.00    +0.000 F 
BRANCH   3   6
ATOM      6  C   UNL     1       1.538   3.178  20.045  0.00  0.00    +0.000 C 
ATOM      7  F   UNL     1       0.385   2.741  20.631  0.00  0.00    +0.000 F 
ATOM      8  F   UNL     1       2.537   2.534  20.729  0.00  0.00    +0.000 F 
BRANCH   6   9
ATOM      9  C   UNL     1       1.706   4.687  20.193  0.00  0.00    +0.000 C 
ATOM     10  F   UNL     1       0.681   5.282  20.848  0.00  0.00    +0.000 F 
ATOM     11  F   UNL     1       2.845   5.009  20.854  0.00  0.00    +0.000 F 
ATOM     12  F   UNL     1       1.786   5.296  18.983  0.00  0.00    +0.000 F 
ENDBRANCH   6   9
ENDBRANCH   3   6
ENDBRANCH   2   3
BRANCH   2  13
ATOM     13  C   UNL     1       3.874   3.707  17.856  0.00  0.00    +0.000 C 
ATOM     14  C   UNL     1       4.962   3.986  18.597  0.00  0.00    +0.000 C 
BRANCH  14  15
ATOM     15  C   UNL     1       5.827   5.167  18.344  0.00  0.00    +0.000 A 
ATOM     16  C   UNL     1       7.063   5.335  18.987  0.00  0.00    +0.000 A 
ATOM     17  C   UNL     1       7.868   6.450  18.726  0.00  0.00    +0.000 A 
ATOM     18  C   UNL     1       7.447   7.405  17.800  0.00  0.00    +0.000 A 
ATOM     19 CL   UNL     1       8.440   8.771  17.473  0.00  0.00    +0.000 Cl
ATOM     20  C   UNL     1       6.235   7.253  17.139  0.00  0.00    +0.000 A 
ATOM     21  C   UNL     1       5.434   6.137  17.406  0.00  0.00    +0.000 A 
ENDBRANCH  14  15
BRANCH  14  22
ATOM     22  O   UNL     1       5.399   3.181  19.631  0.00  0.00    +0.000 OA
ATOM     23  H   UNL     1       6.313   2.880  19.446  0.00  0.00    +0.000 HD
ENDBRANCH  14  22
ENDBRANCH   2  13
TORSDOF 6
ENDMDL
MODEL 5
REMARK VINA RESULT:      -7.9      2.383      3.046
REMARK  Name = 
REMARK  6 active torsions:
REMARK  status: ('A' for Active; 'I' for Inactive)
REMARK    1  A    between atoms: C_2  and  C_3
REMARK    2  A    between atoms: C_2  and  C_13
REMARK    3  A    between atoms: C_4  and  O_5
REMARK    4  A    between atoms: C_4  and  C_6
REMARK    5  A    between atoms: C_13  and  C_16
REMARK    6  A    between atoms: C_16  and  C_19
REMARK                            x       y       z     vdW  Elec       q    Type
REMARK                         _______ _______ _______ _____ _____    ______ ____
ROOT
ATOM      1  O   UNL     1       2.915   1.686  18.972  0.00  0.00    +0.000 OA
ATOM      2  C   UNL     1       2.625   2.755  18.437  0.00  0.00    +0.000 C 
ENDROOT
BRANCH   2   3
ATOM      3  C   UNL     1       1.425   3.607  18.850  0.00  0.00    +0.000 C 
ATOM      4  F   UNL     1       0.942   4.291  17.765  0.00  0.00    +0.000 F 
ATOM      5  F   UNL     1       0.383   2.820  19.255  0.00  0.00    +0.000 F 
BRANCH   3   6
ATOM      6  C   UNL     1       1.788   4.589  19.948  0.00  0.00    +0.000 C 
ATOM      7  F   UNL     1       0.706   4.849  20.738  0.00  0.00    +0.000 F 
ATOM      8  F   UNL     1       2.697   4.001  20.792  0.00  0.00    +0.000 F 
BRANCH   6   9
ATOM      9  C   UNL     1       2.382   5.870  19.370  0.00  0.00    +0.000 C 
ATOM     10  F   UNL     1       3.731   5.929  19.461  0.00  0.00    +0.000 F 
ATOM     11  F   UNL     1       2.060   6.035  18.063  0.00  0.00    +0.000 F 
ATOM     12  F   UNL     1       1.911   6.967  20.016  0.00  0.00    +0.000 F 
ENDBRANCH   6   9
ENDBRANCH   3   6
ENDBRANCH   2   3
BRANCH   2  13
ATOM     13  C   UNL     1       3.447   3.244  17.289  0.00  0.00    +0.000 C 
ATOM     14  C   UNL     1       4.746   3.568  17.430  0.00  0.00    +0.000 C 
BRANCH  14  15
ATOM     15  C   UNL     1       5.583   4.047  16.301  0.00  0.00    +0.000 A 
ATOM     16  C   UNL     1       6.800   4.713  16.507  0.00  0.00    +0.000 A 
ATOM     17  C   UNL     1       7.579   5.147  15.427  0.00  0.00    +0.000 A 
ATOM     18  C   UNL     1       7.151   4.902  14.123  0.00  0.00    +0.000 A 
ATOM     19 CL   UNL     1       8.112   5.428  12.797  0.00  0.00    +0.000 Cl
ATOM     20  C   UNL     1       5.957   4.231  13.893  0.00  0.00    +0.000 A 
ATOM     21  C   UNL     1       5.181   3.802  14.976  0.00  0.00    +0.000 A 
ENDBRANCH  14  15
BRANCH  14  22
ATOM     22  O   UNL     1       5.430   3.446  18.623  0.00  0.00    +0.000 OA
ATOM     23  H   UNL     1       6.311   3.049  18.455  0.00  0.00    +0.000 HD
ENDBRANCH  14  22
ENDBRANCH   2  13
TORSDOF 6
ENDMDL
MODEL 6
REMARK VINA RESULT:      -7.9      2.217      2.677
REMARK  Name = 
REMARK  6 active torsions:
REMARK  status: ('A' for Active; 'I' for Inactive)
REMARK    1  A    between atoms: C_2  and  C_3
REMARK    2  A    between atoms: C_2  and  C_13
REMARK    3  A    between atoms: C_4  and  O_5
REMARK    4  A    between atoms: C_4  and  C_6
REMARK    5  A    between atoms: C_13  and  C_16
REMARK    6  A    between atoms: C_16  and  C_19
REMARK                            x       y       z     vdW  Elec       q    Type
REMARK                         _______ _______ _______ _____ _____    ______ ____
ROOT
ATOM      1  O   UNL     1       4.307   2.375  20.566  0.00  0.00    +0.000 OA
ATOM      2  C   UNL     1       3.538   2.666  19.650  0.00  0.00    +0.000 C 
ENDROOT
BRANCH   2   3
ATOM      3  C   UNL     1       2.016   2.623  19.782  0.00  0.00    +0.000 C 
ATOM      4  F   UNL     1       1.485   1.822  18.806  0.00  0.00    +0.000 F 
ATOM      5  F   UNL     1       1.643   2.031  20.957  0.00  0.00    +0.000 F 
BRANCH   3   6
ATOM      6  C   UNL     1       1.408   4.010  19.687  0.00  0.00    +0.000 C 
ATOM      7  F   UNL     1       1.479   4.479  18.407  0.00  0.00    +0.000 F 
ATOM      8  F   UNL     1       0.063   3.929  19.949  0.00  0.00    +0.000 F 
BRANCH   6   9
ATOM      9  C   UNL     1       2.064   4.970  20.674  0.00  0.00    +0.000 C 
ATOM     10  F   UNL     1       3.260   5.445  20.250  0.00  0.00    +0.000 F 
ATOM     11  F   UNL     1       1.278   6.042  20.940  0.00  0.00    +0.000 F 
ATOM     12  F   UNL     1       2.298   4.368  21.868  0.00  0.00    +0.000 F 
ENDBRANCH   6   9
ENDBRANCH   3   6
ENDBRANCH   2   3
BRANCH   2  13
ATOM     13  C   UNL     1       4.098   3.038  18.316  0.00  0.00    +0.000 C 
ATOM     14  C   UNL     1       5.203   3.797  18.194  0.00  0.00    +0.000 C 
BRANCH  14  15
ATOM     15  C   UNL     1       5.781   4.171  16.877  0.00  0.00    +0.000 A 
ATOM     16  C   UNL     1       7.089   4.658  16.751  0.00  0.00    +0.000 A 
ATOM     17  C   UNL     1       7.618   4.995  15.499  0.00  0.00    +0.000 A 
ATOM     18  C   UNL     1       6.841   4.829  14.353  0.00  0.00    +0.000 A 
ATOM     19 CL   UNL     1       7.493   5.235  12.814  0.00  0.00    +0.000 Cl
ATOM     20  C   UNL     1       5.547   4.334  14.450  0.00  0.00    +0.000 A 
ATOM     21  C   UNL     1       5.023   4.001  15.705  0.00  0.00    +0.000 A 
ENDBRANCH  14  15
BRANCH  14  22
ATOM     22  O   UNL     1       5.925   4.261  19.276  0.00  0.00    +0.000 OA
ATOM     23  H   UNL     1       6.507   3.546  19.610  0.00  0.00    +0.000 HD
ENDBRANCH  14  22
ENDBRANCH   2  13
TORSDOF 6
ENDMDL
MODEL 7
REMARK VINA RESULT:      -7.9      2.393      3.182
REMARK  Name = 
REMARK  6 active torsions:
REMARK  status: ('A' for Active; 'I' for Inactive)
REMARK    1  A    between atoms: C_2  and  C_3
REMARK    2  A    between atoms: C_2  and  C_13
REMARK    3  A    between atoms: C_4  and  O_5
REMARK    4  A    between atoms: C_4  and  C_6
REMARK    5  A    between atoms: C_13  and  C_16
REMARK    6  A    between atoms: C_16  and  C_19
REMARK                            x       y       z     vdW  Elec       q    Type
REMARK                         _______ _______ _______ _____ _____    ______ ____
ROOT
ATOM      1  O   UNL     1       3.107   1.839  19.189  0.00  0.00    +0.000 OA
ATOM      2  C   UNL     1       2.744   2.840  18.572  0.00  0.00    +0.000 C 
ENDROOT
BRANCH   2   3
ATOM      3  C   UNL     1       1.497   3.647  18.932  0.00  0.00    +0.000 C 
ATOM      4  F   UNL     1       1.057   4.340  17.836  0.00  0.00    +0.000 F 
ATOM      5  F   UNL     1       0.458   2.820  19.259  0.00  0.00    +0.000 F 
BRANCH   3   6
ATOM      6  C   UNL     1       1.766   4.614  20.070  0.00  0.00    +0.000 C 
ATOM      7  F   UNL     1       0.612   4.898  20.743  0.00  0.00    +0.000 F 
ATOM      8  F   UNL     1       2.564   3.999  21.002  0.00  0.00    +0.000 F 
BRANCH   6   9
ATOM      9  C   UNL     1       2.449   5.881  19.568  0.00  0.00    +0.000 C 
ATOM     10  F   UNL     1       2.032   7.005  20.198  0.00  0.00    +0.000 F 
ATOM     11  F   UNL     1       3.797   5.821  19.705  0.00  0.00    +0.000 F 
ATOM     12  F   UNL     1       2.213   6.079  18.246  0.00  0.00    +0.000 F 
ENDBRANCH   6   9
ENDBRANCH   3   6
ENDBRANCH   2   3
BRANCH   2  13
ATOM     13  C   UNL     1       3.523   3.283  17.377  0.00  0.00    +0.000 C 
ATOM     14  C   UNL     1       4.830   3.593  17.452  0.00  0.00    +0.000 C 
BRANCH  14  15
ATOM     15  C   UNL     1       5.624   4.026  16.274  0.00  0.00    +0.000 A 
ATOM     16  C   UNL     1       5.213   3.757  14.960  0.00  0.00    +0.000 A 
ATOM     17  C   UNL     1       5.971   4.183  13.863  0.00  0.00    +0.000 A 
ATOM     18  C   UNL     1       7.147   4.904  14.073  0.00  0.00    +0.000 A 
ATOM     19 CL   UNL     1       8.074   5.436  12.726  0.00  0.00    +0.000 Cl
ATOM     20  C   UNL     1       7.567   5.197  15.364  0.00  0.00    +0.000 A 
ATOM     21  C   UNL     1       6.806   4.765  16.457  0.00  0.00    +0.000 A 
ENDBRANCH  14  15
BRANCH  14  22
ATOM     22  O   UNL     1       5.564   3.496  18.618  0.00  0.00    +0.000 OA
ATOM     23  H   UNL     1       5.025   3.820  19.370  0.00  0.00    +0.000 HD
ENDBRANCH  14  22
ENDBRANCH   2  13
TORSDOF 6
ENDMDL
MODEL 8
REMARK VINA RESULT:      -7.8      2.178      2.328
REMARK  Name = 
REMARK  6 active torsions:
REMARK  status: ('A' for Active; 'I' for Inactive)
REMARK    1  A    between atoms: C_2  and  C_3
REMARK    2  A    between atoms: C_2  and  C_13
REMARK    3  A    between atoms: C_4  and  O_5
REMARK    4  A    between atoms: C_4  and  C_6
REMARK    5  A    between atoms: C_13  and  C_16
REMARK    6  A    between atoms: C_16  and  C_19
REMARK                            x       y       z     vdW  Elec       q    Type
REMARK                         _______ _______ _______ _____ _____    ______ ____
ROOT
ATOM      1  O   UNL     1       2.621   1.414  18.632  0.00  0.00    +0.000 OA
ATOM      2  C   UNL     1       2.478   2.590  18.297  0.00  0.00    +0.000 C 
ENDROOT
BRANCH   2   3
ATOM      3  C   UNL     1       1.432   3.520  18.910  0.00  0.00    +0.000 C 
ATOM      4  F   UNL     1       1.026   4.442  17.982  0.00  0.00    +0.000 F 
ATOM      5  F   UNL     1       0.296   2.833  19.235  0.00  0.00    +0.000 F 
BRANCH   3   6
ATOM      6  C   UNL     1       1.971   4.237  20.135  0.00  0.00    +0.000 C 
ATOM      7  F   UNL     1       3.075   4.972  19.814  0.00  0.00    +0.000 F 
ATOM      8  F   UNL     1       1.050   5.164  20.553  0.00  0.00    +0.000 F 
BRANCH   6   9
ATOM      9  C   UNL     1       2.260   3.255  21.266  0.00  0.00    +0.000 C 
ATOM     10  F   UNL     1       3.419   2.574  21.107  0.00  0.00    +0.000 F 
ATOM     11  F   UNL     1       2.319   3.872  22.472  0.00  0.00    +0.000 F 
ATOM     12  F   UNL     1       1.282   2.319  21.370  0.00  0.00    +0.000 F 
ENDBRANCH   6   9
ENDBRANCH   3   6
ENDBRANCH   2   3
BRANCH   2  13
ATOM     13  C   UNL     1       3.330   3.146  17.203  0.00  0.00    +0.000 C 
ATOM     14  C   UNL     1       4.634   3.422  17.385  0.00  0.00    +0.000 C 
BRANCH  14  15
ATOM     15  C   UNL     1       5.500   3.967  16.308  0.00  0.00    +0.000 A 
ATOM     16  C   UNL     1       6.662   4.701  16.587  0.00  0.00    +0.000 A 
ATOM     17  C   UNL     1       7.470   5.196  15.556  0.00  0.00    +0.000 A 
ATOM     18  C   UNL     1       7.128   4.944  14.228  0.00  0.00    +0.000 A 
ATOM     19 CL   UNL     1       8.125   5.545  12.962  0.00  0.00    +0.000 Cl
ATOM     20  C   UNL     1       5.991   4.206  13.926  0.00  0.00    +0.000 A 
ATOM     21  C   UNL     1       5.186   3.716  14.961  0.00  0.00    +0.000 A 
ENDBRANCH  14  15
BRANCH  14  22
ATOM     22  O   UNL     1       5.298   3.187  18.573  0.00  0.00    +0.000 OA
ATOM     23  H   UNL     1       5.479   2.227  18.661  0.00  0.00    +0.000 HD
ENDBRANCH  14  22
ENDBRANCH   2  13
TORSDOF 6
ENDMDL
MODEL 9
REMARK VINA RESULT:      -7.8      3.979      4.854
REMARK  Name = 
REMARK  6 active torsions:
REMARK  status: ('A' for Active; 'I' for Inactive)
REMARK    1  A    between atoms: C_2  and  C_3
REMARK    2  A    between atoms: C_2  and  C_13
REMARK    3  A    between atoms: C_4  and  O_5
REMARK    4  A    between atoms: C_4  and  C_6
REMARK    5  A    between atoms: C_13  and  C_16
REMARK    6  A    between atoms: C_16  and  C_19
REMARK                            x       y       z     vdW  Elec       q    Type
REMARK                         _______ _______ _______ _____ _____    ______ ____
ROOT
ATOM      1  O   UNL     1       4.496   5.160  17.789  0.00  0.00    +0.000 OA
ATOM      2  C   UNL     1       3.270   5.174  17.900  0.00  0.00    +0.000 C 
ENDROOT
BRANCH   2   3
ATOM      3  C   UNL     1       2.386   3.955  17.643  0.00  0.00    +0.000 C 
ATOM      4  F   UNL     1       1.085   4.349  17.477  0.00  0.00    +0.000 F 
ATOM      5  F   UNL     1       2.718   3.350  16.463  0.00  0.00    +0.000 F 
BRANCH   3   6
ATOM      6  C   UNL     1       2.471   2.953  18.779  0.00  0.00    +0.000 C 
ATOM      7  F   UNL     1       2.895   1.739  18.320  0.00  0.00    +0.000 F 
ATOM      8  F   UNL     1       3.452   3.350  19.654  0.00  0.00    +0.000 F 
BRANCH   6   9
ATOM      9  C   UNL     1       1.142   2.840  19.518  0.00  0.00    +0.000 C 
ATOM     10  F   UNL     1       0.625   4.037  19.883  0.00  0.00    +0.000 F 
ATOM     11  F   UNL     1       0.200   2.206  18.777  0.00  0.00    +0.000 F 
ATOM     12  F   UNL     1       1.271   2.119  20.661  0.00  0.00    +0.000 F 
ENDBRANCH   6   9
ENDBRANCH   3   6
ENDBRANCH   2   3
BRANCH   2  13
ATOM     13  C   UNL     1       2.585   6.452  18.259  0.00  0.00    +0.000 C 
ATOM     14  C   UNL     1       2.359   6.804  19.538  0.00  0.00    +0.000 C 
BRANCH  14  15
ATOM     15  C   UNL     1       1.688   8.074  19.917  0.00  0.00    +0.000 A 
ATOM     16  C   UNL     1       1.264   8.329  21.229  0.00  0.00    +0.000 A 
ATOM     17  C   UNL     1       0.642   9.537  21.567  0.00  0.00    +0.000 A 
ATOM     18  C   UNL     1       0.454  10.515  20.590  0.00  0.00    +0.000 A 
ATOM     19 CL   UNL     1      -0.301  12.003  21.006  0.00  0.00    +0.000 Cl
ATOM     20  C   UNL     1       0.881  10.293  19.286  0.00  0.00    +0.000 A 
ATOM     21  C   UNL     1       1.499   9.082  18.955  0.00  0.00    +0.000 A 
ENDBRANCH  14  15
BRANCH  14  22
ATOM     22  O   UNL     1       2.767   6.042  20.615  0.00  0.00    +0.000 OA
ATOM     23  H   UNL     1       3.629   6.375  20.943  0.00  0.00    +0.000 HD
ENDBRANCH  14  22
ENDBRANCH   2  13
TORSDOF 6
ENDMDL
