MODEL 1
REMARK VINA RESULT:      -7.1      0.000      0.000
REMARK  Name = 
REMARK  10 active torsions:
REMARK  status: ('A' for Active; 'I' for Inactive)
REMARK    1  A    between atoms: C_1  and  C_2
REMARK    2  A    between atoms: C_2  and  N_3
REMARK    3  A    between atoms: C_4  and  C_6
REMARK    4  A    between atoms: N_13  and  C_14
REMARK    5  A    between atoms: C_16  and  N_17
REMARK    6  A    between atoms: C_18  and  O_20
REMARK    7  A    between atoms: O_20  and  C_21
REMARK    8  A    between atoms: C_21  and  C_22
REMARK    9  A    between atoms: C_25  and  C_26
REMARK   10  A    between atoms: C_28  and  C_29
REMARK                            x       y       z     vdW  Elec       q    Type
REMARK                         _______ _______ _______ _____ _____    ______ ____
ROOT
ATOM      1  C   UNL     1       3.451   3.799  19.127  0.00  0.00    +0.000 A 
ATOM      2  C   UNL     1       4.067   4.362  18.024  0.00  0.00    +0.000 A 
ATOM      3  N   UNL     1       3.742   5.685  17.958  0.00  0.00    +0.000 N 
ATOM      4  N   UNL     1       4.139   6.504  16.977  0.00  0.00    +0.000 NA
ATOM      5  C   UNL     1       3.741   7.722  17.129  0.00  0.00    +0.000 A 
ATOM      6  N   UNL     1       3.031   8.224  18.184  0.00  0.00    +0.000 NA
ATOM      7  C   UNL     1       2.617   7.438  19.139  0.00  0.00    +0.000 A 
ATOM      8  N   UNL     1       1.948   7.988  20.221  0.00  0.00    +0.000 N 
ATOM      9  C   UNL     1       2.958   6.034  19.022  0.00  0.00    +0.000 A 
ATOM     10  C   UNL     1       2.654   4.862  19.715  0.00  0.00    +0.000 A 
ATOM     11  C   UNL     1       1.709   4.664  20.851  0.00  0.00    +0.000 C 
ATOM     12  H   UNL     1       1.809   7.389  21.020  0.00  0.00    +0.000 HD
ENDROOT
BRANCH   8  13
ATOM     13  C   UNL     1       0.966   9.013  20.149  0.00  0.00    +0.000 A 
ATOM     14  C   UNL     1       0.473   9.455  18.910  0.00  0.00    +0.000 A 
ATOM     15  C   UNL     1      -0.553  10.399  18.801  0.00  0.00    +0.000 A 
ATOM     16  C   UNL     1      -1.061  10.972  19.965  0.00  0.00    +0.000 A 
ATOM     17  C   UNL     1      -0.548  10.597  21.210  0.00  0.00    +0.000 A 
ATOM     18  C   UNL     1       0.455   9.615  21.317  0.00  0.00    +0.000 A 
ATOM     19  C   UNL     1       0.985   9.267  22.681  0.00  0.00    +0.000 C 
BRANCH  15  20
ATOM     20  N   UNL     1      -1.109  10.786  17.567  0.00  0.00    +0.000 N 
ATOM     21  C   UNL     1      -2.308  10.383  17.041  0.00  0.00    +0.000 C 
ATOM     22  O   UNL     1      -3.123   9.622  17.538  0.00  0.00    +0.000 OA
ATOM     23  H   UNL     1      -0.572  11.384  16.962  0.00  0.00    +0.000 HD
BRANCH  21  24
ATOM     24  O   UNL     1      -2.447  10.924  15.803  0.00  0.00    +0.000 OA
BRANCH  24  25
ATOM     25  C   UNL     1      -3.592  10.442  15.081  0.00  0.00    +0.000 C 
ATOM     26  C   UNL     1      -3.103   9.880  13.759  0.00  0.00    +0.000 C 
ENDBRANCH  24  25
ENDBRANCH  21  24
ENDBRANCH  15  20
ENDBRANCH   8  13
BRANCH   1  28
ATOM     27  N   UNL     1       4.835   2.029  19.995  0.00  0.00    +0.000 N 
ATOM     28  C   UNL     1       3.575   2.403  19.575  0.00  0.00    +0.000 C 
ATOM     29  O   UNL     1       2.616   1.638  19.602  0.00  0.00    +0.000 OA
ATOM     30  H   UNL     1       5.561   2.728  20.050  0.00  0.00    +0.000 HD
BRANCH  27  32
ATOM     31  C   UNL     1       5.743   0.784  21.912  0.00  0.00    +0.000 C 
ATOM     32  C   UNL     1       5.123   0.713  20.527  0.00  0.00    +0.000 C 
ENDBRANCH  27  32
ENDBRANCH   1  28
TORSDOF 6
ENDMDL
MODEL 2
REMARK VINA RESULT:      -7.1      4.459      6.157
REMARK  Name = 
REMARK  10 active torsions:
REMARK  status: ('A' for Active; 'I' for Inactive)
REMARK    1  A    between atoms: C_1  and  C_2
REMARK    2  A    between atoms: C_2  and  N_3
REMARK    3  A    between atoms: C_4  and  C_6
REMARK    4  A    between atoms: N_13  and  C_14
REMARK    5  A    between atoms: C_16  and  N_17
REMARK    6  A    between atoms: C_18  and  O_20
REMARK    7  A    between atoms: O_20  and  C_21
REMARK    8  A    between atoms: C_21  and  C_22
REMARK    9  A    between atoms: C_25  and  C_26
REMARK   10  A    between atoms: C_28  and  C_29
REMARK                            x       y       z     vdW  Elec       q    Type
REMARK                         _______ _______ _______ _____ _____    ______ ____
ROOT
ATOM      1  C   UNL     1       2.276   6.615  19.415  0.00  0.00    +0.000 A 
ATOM      2  C   UNL     1       1.798   6.770  20.703  0.00  0.00    +0.000 A 
ATOM      3  N   UNL     1       1.395   8.062  20.876  0.00  0.00    +0.000 N 
ATOM      4  N   UNL     1       0.927   8.550  22.031  0.00  0.00    +0.000 NA
ATOM      5  C   UNL     1       0.575   9.790  21.962  0.00  0.00    +0.000 A 
ATOM      6  N   UNL     1       0.592  10.583  20.849  0.00  0.00    +0.000 NA
ATOM      7  C   UNL     1       1.065  10.132  19.720  0.00  0.00    +0.000 A 
ATOM      8  N   UNL     1       1.016  10.945  18.598  0.00  0.00    +0.000 N 
ATOM      9  C   UNL     1       1.548   8.766  19.715  0.00  0.00    +0.000 A 
ATOM     10  C   UNL     1       2.205   7.933  18.808  0.00  0.00    +0.000 A 
ATOM     11  C   UNL     1       2.751   8.261  17.461  0.00  0.00    +0.000 C 
ATOM     12  H   UNL     1       1.213  10.505  17.712  0.00  0.00    +0.000 HD
ENDROOT
BRANCH   8  13
ATOM     13  C   UNL     1       1.300  12.337  18.575  0.00  0.00    +0.000 A 
ATOM     14  C   UNL     1       2.609  12.804  18.376  0.00  0.00    +0.000 A 
ATOM     15  C   UNL     1       2.914  14.164  18.262  0.00  0.00    +0.000 A 
ATOM     16  C   UNL     1       1.890  15.096  18.418  0.00  0.00    +0.000 A 
ATOM     17  C   UNL     1       0.586  14.662  18.678  0.00  0.00    +0.000 A 
ATOM     18  C   UNL     1       0.276  13.291  18.749  0.00  0.00    +0.000 A 
ATOM     19  C   UNL     1      -1.139  12.883  19.054  0.00  0.00    +0.000 C 
BRANCH  15  20
ATOM     20  N   UNL     1       4.210  14.637  17.981  0.00  0.00    +0.000 N 
ATOM     21  C   UNL     1       5.137  15.087  18.883  0.00  0.00    +0.000 C 
ATOM     22  O   UNL     1       5.024  15.160  20.097  0.00  0.00    +0.000 OA
ATOM     23  H   UNL     1       4.499  14.709  17.020  0.00  0.00    +0.000 HD
BRANCH  21  24
ATOM     24  O   UNL     1       6.232  15.521  18.206  0.00  0.00    +0.000 OA
BRANCH  24  25
ATOM     25  C   UNL     1       7.031  14.465  17.651  0.00  0.00    +0.000 C 
ATOM     26  C   UNL     1       8.154  14.171  18.628  0.00  0.00    +0.000 C 
ENDBRANCH  24  25
ENDBRANCH  21  24
ENDBRANCH  15  20
ENDBRANCH   8  13
BRANCH   1  28
ATOM     27  N   UNL     1       1.797   4.506  18.352  0.00  0.00    +0.000 N 
ATOM     28  C   UNL     1       2.772   5.366  18.816  0.00  0.00    +0.000 C 
ATOM     29  O   UNL     1       3.971   5.123  18.709  0.00  0.00    +0.000 OA
ATOM     30  H   UNL     1       0.833   4.805  18.371  0.00  0.00    +0.000 HD
BRANCH  27  32
ATOM     31  C   UNL     1       1.930   2.063  18.591  0.00  0.00    +0.000 C 
ATOM     32  C   UNL     1       2.107   3.263  17.677  0.00  0.00    +0.000 C 
ENDBRANCH  27  32
ENDBRANCH   1  28
TORSDOF 6
ENDMDL
MODEL 3
REMARK VINA RESULT:      -7.0      3.420      8.668
REMARK  Name = 
REMARK  10 active torsions:
REMARK  status: ('A' for Active; 'I' for Inactive)
REMARK    1  A    between atoms: C_1  and  C_2
REMARK    2  A    between atoms: C_2  and  N_3
REMARK    3  A    between atoms: C_4  and  C_6
REMARK    4  A    between atoms: N_13  and  C_14
REMARK    5  A    between atoms: C_16  and  N_17
REMARK    6  A    between atoms: C_18  and  O_20
REMARK    7  A    between atoms: O_20  and  C_21
REMARK    8  A    between atoms: C_21  and  C_22
REMARK    9  A    between atoms: C_25  and  C_26
REMARK   10  A    between atoms: C_28  and  C_29
REMARK                            x       y       z     vdW  Elec       q    Type
REMARK                         _______ _______ _______ _____ _____    ______ ____
ROOT
ATOM      1  C   UNL     1      -0.132  10.907  21.277  0.00  0.00    +0.000 A 
ATOM      2  C   UNL     1       0.378  11.529  20.152  0.00  0.00    +0.000 A 
ATOM      3  N   UNL     1       1.055  10.611  19.403  0.00  0.00    +0.000 N 
ATOM      4  N   UNL     1       1.709  10.905  18.274  0.00  0.00    +0.000 NA
ATOM      5  C   UNL     1       2.254   9.878  17.711  0.00  0.00    +0.000 A 
ATOM      6  N   UNL     1       2.172   8.579  18.128  0.00  0.00    +0.000 NA
ATOM      7  C   UNL     1       1.558   8.276  19.238  0.00  0.00    +0.000 A 
ATOM      8  N   UNL     1       1.446   6.943  19.603  0.00  0.00    +0.000 N 
ATOM      9  C   UNL     1       0.969   9.374  19.978  0.00  0.00    +0.000 A 
ATOM     10  C   UNL     1       0.336   9.533  21.212  0.00  0.00    +0.000 A 
ATOM     11  C   UNL     1       0.138   8.533  22.299  0.00  0.00    +0.000 C 
ATOM     12  H   UNL     1       0.811   6.732  20.357  0.00  0.00    +0.000 HD
ENDROOT
BRANCH   8  13
ATOM     13  C   UNL     1       2.472   5.967  19.483  0.00  0.00    +0.000 A 
ATOM     14  C   UNL     1       3.700   6.280  18.878  0.00  0.00    +0.000 A 
ATOM     15  C   UNL     1       4.763   5.374  18.818  0.00  0.00    +0.000 A 
ATOM     16  C   UNL     1       4.574   4.087  19.318  0.00  0.00    +0.000 A 
ATOM     17  C   UNL     1       3.342   3.727  19.870  0.00  0.00    +0.000 A 
ATOM     18  C   UNL     1       2.289   4.656  19.968  0.00  0.00    +0.000 A 
ATOM     19  C   UNL     1       0.977   4.206  20.550  0.00  0.00    +0.000 C 
BRANCH  15  20
ATOM     20  N   UNL     1       6.024   5.707  18.289  0.00  0.00    +0.000 N 
ATOM     21  C   UNL     1       7.217   5.745  18.963  0.00  0.00    +0.000 C 
ATOM     22  O   UNL     1       7.417   5.495  20.141  0.00  0.00    +0.000 OA
ATOM     23  H   UNL     1       6.083   5.999  17.329  0.00  0.00    +0.000 HD
BRANCH  21  24
ATOM     24  O   UNL     1       8.185   6.181  18.116  0.00  0.00    +0.000 OA
BRANCH  24  25
ATOM     25  C   UNL     1       7.779   7.279  17.283  0.00  0.00    +0.000 C 
ATOM     26  C   UNL     1       8.169   8.564  17.987  0.00  0.00    +0.000 C 
ENDBRANCH  24  25
ENDBRANCH  21  24
ENDBRANCH  15  20
ENDBRANCH   8  13
BRANCH   1  28
ATOM     27  N   UNL     1      -1.739  12.591  21.898  0.00  0.00    +0.000 N 
ATOM     28  C   UNL     1      -0.955  11.537  22.321  0.00  0.00    +0.000 C 
ATOM     29  O   UNL     1      -0.966  11.130  23.479  0.00  0.00    +0.000 OA
ATOM     30  H   UNL     1      -1.769  12.815  20.914  0.00  0.00    +0.000 HD
BRANCH  27  32
ATOM     31  C   UNL     1      -4.097  12.870  22.535  0.00  0.00    +0.000 C 
ATOM     32  C   UNL     1      -2.657  13.285  22.777  0.00  0.00    +0.000 C 
ENDBRANCH  27  32
ENDBRANCH   1  28
TORSDOF 6
ENDMDL
MODEL 4
REMARK VINA RESULT:      -7.0      3.546      8.293
REMARK  Name = 
REMARK  10 active torsions:
REMARK  status: ('A' for Active; 'I' for Inactive)
REMARK    1  A    between atoms: C_1  and  C_2
REMARK    2  A    between atoms: C_2  and  N_3
REMARK    3  A    between atoms: C_4  and  C_6
REMARK    4  A    between atoms: N_13  and  C_14
REMARK    5  A    between atoms: C_16  and  N_17
REMARK    6  A    between atoms: C_18  and  O_20
REMARK    7  A    between atoms: O_20  and  C_21
REMARK    8  A    between atoms: C_21  and  C_22
REMARK    9  A    between atoms: C_25  and  C_26
REMARK   10  A    between atoms: C_28  and  C_29
REMARK                            x       y       z     vdW  Elec       q    Type
REMARK                         _______ _______ _______ _____ _____    ______ ____
ROOT
ATOM      1  C   UNL     1       0.278  10.410  21.196  0.00  0.00    +0.000 A 
ATOM      2  C   UNL     1       0.753  11.139  20.120  0.00  0.00    +0.000 A 
ATOM      3  N   UNL     1       1.395  10.297  19.260  0.00  0.00    +0.000 N 
ATOM      4  N   UNL     1       2.011  10.699  18.142  0.00  0.00    +0.000 NA
ATOM      5  C   UNL     1       2.526   9.732  17.461  0.00  0.00    +0.000 A 
ATOM      6  N   UNL     1       2.450   8.398  17.749  0.00  0.00    +0.000 NA
ATOM      7  C   UNL     1       1.873   7.988  18.845  0.00  0.00    +0.000 A 
ATOM      8  N   UNL     1       1.763   6.626  19.079  0.00  0.00    +0.000 N 
ATOM      9  C   UNL     1       1.320   9.010  19.711  0.00  0.00    +0.000 A 
ATOM     10  C   UNL     1       0.733   9.048  20.977  0.00  0.00    +0.000 A 
ATOM     11  C   UNL     1       0.565   7.945  21.966  0.00  0.00    +0.000 C 
ATOM     12  H   UNL     1       1.154   6.344  19.831  0.00  0.00    +0.000 HD
ENDROOT
BRANCH   8  13
ATOM     13  C   UNL     1       2.776   5.662  18.825  0.00  0.00    +0.000 A 
ATOM     14  C   UNL     1       3.414   5.597  17.576  0.00  0.00    +0.000 A 
ATOM     15  C   UNL     1       4.472   4.721  17.316  0.00  0.00    +0.000 A 
ATOM     16  C   UNL     1       4.866   3.831  18.314  0.00  0.00    +0.000 A 
ATOM     17  C   UNL     1       4.208   3.831  19.547  0.00  0.00    +0.000 A 
ATOM     18  C   UNL     1       3.172   4.744  19.819  0.00  0.00    +0.000 A 
ATOM     19  C   UNL     1       2.485   4.683  21.156  0.00  0.00    +0.000 C 
BRANCH  15  20
ATOM     20  N   UNL     1       5.172   4.706  16.095  0.00  0.00    +0.000 N 
ATOM     21  C   UNL     1       6.239   5.492  15.747  0.00  0.00    +0.000 C 
ATOM     22  O   UNL     1       6.790   6.346  16.424  0.00  0.00    +0.000 OA
ATOM     23  H   UNL     1       4.849   4.100  15.360  0.00  0.00    +0.000 HD
BRANCH  21  24
ATOM     24  O   UNL     1       6.580   5.224  14.460  0.00  0.00    +0.000 OA
BRANCH  24  25
ATOM     25  C   UNL     1       6.210   3.906  14.022  0.00  0.00    +0.000 C 
ATOM     26  C   UNL     1       6.513   3.810  12.538  0.00  0.00    +0.000 C 
ENDBRANCH  24  25
ENDBRANCH  21  24
ENDBRANCH  15  20
ENDBRANCH   8  13
BRANCH   1  28
ATOM     27  N   UNL     1      -1.441  11.894  22.000  0.00  0.00    +0.000 N 
ATOM     28  C   UNL     1      -0.501  10.937  22.327  0.00  0.00    +0.000 C 
ATOM     29  O   UNL     1      -0.347  10.528  23.474  0.00  0.00    +0.000 OA
ATOM     30  H   UNL     1      -1.597  12.115  21.028  0.00  0.00    +0.000 HD
BRANCH  27  32
ATOM     31  C   UNL     1      -3.757  12.589  22.447  0.00  0.00    +0.000 C 
ATOM     32  C   UNL     1      -2.339  12.474  22.978  0.00  0.00    +0.000 C 
ENDBRANCH  27  32
ENDBRANCH   1  28
TORSDOF 6
ENDMDL
MODEL 5
REMARK VINA RESULT:      -7.0      3.528      8.578
REMARK  Name = 
REMARK  10 active torsions:
REMARK  status: ('A' for Active; 'I' for Inactive)
REMARK    1  A    between atoms: C_1  and  C_2
REMARK    2  A    between atoms: C_2  and  N_3
REMARK    3  A    between atoms: C_4  and  C_6
REMARK    4  A    between atoms: N_13  and  C_14
REMARK    5  A    between atoms: C_16  and  N_17
REMARK    6  A    between atoms: C_18  and  O_20
REMARK    7  A    between atoms: O_20  and  C_21
REMARK    8  A    between atoms: C_21  and  C_22
REMARK    9  A    between atoms: C_25  and  C_26
REMARK   10  A    between atoms: C_28  and  C_29
REMARK                            x       y       z     vdW  Elec       q    Type
REMARK                         _______ _______ _______ _____ _____    ______ ____
ROOT
ATOM      1  C   UNL     1      -0.161  11.079  21.000  0.00  0.00    +0.000 A 
ATOM      2  C   UNL     1       0.477  11.878  20.069  0.00  0.00    +0.000 A 
ATOM      3  N   UNL     1       1.247  11.094  19.261  0.00  0.00    +0.000 N 
ATOM      4  N   UNL     1       2.031  11.569  18.286  0.00  0.00    +0.000 NA
ATOM      5  C   UNL     1       2.649  10.648  17.626  0.00  0.00    +0.000 A 
ATOM      6  N   UNL     1       2.529   9.298  17.801  0.00  0.00    +0.000 NA
ATOM      7  C   UNL     1       1.786   8.816  18.759  0.00  0.00    +0.000 A 
ATOM      8  N   UNL     1       1.643   7.442  18.873  0.00  0.00    +0.000 N 
ATOM      9  C   UNL     1       1.103   9.778  19.600  0.00  0.00    +0.000 A 
ATOM     10  C   UNL     1       0.324   9.731  20.757  0.00  0.00    +0.000 A 
ATOM     11  C   UNL     1       0.004   8.561  21.624  0.00  0.00    +0.000 C 
ATOM     12  H   UNL     1       0.923   7.113  19.497  0.00  0.00    +0.000 HD
ENDROOT
BRANCH   8  13
ATOM     13  C   UNL     1       2.684   6.488  18.712  0.00  0.00    +0.000 A 
ATOM     14  C   UNL     1       3.530   6.525  17.592  0.00  0.00    +0.000 A 
ATOM     15  C   UNL     1       4.617   5.659  17.440  0.00  0.00    +0.000 A 
ATOM     16  C   UNL     1       4.830   4.676  18.406  0.00  0.00    +0.000 A 
ATOM     17  C   UNL     1       3.967   4.576  19.501  0.00  0.00    +0.000 A 
ATOM     18  C   UNL     1       2.900   5.478  19.671  0.00  0.00    +0.000 A 
ATOM     19  C   UNL     1       1.990   5.308  20.857  0.00  0.00    +0.000 C 
BRANCH  15  20
ATOM     20  N   UNL     1       5.519   5.743  16.363  0.00  0.00    +0.000 N 
ATOM     21  C   UNL     1       6.874   5.544  16.405  0.00  0.00    +0.000 C 
ATOM     22  O   UNL     1       7.557   5.251  17.375  0.00  0.00    +0.000 OA
ATOM     23  H   UNL     1       5.171   6.024  15.463  0.00  0.00    +0.000 HD
BRANCH  21  24
ATOM     24  O   UNL     1       7.392   5.788  15.173  0.00  0.00    +0.000 OA
BRANCH  24  25
ATOM     25  C   UNL     1       7.026   4.813  14.184  0.00  0.00    +0.000 C 
ATOM     26  C   UNL     1       7.703   5.199  12.882  0.00  0.00    +0.000 C 
ENDBRANCH  24  25
ENDBRANCH  21  24
ENDBRANCH  15  20
ENDBRANCH   8  13
BRANCH   1  28
ATOM     27  N   UNL     1      -2.242  12.159  21.554  0.00  0.00    +0.000 N 
ATOM     28  C   UNL     1      -1.109  11.531  22.030  0.00  0.00    +0.000 C 
ATOM     29  O   UNL     1      -0.919  11.331  23.227  0.00  0.00    +0.000 OA
ATOM     30  H   UNL     1      -2.395  12.201  20.556  0.00  0.00    +0.000 HD
BRANCH  27  32
ATOM     31  C   UNL     1      -4.612  12.804  21.665  0.00  0.00    +0.000 C 
ATOM     32  C   UNL     1      -3.310  12.610  22.421  0.00  0.00    +0.000 C 
ENDBRANCH  27  32
ENDBRANCH   1  28
TORSDOF 6
ENDMDL
MODEL 6
REMARK VINA RESULT:      -7.0      4.152      5.796
REMARK  Name = 
REMARK  10 active torsions:
REMARK  status: ('A' for Active; 'I' for Inactive)
REMARK    1  A    between atoms: C_1  and  C_2
REMARK    2  A    between atoms: C_2  and  N_3
REMARK    3  A    between atoms: C_4  and  C_6
REMARK    4  A    between atoms: N_13  and  C_14
REMARK    5  A    between atoms: C_16  and  N_17
REMARK    6  A    between atoms: C_18  and  O_20
REMARK    7  A    between atoms: O_20  and  C_21
REMARK    8  A    between atoms: C_21  and  C_22
REMARK    9  A    between atoms: C_25  and  C_26
REMARK   10  A    between atoms: C_28  and  C_29
REMARK                            x       y       z     vdW  Elec       q    Type
REMARK                         _______ _______ _______ _____ _____    ______ ____
ROOT
ATOM      1  C   UNL     1       2.374   6.519  19.494  0.00  0.00    +0.000 A 
ATOM      2  C   UNL     1       1.803   6.566  20.753  0.00  0.00    +0.000 A 
ATOM      3  N   UNL     1       1.253   7.800  20.947  0.00  0.00    +0.000 N 
ATOM      4  N   UNL     1       0.665   8.184  22.085  0.00  0.00    +0.000 NA
ATOM      5  C   UNL     1       0.187   9.383  22.039  0.00  0.00    +0.000 A 
ATOM      6  N   UNL     1       0.187  10.222  20.960  0.00  0.00    +0.000 NA
ATOM      7  C   UNL     1       0.775   9.873  19.849  0.00  0.00    +0.000 A 
ATOM      8  N   UNL     1       0.708  10.724  18.757  0.00  0.00    +0.000 N 
ATOM      9  C   UNL     1       1.401   8.566  19.826  0.00  0.00    +0.000 A 
ATOM     10  C   UNL     1       2.199   7.848  18.934  0.00  0.00    +0.000 A 
ATOM     11  C   UNL     1       2.789   8.290  17.639  0.00  0.00    +0.000 C 
ATOM     12  H   UNL     1       1.006  10.347  17.871  0.00  0.00    +0.000 HD
ENDROOT
BRANCH   8  13
ATOM     13  C   UNL     1       0.842  12.138  18.805  0.00  0.00    +0.000 A 
ATOM     14  C   UNL     1       2.106  12.742  18.898  0.00  0.00    +0.000 A 
ATOM     15  C   UNL     1       2.284  14.128  18.861  0.00  0.00    +0.000 A 
ATOM     16  C   UNL     1       1.158  14.946  18.798  0.00  0.00    +0.000 A 
ATOM     17  C   UNL     1      -0.118  14.375  18.766  0.00  0.00    +0.000 A 
ATOM     18  C   UNL     1      -0.290  12.978  18.760  0.00  0.00    +0.000 A 
ATOM     19  C   UNL     1      -1.687  12.420  18.748  0.00  0.00    +0.000 C 
BRANCH  15  20
ATOM     20  N   UNL     1       3.552  14.738  18.870  0.00  0.00    +0.000 N 
ATOM     21  C   UNL     1       4.091  15.533  17.892  0.00  0.00    +0.000 C 
ATOM     22  O   UNL     1       3.579  15.869  16.836  0.00  0.00    +0.000 OA
ATOM     23  H   UNL     1       4.173  14.552  19.639  0.00  0.00    +0.000 HD
BRANCH  21  24
ATOM     24  O   UNL     1       5.360  15.864  18.247  0.00  0.00    +0.000 OA
BRANCH  24  25
ATOM     25  C   UNL     1       6.332  14.849  17.947  0.00  0.00    +0.000 C 
ATOM     26  C   UNL     1       7.362  14.850  19.060  0.00  0.00    +0.000 C 
ENDBRANCH  24  25
ENDBRANCH  21  24
ENDBRANCH  15  20
ENDBRANCH   8  13
BRANCH   1  28
ATOM     27  N   UNL     1       4.134   4.875  19.570  0.00  0.00    +0.000 N 
ATOM     28  C   UNL     1       3.037   5.356  18.884  0.00  0.00    +0.000 C 
ATOM     29  O   UNL     1       2.622   4.832  17.854  0.00  0.00    +0.000 OA
ATOM     30  H   UNL     1       4.366   5.279  20.465  0.00  0.00    +0.000 HD
BRANCH  27  32
ATOM     31  C   UNL     1       4.356   2.439  19.822  0.00  0.00    +0.000 C 
ATOM     32  C   UNL     1       4.867   3.700  19.147  0.00  0.00    +0.000 C 
ENDBRANCH  27  32
ENDBRANCH   1  28
TORSDOF 6
ENDMDL
MODEL 7
REMARK VINA RESULT:      -7.0      3.629      5.214
REMARK  Name = 
REMARK  10 active torsions:
REMARK  status: ('A' for Active; 'I' for Inactive)
REMARK    1  A    between atoms: C_1  and  C_2
REMARK    2  A    between atoms: C_2  and  N_3
REMARK    3  A    between atoms: C_4  and  C_6
REMARK    4  A    between atoms: N_13  and  C_14
REMARK    5  A    between atoms: C_16  and  N_17
REMARK    6  A    between atoms: C_18  and  O_20
REMARK    7  A    between atoms: O_20  and  C_21
REMARK    8  A    between atoms: C_21  and  C_22
REMARK    9  A    between atoms: C_25  and  C_26
REMARK   10  A    between atoms: C_28  and  C_29
REMARK                            x       y       z     vdW  Elec       q    Type
REMARK                         _______ _______ _______ _____ _____    ______ ____
ROOT
ATOM      1  C   UNL     1       6.784   4.928  15.342  0.00  0.00    +0.000 A 
ATOM      2  C   UNL     1       7.627   4.737  16.421  0.00  0.00    +0.000 A 
ATOM      3  N   UNL     1       6.943   4.998  17.572  0.00  0.00    +0.000 N 
ATOM      4  N   UNL     1       7.491   4.952  18.792  0.00  0.00    +0.000 NA
ATOM      5  C   UNL     1       6.655   5.204  19.743  0.00  0.00    +0.000 A 
ATOM      6  N   UNL     1       5.316   5.447  19.610  0.00  0.00    +0.000 NA
ATOM      7  C   UNL     1       4.769   5.517  18.428  0.00  0.00    +0.000 A 
ATOM      8  N   UNL     1       3.399   5.710  18.331  0.00  0.00    +0.000 N 
ATOM      9  C   UNL     1       5.644   5.313  17.291  0.00  0.00    +0.000 A 
ATOM     10  C   UNL     1       5.528   5.397  15.903  0.00  0.00    +0.000 A 
ATOM     11  C   UNL     1       4.372   5.863  15.086  0.00  0.00    +0.000 C 
ATOM     12  H   UNL     1       2.986   5.572  17.422  0.00  0.00    +0.000 HD
ENDROOT
BRANCH   8  13
ATOM     13  C   UNL     1       2.633   6.597  19.135  0.00  0.00    +0.000 A 
ATOM     14  C   UNL     1       2.453   7.938  18.760  0.00  0.00    +0.000 A 
ATOM     15  C   UNL     1       1.637   8.818  19.478  0.00  0.00    +0.000 A 
ATOM     16  C   UNL     1       1.031   8.365  20.649  0.00  0.00    +0.000 A 
ATOM     17  C   UNL     1       1.242   7.052  21.080  0.00  0.00    +0.000 A 
ATOM     18  C   UNL     1       2.029   6.157  20.331  0.00  0.00    +0.000 A 
ATOM     19  C   UNL     1       2.239   4.763  20.855  0.00  0.00    +0.000 C 
BRANCH  15  20
ATOM     20  N   UNL     1       1.385  10.139  19.064  0.00  0.00    +0.000 N 
ATOM     21  C   UNL     1       0.165  10.696  18.785  0.00  0.00    +0.000 C 
ATOM     22  O   UNL     1      -0.932  10.163  18.845  0.00  0.00    +0.000 OA
ATOM     23  H   UNL     1       2.166  10.751  18.900  0.00  0.00    +0.000 HD
BRANCH  21  24
ATOM     24  O   UNL     1       0.355  11.969  18.349  0.00  0.00    +0.000 OA
BRANCH  24  25
ATOM     25  C   UNL     1      -0.732  12.858  18.655  0.00  0.00    +0.000 C 
ATOM     26  C   UNL     1      -0.182  14.272  18.672  0.00  0.00    +0.000 C 
ENDBRANCH  24  25
ENDBRANCH  21  24
ENDBRANCH  15  20
ENDBRANCH   8  13
BRANCH   1  28
ATOM     27  N   UNL     1       6.508   3.634  13.328  0.00  0.00    +0.000 N 
ATOM     28  C   UNL     1       7.122   4.716  13.925  0.00  0.00    +0.000 C 
ATOM     29  O   UNL     1       7.872   5.471  13.313  0.00  0.00    +0.000 OA
ATOM     30  H   UNL     1       5.821   3.111  13.851  0.00  0.00    +0.000 HD
BRANCH  27  32
ATOM     31  C   UNL     1       5.712   2.235  11.469  0.00  0.00    +0.000 C 
ATOM     32  C   UNL     1       6.677   3.315  11.925  0.00  0.00    +0.000 C 
ENDBRANCH  27  32
ENDBRANCH   1  28
TORSDOF 6
ENDMDL
MODEL 8
REMARK VINA RESULT:      -6.9      4.446      6.103
REMARK  Name = 
REMARK  10 active torsions:
REMARK  status: ('A' for Active; 'I' for Inactive)
REMARK    1  A    between atoms: C_1  and  C_2
REMARK    2  A    between atoms: C_2  and  N_3
REMARK    3  A    between atoms: C_4  and  C_6
REMARK    4  A    between atoms: N_13  and  C_14
REMARK    5  A    between atoms: C_16  and  N_17
REMARK    6  A    between atoms: C_18  and  O_20
REMARK    7  A    between atoms: O_20  and  C_21
REMARK    8  A    between atoms: C_21  and  C_22
REMARK    9  A    between atoms: C_25  and  C_26
REMARK   10  A    between atoms: C_28  and  C_29
REMARK                            x       y       z     vdW  Elec       q    Type
REMARK                         _______ _______ _______ _____ _____    ______ ____
ROOT
ATOM      1  C   UNL     1       2.423   6.542  19.480  0.00  0.00    +0.000 A 
ATOM      2  C   UNL     1       1.796   6.558  20.712  0.00  0.00    +0.000 A 
ATOM      3  N   UNL     1       1.227   7.783  20.907  0.00  0.00    +0.000 N 
ATOM      4  N   UNL     1       0.585   8.139  22.026  0.00  0.00    +0.000 NA
ATOM      5  C   UNL     1       0.098   9.333  21.983  0.00  0.00    +0.000 A 
ATOM      6  N   UNL     1       0.139  10.195  20.923  0.00  0.00    +0.000 NA
ATOM      7  C   UNL     1       0.779   9.875  19.832  0.00  0.00    +0.000 A 
ATOM      8  N   UNL     1       0.754  10.749  18.756  0.00  0.00    +0.000 N 
ATOM      9  C   UNL     1       1.418   8.574  19.810  0.00  0.00    +0.000 A 
ATOM     10  C   UNL     1       2.262   7.881  18.940  0.00  0.00    +0.000 A 
ATOM     11  C   UNL     1       2.905   8.356  17.682  0.00  0.00    +0.000 C 
ATOM     12  H   UNL     1       1.095  10.393  17.877  0.00  0.00    +0.000 HD
ENDROOT
BRANCH   8  13
ATOM     13  C   UNL     1       0.872  12.162  18.839  0.00  0.00    +0.000 A 
ATOM     14  C   UNL     1       2.090  12.766  19.192  0.00  0.00    +0.000 A 
ATOM     15  C   UNL     1       2.268  14.153  19.202  0.00  0.00    +0.000 A 
ATOM     16  C   UNL     1       1.177  14.970  18.914  0.00  0.00    +0.000 A 
ATOM     17  C   UNL     1      -0.064  14.399  18.620  0.00  0.00    +0.000 A 
ATOM     18  C   UNL     1      -0.228  13.001  18.569  0.00  0.00    +0.000 A 
ATOM     19  C   UNL     1      -1.592  12.442  18.270  0.00  0.00    +0.000 C 
BRANCH  15  20
ATOM     20  N   UNL     1       3.507  14.764  19.472  0.00  0.00    +0.000 N 
ATOM     21  C   UNL     1       4.398  15.261  18.558  0.00  0.00    +0.000 C 
ATOM     22  O   UNL     1       4.290  15.278  17.342  0.00  0.00    +0.000 OA
ATOM     23  H   UNL     1       3.824  14.812  20.426  0.00  0.00    +0.000 HD
BRANCH  21  24
ATOM     24  O   UNL     1       5.502  15.701  19.216  0.00  0.00    +0.000 OA
BRANCH  24  25
ATOM     25  C   UNL     1       5.830  17.074  18.952  0.00  0.00    +0.000 C 
ATOM     26  C   UNL     1       5.739  17.832  20.263  0.00  0.00    +0.000 C 
ENDBRANCH  24  25
ENDBRANCH  21  24
ENDBRANCH  15  20
ENDBRANCH   8  13
BRANCH   1  28
ATOM     27  N   UNL     1       2.383   4.660  17.976  0.00  0.00    +0.000 N 
ATOM     28  C   UNL     1       3.125   5.398  18.876  0.00  0.00    +0.000 C 
ATOM     29  O   UNL     1       4.297   5.141  19.132  0.00  0.00    +0.000 OA
ATOM     30  H   UNL     1       1.458   4.980  17.726  0.00  0.00    +0.000 HD
BRANCH  27  32
ATOM     31  C   UNL     1       2.490   2.209  17.821  0.00  0.00    +0.000 C 
ATOM     32  C   UNL     1       2.933   3.541  17.241  0.00  0.00    +0.000 C 
ENDBRANCH  27  32
ENDBRANCH   1  28
TORSDOF 6
ENDMDL
MODEL 9
REMARK VINA RESULT:      -6.9      3.998      5.942
REMARK  Name = 
REMARK  10 active torsions:
REMARK  status: ('A' for Active; 'I' for Inactive)
REMARK    1  A    between atoms: C_1  and  C_2
REMARK    2  A    between atoms: C_2  and  N_3
REMARK    3  A    between atoms: C_4  and  C_6
REMARK    4  A    between atoms: N_13  and  C_14
REMARK    5  A    between atoms: C_16  and  N_17
REMARK    6  A    between atoms: C_18  and  O_20
REMARK    7  A    between atoms: O_20  and  C_21
REMARK    8  A    between atoms: C_21  and  C_22
REMARK    9  A    between atoms: C_25  and  C_26
REMARK   10  A    between atoms: C_28  and  C_29
REMARK                            x       y       z     vdW  Elec       q    Type
REMARK                         _______ _______ _______ _____ _____    ______ ____
ROOT
ATOM      1  C   UNL     1       6.530   4.426  14.110  0.00  0.00    +0.000 A 
ATOM      2  C   UNL     1       7.514   5.219  14.671  0.00  0.00    +0.000 A 
ATOM      3  N   UNL     1       7.150   5.548  15.944  0.00  0.00    +0.000 N 
ATOM      4  N   UNL     1       7.866   6.349  16.742  0.00  0.00    +0.000 NA
ATOM      5  C   UNL     1       7.352   6.500  17.916  0.00  0.00    +0.000 A 
ATOM      6  N   UNL     1       6.225   5.895  18.399  0.00  0.00    +0.000 NA
ATOM      7  C   UNL     1       5.503   5.128  17.630  0.00  0.00    +0.000 A 
ATOM      8  N   UNL     1       4.398   4.486  18.167  0.00  0.00    +0.000 N 
ATOM      9  C   UNL     1       5.965   4.950  16.268  0.00  0.00    +0.000 A 
ATOM     10  C   UNL     1       5.482   4.334  15.112  0.00  0.00    +0.000 A 
ATOM     11  C   UNL     1       4.160   3.685  14.879  0.00  0.00    +0.000 C 
ATOM     12  H   UNL     1       3.977   3.763  17.604  0.00  0.00    +0.000 HD
ENDROOT
BRANCH   8  13
ATOM     13  C   UNL     1       3.467   5.065  19.072  0.00  0.00    +0.000 A 
ATOM     14  C   UNL     1       3.095   6.414  18.960  0.00  0.00    +0.000 A 
ATOM     15  C   UNL     1       2.120   6.997  19.776  0.00  0.00    +0.000 A 
ATOM     16  C   UNL     1       1.544   6.226  20.784  0.00  0.00    +0.000 A 
ATOM     17  C   UNL     1       1.939   4.897  20.960  0.00  0.00    +0.000 A 
ATOM     18  C   UNL     1       2.890   4.303  20.107  0.00  0.00    +0.000 A 
ATOM     19  C   UNL     1       3.294   2.875  20.357  0.00  0.00    +0.000 C 
BRANCH  15  20
ATOM     20  N   UNL     1       1.682   8.324  19.617  0.00  0.00    +0.000 N 
ATOM     21  C   UNL     1       1.719   9.072  18.469  0.00  0.00    +0.000 C 
ATOM     22  O   UNL     1       2.130   8.734  17.370  0.00  0.00    +0.000 OA
ATOM     23  H   UNL     1       1.344   8.822  20.423  0.00  0.00    +0.000 HD
BRANCH  21  24
ATOM     24  O   UNL     1       1.270  10.324  18.747  0.00  0.00    +0.000 OA
BRANCH  24  25
ATOM     25  C   UNL     1       0.037  10.351  19.482  0.00  0.00    +0.000 C 
ATOM     26  C   UNL     1      -0.950  11.196  18.698  0.00  0.00    +0.000 C 
ENDBRANCH  24  25
ENDBRANCH  21  24
ENDBRANCH  15  20
ENDBRANCH   8  13
BRANCH   1  28
ATOM     27  N   UNL     1       5.806   2.680  12.616  0.00  0.00    +0.000 N 
ATOM     28  C   UNL     1       6.554   3.830  12.765  0.00  0.00    +0.000 C 
ATOM     29  O   UNL     1       7.171   4.341  11.835  0.00  0.00    +0.000 OA
ATOM     30  H   UNL     1       5.236   2.364  13.387  0.00  0.00    +0.000 HD
BRANCH  27  32
ATOM     31  C   UNL     1       6.920   1.229  10.973  0.00  0.00    +0.000 C 
ATOM     32  C   UNL     1       5.665   1.998  11.346  0.00  0.00    +0.000 C 
ENDBRANCH  27  32
ENDBRANCH   1  28
TORSDOF 6
ENDMDL
