MODEL 1
REMARK VINA RESULT:      -6.7      0.000      0.000
REMARK  Name = 
REMARK  12 active torsions:
REMARK  status: ('A' for Active; 'I' for Inactive)
REMARK    1  A    between atoms: C_1  and  C_2
REMARK    2  A    between atoms: C_4  and  C_5
REMARK    3  A    between atoms: C_11  and  C_12
REMARK    4  A    between atoms: C_12  and  C_13
REMARK    5  A    between atoms: N_15  and  C_16
REMARK    6  A    between atoms: C_16  and  C_17
REMARK    7  A    between atoms: C_17  and  C_18
REMARK    8  A    between atoms: C_17  and  C_19
REMARK    9  A    between atoms: C_17  and  C_20
REMARK   10  A    between atoms: C_20  and  N_21
REMARK   11  A    between atoms: N_21  and  C_22
REMARK   12  A    between atoms: N_21  and  C_23
REMARK                            x       y       z     vdW  Elec       q    Type
REMARK                         _______ _______ _______ _____ _____    ______ ____
ROOT
ATOM      1  C   UNL     1       6.212   4.773  19.068  0.00  0.00    +0.000 C 
ENDROOT
BRANCH   1   7
ATOM      2  C   UNL     1       7.794   7.518  17.885  0.00  0.00    +0.000 C 
ATOM      3  C   UNL     1       7.215   6.326  17.247  0.00  0.00    +0.000 A 
ATOM      4  O   UNL     1       7.351   6.230  15.894  0.00  0.00    +0.000 OA
ATOM      5  C   UNL     1       6.735   5.052  15.555  0.00  0.00    +0.000 A 
ATOM      6  N   UNL     1       6.213   4.420  16.592  0.00  0.00    +0.000 NA
ATOM      7  C   UNL     1       6.543   5.201  17.684  0.00  0.00    +0.000 A 
BRANCH   5   8
ATOM      8  C   UNL     1       6.671   4.561  14.149  0.00  0.00    +0.000 A 
ATOM      9  C   UNL     1       5.657   3.693  13.645  0.00  0.00    +0.000 A 
ATOM     10  C   UNL     1       5.847   3.401  12.312  0.00  0.00    +0.000 A 
ATOM     11  S   UNL     1       7.241   4.167  11.677  0.00  0.00    +0.000 S 
ATOM     12  C   UNL     1       7.593   4.902  13.187  0.00  0.00    +0.000 A 
ENDBRANCH   5   8
ENDBRANCH   1   7
BRANCH   1  13
ATOM     13  C   UNL     1       5.109   3.735  19.219  0.00  0.00    +0.000 C 
ATOM     14  O   UNL     1       5.223   2.841  20.061  0.00  0.00    +0.000 OA
ATOM     15  N   UNL     1       4.010   3.834  18.400  0.00  0.00    +0.000 N 
ATOM     16  H   UNL     1       4.049   4.502  17.635  0.00  0.00    +0.000 HD
BRANCH  15  17
ATOM     17  C   UNL     1       2.957   2.827  18.368  0.00  0.00    +0.000 C 
BRANCH  17  18
ATOM     18  C   UNL     1       1.700   3.208  19.213  0.00  0.00    +0.000 C 
ATOM     19  C   UNL     1       0.492   2.382  18.728  0.00  0.00    +0.000 C 
ATOM     20  C   UNL     1       1.994   2.899  20.695  0.00  0.00    +0.000 C 
BRANCH  18  21
ATOM     21  C   UNL     1       1.420   4.735  18.969  0.00  0.00    +0.000 C 
BRANCH  21  22
ATOM     22  N   UNL     1       2.242   5.752  19.668  0.00  0.00    +0.000 NA
ATOM     23  C   UNL     1       2.630   6.878  18.817  0.00  0.00    +0.000 C 
ATOM     24  C   UNL     1       1.502   6.281  20.823  0.00  0.00    +0.000 C 
ENDBRANCH  21  22
ENDBRANCH  18  21
ENDBRANCH  17  18
ENDBRANCH  15  17
ENDBRANCH   1  13
TORSDOF 7
ENDMDL
MODEL 2
REMARK VINA RESULT:      -6.5      4.489      8.068
REMARK  Name = 
REMARK  12 active torsions:
REMARK  status: ('A' for Active; 'I' for Inactive)
REMARK    1  A    between atoms: C_1  and  C_2
REMARK    2  A    between atoms: C_4  and  C_5
REMARK    3  A    between atoms: C_11  and  C_12
REMARK    4  A    between atoms: C_12  and  C_13
REMARK    5  A    between atoms: N_15  and  C_16
REMARK    6  A    between atoms: C_16  and  C_17
REMARK    7  A    between atoms: C_17  and  C_18
REMARK    8  A    between atoms: C_17  and  C_19
REMARK    9  A    between atoms: C_17  and  C_20
REMARK   10  A    between atoms: C_20  and  N_21
REMARK   11  A    between atoms: N_21  and  C_22
REMARK   12  A    between atoms: N_21  and  C_23
REMARK                            x       y       z     vdW  Elec       q    Type
REMARK                         _______ _______ _______ _____ _____    ______ ____
ROOT
ATOM      1  C   UNL     1       8.041   6.548  18.455  0.00  0.00    +0.000 C 
ENDROOT
BRANCH   1   7
ATOM      2  C   UNL     1       7.063   4.489  15.957  0.00  0.00    +0.000 C 
ATOM      3  C   UNL     1       6.490   4.842  17.266  0.00  0.00    +0.000 A 
ATOM      4  O   UNL     1       5.341   4.201  17.622  0.00  0.00    +0.000 OA
ATOM      5  C   UNL     1       5.021   4.701  18.858  0.00  0.00    +0.000 A 
ATOM      6  N   UNL     1       5.875   5.614  19.287  0.00  0.00    +0.000 NA
ATOM      7  C   UNL     1       6.839   5.688  18.299  0.00  0.00    +0.000 A 
BRANCH   5   8
ATOM      8  C   UNL     1       3.821   4.246  19.618  0.00  0.00    +0.000 A 
ATOM      9  C   UNL     1       2.820   5.118  20.139  0.00  0.00    +0.000 A 
ATOM     10  C   UNL     1       1.827   4.425  20.797  0.00  0.00    +0.000 A 
ATOM     11  S   UNL     1       2.106   2.735  20.787  0.00  0.00    +0.000 S 
ATOM     12  C   UNL     1       3.558   2.924  19.892  0.00  0.00    +0.000 A 
ENDBRANCH   5   8
ENDBRANCH   1   7
BRANCH   1  13
ATOM     13  C   UNL     1       7.929   7.981  17.954  0.00  0.00    +0.000 C 
ATOM     14  O   UNL     1       7.196   8.237  16.996  0.00  0.00    +0.000 OA
ATOM     15  N   UNL     1       8.659   8.952  18.598  0.00  0.00    +0.000 N 
ATOM     16  H   UNL     1       9.349   8.649  19.280  0.00  0.00    +0.000 HD
BRANCH  15  17
ATOM     17  C   UNL     1       8.728  10.328  18.127  0.00  0.00    +0.000 C 
BRANCH  17  18
ATOM     18  C   UNL     1       9.558  11.269  19.058  0.00  0.00    +0.000 C 
ATOM     19  C   UNL     1       9.602  10.670  20.477  0.00  0.00    +0.000 C 
ATOM     20  C   UNL     1      10.985  11.388  18.486  0.00  0.00    +0.000 C 
BRANCH  18  21
ATOM     21  C   UNL     1       8.817  12.655  19.099  0.00  0.00    +0.000 C 
BRANCH  21  22
ATOM     22  N   UNL     1       8.721  13.473  17.866  0.00  0.00    +0.000 NA
ATOM     23  C   UNL     1       7.346  13.802  17.487  0.00  0.00    +0.000 C 
ATOM     24  C   UNL     1       9.464  14.729  18.044  0.00  0.00    +0.000 C 
ENDBRANCH  21  22
ENDBRANCH  18  21
ENDBRANCH  17  18
ENDBRANCH  15  17
ENDBRANCH   1  13
TORSDOF 7
ENDMDL
MODEL 3
REMARK VINA RESULT:      -6.5      3.044      6.893
REMARK  Name = 
REMARK  12 active torsions:
REMARK  status: ('A' for Active; 'I' for Inactive)
REMARK    1  A    between atoms: C_1  and  C_2
REMARK    2  A    between atoms: C_4  and  C_5
REMARK    3  A    between atoms: C_11  and  C_12
REMARK    4  A    between atoms: C_12  and  C_13
REMARK    5  A    between atoms: N_15  and  C_16
REMARK    6  A    between atoms: C_16  and  C_17
REMARK    7  A    between atoms: C_17  and  C_18
REMARK    8  A    between atoms: C_17  and  C_19
REMARK    9  A    between atoms: C_17  and  C_20
REMARK   10  A    between atoms: C_20  and  N_21
REMARK   11  A    between atoms: N_21  and  C_22
REMARK   12  A    between atoms: N_21  and  C_23
REMARK                            x       y       z     vdW  Elec       q    Type
REMARK                         _______ _______ _______ _____ _____    ______ ____
ROOT
ATOM      1  C   UNL     1       3.384   2.909  18.863  0.00  0.00    +0.000 C 
ENDROOT
BRANCH   1   7
ATOM      2  C   UNL     1       2.061   2.952  21.975  0.00  0.00    +0.000 C 
ATOM      3  C   UNL     1       2.215   3.968  20.922  0.00  0.00    +0.000 A 
ATOM      4  O   UNL     1       1.790   5.229  21.224  0.00  0.00    +0.000 OA
ATOM      5  C   UNL     1       2.038   5.969  20.096  0.00  0.00    +0.000 A 
ATOM      6  N   UNL     1       2.569   5.260  19.114  0.00  0.00    +0.000 NA
ATOM      7  C   UNL     1       2.722   3.990  19.639  0.00  0.00    +0.000 A 
BRANCH   5   8
ATOM      8  C   UNL     1       1.726   7.424  20.011  0.00  0.00    +0.000 A 
ATOM      9  C   UNL     1       1.186   8.196  21.083  0.00  0.00    +0.000 A 
ATOM     10  C   UNL     1       0.999   9.512  20.726  0.00  0.00    +0.000 A 
ATOM     11  S   UNL     1       1.469   9.813  19.106  0.00  0.00    +0.000 S 
ATOM     12  C   UNL     1       1.934   8.176  18.879  0.00  0.00    +0.000 A 
ENDBRANCH   5   8
ENDBRANCH   1   7
BRANCH   1  13
ATOM     13  C   UNL     1       3.777   3.235  17.429  0.00  0.00    +0.000 C 
ATOM     14  O   UNL     1       2.908   3.298  16.557  0.00  0.00    +0.000 OA
ATOM     15  N   UNL     1       5.107   3.453  17.156  0.00  0.00    +0.000 N 
ATOM     16  H   UNL     1       5.780   3.242  17.887  0.00  0.00    +0.000 HD
BRANCH  15  17
ATOM     17  C   UNL     1       5.611   3.646  15.803  0.00  0.00    +0.000 C 
BRANCH  17  18
ATOM     18  C   UNL     1       6.310   5.026  15.585  0.00  0.00    +0.000 C 
ATOM     19  C   UNL     1       7.109   4.990  14.268  0.00  0.00    +0.000 C 
ATOM     20  C   UNL     1       5.224   6.119  15.519  0.00  0.00    +0.000 C 
BRANCH  18  21
ATOM     21  C   UNL     1       7.297   5.243  16.789  0.00  0.00    +0.000 C 
BRANCH  21  22
ATOM     22  N   UNL     1       6.939   6.191  17.871  0.00  0.00    +0.000 NA
ATOM     23  C   UNL     1       7.173   5.661  19.216  0.00  0.00    +0.000 C 
ATOM     24  C   UNL     1       7.714   7.431  17.722  0.00  0.00    +0.000 C 
ENDBRANCH  21  22
ENDBRANCH  18  21
ENDBRANCH  17  18
ENDBRANCH  15  17
ENDBRANCH   1  13
TORSDOF 7
ENDMDL
MODEL 4
REMARK VINA RESULT:      -6.5      3.229      5.110
REMARK  Name = 
REMARK  12 active torsions:
REMARK  status: ('A' for Active; 'I' for Inactive)
REMARK    1  A    between atoms: C_1  and  C_2
REMARK    2  A    between atoms: C_4  and  C_5
REMARK    3  A    between atoms: C_11  and  C_12
REMARK    4  A    between atoms: C_12  and  C_13
REMARK    5  A    between atoms: N_15  and  C_16
REMARK    6  A    between atoms: C_16  and  C_17
REMARK    7  A    between atoms: C_17  and  C_18
REMARK    8  A    between atoms: C_17  and  C_19
REMARK    9  A    between atoms: C_17  and  C_20
REMARK   10  A    between atoms: C_20  and  N_21
REMARK   11  A    between atoms: N_21  and  C_22
REMARK   12  A    between atoms: N_21  and  C_23
REMARK                            x       y       z     vdW  Elec       q    Type
REMARK                         _______ _______ _______ _____ _____    ______ ____
ROOT
ATOM      1  C   UNL     1       7.513   5.272  18.666  0.00  0.00    +0.000 C 
ENDROOT
BRANCH   1   7
ATOM      2  C   UNL     1       5.929   6.960  16.200  0.00  0.00    +0.000 C 
ATOM      3  C   UNL     1       6.937   7.336  17.203  0.00  0.00    +0.000 A 
ATOM      4  O   UNL     1       7.324   8.644  17.219  0.00  0.00    +0.000 OA
ATOM      5  C   UNL     1       8.254   8.729  18.224  0.00  0.00    +0.000 A 
ATOM      6  N   UNL     1       8.484   7.572  18.820  0.00  0.00    +0.000 NA
ATOM      7  C   UNL     1       7.624   6.681  18.205  0.00  0.00    +0.000 A 
BRANCH   5   8
ATOM      8  C   UNL     1       8.925  10.011  18.584  0.00  0.00    +0.000 A 
ATOM      9  C   UNL     1       9.379  10.341  19.896  0.00  0.00    +0.000 A 
ATOM     10  C   UNL     1       9.961  11.588  19.939  0.00  0.00    +0.000 A 
ATOM     11  S   UNL     1       9.955  12.355  18.408  0.00  0.00    +0.000 S 
ATOM     12  C   UNL     1       9.177  11.012  17.676  0.00  0.00    +0.000 A 
ENDBRANCH   5   8
ENDBRANCH   1   7
BRANCH   1  13
ATOM     13  C   UNL     1       6.142   4.813  19.142  0.00  0.00    +0.000 C 
ATOM     14  O   UNL     1       5.450   5.566  19.830  0.00  0.00    +0.000 OA
ATOM     15  N   UNL     1       5.718   3.556  18.780  0.00  0.00    +0.000 N 
ATOM     16  H   UNL     1       6.394   2.938  18.339  0.00  0.00    +0.000 HD
BRANCH  15  17
ATOM     17  C   UNL     1       4.484   2.965  19.282  0.00  0.00    +0.000 C 
BRANCH  17  18
ATOM     18  C   UNL     1       3.283   3.084  18.290  0.00  0.00    +0.000 C 
ATOM     19  C   UNL     1       3.720   3.901  17.058  0.00  0.00    +0.000 C 
ATOM     20  C   UNL     1       2.859   1.665  17.863  0.00  0.00    +0.000 C 
BRANCH  18  21
ATOM     21  C   UNL     1       2.133   3.847  19.042  0.00  0.00    +0.000 C 
BRANCH  21  22
ATOM     22  N   UNL     1       2.349   4.315  20.432  0.00  0.00    +0.000 NA
ATOM     23  C   UNL     1       1.893   5.686  20.667  0.00  0.00    +0.000 C 
ATOM     24  C   UNL     1       1.644   3.428  21.370  0.00  0.00    +0.000 C 
ENDBRANCH  21  22
ENDBRANCH  18  21
ENDBRANCH  17  18
ENDBRANCH  15  17
ENDBRANCH   1  13
TORSDOF 7
ENDMDL
MODEL 5
REMARK VINA RESULT:      -6.4      1.625      2.798
REMARK  Name = 
REMARK  12 active torsions:
REMARK  status: ('A' for Active; 'I' for Inactive)
REMARK    1  A    between atoms: C_1  and  C_2
REMARK    2  A    between atoms: C_4  and  C_5
REMARK    3  A    between atoms: C_11  and  C_12
REMARK    4  A    between atoms: C_12  and  C_13
REMARK    5  A    between atoms: N_15  and  C_16
REMARK    6  A    between atoms: C_16  and  C_17
REMARK    7  A    between atoms: C_17  and  C_18
REMARK    8  A    between atoms: C_17  and  C_19
REMARK    9  A    between atoms: C_17  and  C_20
REMARK   10  A    between atoms: C_20  and  N_21
REMARK   11  A    between atoms: N_21  and  C_22
REMARK   12  A    between atoms: N_21  and  C_23
REMARK                            x       y       z     vdW  Elec       q    Type
REMARK                         _______ _______ _______ _____ _____    ______ ____
ROOT
ATOM      1  C   UNL     1       4.323   7.230  17.962  0.00  0.00    +0.000 C 
ENDROOT
BRANCH   1   7
ATOM      2  C   UNL     1       7.036   5.532  19.052  0.00  0.00    +0.000 C 
ATOM      3  C   UNL     1       6.385   5.672  17.740  0.00  0.00    +0.000 A 
ATOM      4  O   UNL     1       6.920   4.952  16.713  0.00  0.00    +0.000 OA
ATOM      5  C   UNL     1       6.146   5.256  15.622  0.00  0.00    +0.000 A 
ATOM      6  N   UNL     1       5.183   6.121  15.892  0.00  0.00    +0.000 NA
ATOM      7  C   UNL     1       5.299   6.367  17.247  0.00  0.00    +0.000 A 
BRANCH   5   8
ATOM      8  C   UNL     1       6.391   4.659  14.278  0.00  0.00    +0.000 A 
ATOM      9  C   UNL     1       5.517   3.731  13.638  0.00  0.00    +0.000 A 
ATOM     10  C   UNL     1       5.992   3.345  12.404  0.00  0.00    +0.000 A 
ATOM     11  S   UNL     1       7.483   4.097  12.024  0.00  0.00    +0.000 S 
ATOM     12  C   UNL     1       7.496   4.951  13.513  0.00  0.00    +0.000 A 
ENDBRANCH   5   8
ENDBRANCH   1   7
BRANCH   1  13
ATOM     13  C   UNL     1       3.137   6.530  18.612  0.00  0.00    +0.000 C 
ATOM     14  O   UNL     1       2.038   6.545  18.055  0.00  0.00    +0.000 OA
ATOM     15  N   UNL     1       3.340   5.896  19.815  0.00  0.00    +0.000 N 
ATOM     16  H   UNL     1       4.228   6.048  20.286  0.00  0.00    +0.000 HD
BRANCH  15  17
ATOM     17  C   UNL     1       2.255   5.306  20.588  0.00  0.00    +0.000 C 
BRANCH  17  18
ATOM     18  C   UNL     1       2.141   3.756  20.426  0.00  0.00    +0.000 C 
ATOM     19  C   UNL     1       2.165   3.097  21.819  0.00  0.00    +0.000 C 
ATOM     20  C   UNL     1       0.815   3.435  19.709  0.00  0.00    +0.000 C 
BRANCH  18  21
ATOM     21  C   UNL     1       3.393   3.281  19.602  0.00  0.00    +0.000 C 
BRANCH  21  22
ATOM     22  N   UNL     1       3.201   2.448  18.391  0.00  0.00    +0.000 NA
ATOM     23  C   UNL     1       3.736   3.054  17.171  0.00  0.00    +0.000 C 
ATOM     24  C   UNL     1       3.848   1.141  18.579  0.00  0.00    +0.000 C 
ENDBRANCH  21  22
ENDBRANCH  18  21
ENDBRANCH  17  18
ENDBRANCH  15  17
ENDBRANCH   1  13
TORSDOF 7
ENDMDL
MODEL 6
REMARK VINA RESULT:      -6.4      4.513      8.170
REMARK  Name = 
REMARK  12 active torsions:
REMARK  status: ('A' for Active; 'I' for Inactive)
REMARK    1  A    between atoms: C_1  and  C_2
REMARK    2  A    between atoms: C_4  and  C_5
REMARK    3  A    between atoms: C_11  and  C_12
REMARK    4  A    between atoms: C_12  and  C_13
REMARK    5  A    between atoms: N_15  and  C_16
REMARK    6  A    between atoms: C_16  and  C_17
REMARK    7  A    between atoms: C_17  and  C_18
REMARK    8  A    between atoms: C_17  and  C_19
REMARK    9  A    between atoms: C_17  and  C_20
REMARK   10  A    between atoms: C_20  and  N_21
REMARK   11  A    between atoms: N_21  and  C_22
REMARK   12  A    between atoms: N_21  and  C_23
REMARK                            x       y       z     vdW  Elec       q    Type
REMARK                         _______ _______ _______ _____ _____    ______ ____
ROOT
ATOM      1  C   UNL     1       7.759   6.549  18.498  0.00  0.00    +0.000 C 
ENDROOT
BRANCH   1   7
ATOM      2  C   UNL     1       7.327   4.761  15.661  0.00  0.00    +0.000 C 
ATOM      3  C   UNL     1       6.552   4.897  16.903  0.00  0.00    +0.000 A 
ATOM      4  O   UNL     1       5.429   4.130  17.010  0.00  0.00    +0.000 OA
ATOM      5  C   UNL     1       4.899   4.441  18.236  0.00  0.00    +0.000 A 
ATOM      6  N   UNL     1       5.598   5.353  18.889  0.00  0.00    +0.000 NA
ATOM      7  C   UNL     1       6.676   5.627  18.069  0.00  0.00    +0.000 A 
BRANCH   5   8
ATOM      8  C   UNL     1       3.655   3.801  18.754  0.00  0.00    +0.000 A 
ATOM      9  C   UNL     1       2.752   3.036  17.957  0.00  0.00    +0.000 A 
ATOM     10  C   UNL     1       1.689   2.565  18.695  0.00  0.00    +0.000 A 
ATOM     11  S   UNL     1       1.780   3.047  20.336  0.00  0.00    +0.000 S 
ATOM     12  C   UNL     1       3.253   3.885  20.066  0.00  0.00    +0.000 A 
ENDBRANCH   5   8
ENDBRANCH   1   7
BRANCH   1  13
ATOM     13  C   UNL     1       7.769   7.936  17.871  0.00  0.00    +0.000 C 
ATOM     14  O   UNL     1       7.062   8.167  16.888  0.00  0.00    +0.000 OA
ATOM     15  N   UNL     1       8.579   8.895  18.432  0.00  0.00    +0.000 N 
ATOM     16  H   UNL     1       9.240   8.598  19.144  0.00  0.00    +0.000 HD
BRANCH  15  17
ATOM     17  C   UNL     1       8.764  10.214  17.841  0.00  0.00    +0.000 C 
BRANCH  17  18
ATOM     18  C   UNL     1       9.440  11.243  18.803  0.00  0.00    +0.000 C 
ATOM     19  C   UNL     1       8.639  12.559  18.783  0.00  0.00    +0.000 C 
ATOM     20  C   UNL     1       9.451  10.648  20.226  0.00  0.00    +0.000 C 
BRANCH  18  21
ATOM     21  C   UNL     1      10.891  11.506  18.259  0.00  0.00    +0.000 C 
BRANCH  21  22
ATOM     22  N   UNL     1      11.444  12.881  18.280  0.00  0.00    +0.000 NA
ATOM     23  C   UNL     1      12.333  13.138  19.415  0.00  0.00    +0.000 C 
ATOM     24  C   UNL     1      12.193  13.134  17.040  0.00  0.00    +0.000 C 
ENDBRANCH  21  22
ENDBRANCH  18  21
ENDBRANCH  17  18
ENDBRANCH  15  17
ENDBRANCH   1  13
TORSDOF 7
ENDMDL
MODEL 7
REMARK VINA RESULT:      -6.4      1.700      2.569
REMARK  Name = 
REMARK  12 active torsions:
REMARK  status: ('A' for Active; 'I' for Inactive)
REMARK    1  A    between atoms: C_1  and  C_2
REMARK    2  A    between atoms: C_4  and  C_5
REMARK    3  A    between atoms: C_11  and  C_12
REMARK    4  A    between atoms: C_12  and  C_13
REMARK    5  A    between atoms: N_15  and  C_16
REMARK    6  A    between atoms: C_16  and  C_17
REMARK    7  A    between atoms: C_17  and  C_18
REMARK    8  A    between atoms: C_17  and  C_19
REMARK    9  A    between atoms: C_17  and  C_20
REMARK   10  A    between atoms: C_20  and  N_21
REMARK   11  A    between atoms: N_21  and  C_22
REMARK   12  A    between atoms: N_21  and  C_23
REMARK                            x       y       z     vdW  Elec       q    Type
REMARK                         _______ _______ _______ _____ _____    ______ ____
ROOT
ATOM      1  C   UNL     1       4.422   7.340  17.871  0.00  0.00    +0.000 C 
ENDROOT
BRANCH   1   7
ATOM      2  C   UNL     1       7.773   7.016  18.185  0.00  0.00    +0.000 C 
ATOM      3  C   UNL     1       6.800   6.574  17.173  0.00  0.00    +0.000 A 
ATOM      4  O   UNL     1       7.290   5.834  16.138  0.00  0.00    +0.000 OA
ATOM      5  C   UNL     1       6.201   5.557  15.351  0.00  0.00    +0.000 A 
ATOM      6  N   UNL     1       5.079   6.082  15.811  0.00  0.00    +0.000 NA
ATOM      7  C   UNL     1       5.438   6.703  16.993  0.00  0.00    +0.000 A 
BRANCH   5   8
ATOM      8  C   UNL     1       6.302   4.745  14.105  0.00  0.00    +0.000 A 
ATOM      9  C   UNL     1       5.304   3.829  13.657  0.00  0.00    +0.000 A 
ATOM     10  C   UNL     1       5.661   3.217  12.476  0.00  0.00    +0.000 A 
ATOM     11  S   UNL     1       7.192   3.742  11.916  0.00  0.00    +0.000 S 
ATOM     12  C   UNL     1       7.380   4.801  13.253  0.00  0.00    +0.000 A 
ENDBRANCH   5   8
ENDBRANCH   1   7
BRANCH   1  13
ATOM     13  C   UNL     1       3.071   6.646  17.973  0.00  0.00    +0.000 C 
ATOM     14  O   UNL     1       2.070   7.297  18.279  0.00  0.00    +0.000 OA
ATOM     15  N   UNL     1       3.016   5.296  17.714  0.00  0.00    +0.000 N 
ATOM     16  H   UNL     1       3.896   4.798  17.612  0.00  0.00    +0.000 HD
BRANCH  15  17
ATOM     17  C   UNL     1       1.807   4.506  17.904  0.00  0.00    +0.000 C 
BRANCH  17  18
ATOM     18  C   UNL     1       1.811   3.660  19.218  0.00  0.00    +0.000 C 
ATOM     19  C   UNL     1       0.743   4.214  20.182  0.00  0.00    +0.000 C 
ATOM     20  C   UNL     1       1.494   2.195  18.858  0.00  0.00    +0.000 C 
BRANCH  18  21
ATOM     21  C   UNL     1       3.233   3.818  19.868  0.00  0.00    +0.000 C 
BRANCH  21  22
ATOM     22  N   UNL     1       4.366   3.006  19.361  0.00  0.00    +0.000 NA
ATOM     23  C   UNL     1       5.591   3.778  19.148  0.00  0.00    +0.000 C 
ATOM     24  C   UNL     1       4.662   1.921  20.308  0.00  0.00    +0.000 C 
ENDBRANCH  21  22
ENDBRANCH  18  21
ENDBRANCH  17  18
ENDBRANCH  15  17
ENDBRANCH   1  13
TORSDOF 7
ENDMDL
MODEL 8
REMARK VINA RESULT:      -6.3      1.419      2.660
REMARK  Name = 
REMARK  12 active torsions:
REMARK  status: ('A' for Active; 'I' for Inactive)
REMARK    1  A    between atoms: C_1  and  C_2
REMARK    2  A    between atoms: C_4  and  C_5
REMARK    3  A    between atoms: C_11  and  C_12
REMARK    4  A    between atoms: C_12  and  C_13
REMARK    5  A    between atoms: N_15  and  C_16
REMARK    6  A    between atoms: C_16  and  C_17
REMARK    7  A    between atoms: C_17  and  C_18
REMARK    8  A    between atoms: C_17  and  C_19
REMARK    9  A    between atoms: C_17  and  C_20
REMARK   10  A    between atoms: C_20  and  N_21
REMARK   11  A    between atoms: N_21  and  C_22
REMARK   12  A    between atoms: N_21  and  C_23
REMARK                            x       y       z     vdW  Elec       q    Type
REMARK                         _______ _______ _______ _____ _____    ______ ____
ROOT
ATOM      1  C   UNL     1       4.358   6.906  17.943  0.00  0.00    +0.000 C 
ENDROOT
BRANCH   1   7
ATOM      2  C   UNL     1       7.730   7.110  18.096  0.00  0.00    +0.000 C 
ATOM      3  C   UNL     1       6.790   6.549  17.114  0.00  0.00    +0.000 A 
ATOM      4  O   UNL     1       7.338   5.926  16.031  0.00  0.00    +0.000 OA
ATOM      5  C   UNL     1       6.269   5.502  15.284  0.00  0.00    +0.000 A 
ATOM      6  N   UNL     1       5.102   5.829  15.812  0.00  0.00    +0.000 NA
ATOM      7  C   UNL     1       5.417   6.464  16.998  0.00  0.00    +0.000 A 
BRANCH   5   8
ATOM      8  C   UNL     1       6.436   4.754  14.005  0.00  0.00    +0.000 A 
ATOM      9  C   UNL     1       7.446   5.030  13.036  0.00  0.00    +0.000 A 
ATOM     10  C   UNL     1       7.364   4.183  11.953  0.00  0.00    +0.000 A 
ATOM     11  S   UNL     1       6.075   3.066  12.105  0.00  0.00    +0.000 S 
ATOM     12  C   UNL     1       5.624   3.709  13.631  0.00  0.00    +0.000 A 
ENDBRANCH   5   8
ENDBRANCH   1   7
BRANCH   1  13
ATOM     13  C   UNL     1       4.137   6.042  19.177  0.00  0.00    +0.000 C 
ATOM     14  O   UNL     1       5.104   5.538  19.751  0.00  0.00    +0.000 OA
ATOM     15  N   UNL     1       2.846   5.854  19.613  0.00  0.00    +0.000 N 
ATOM     16  H   UNL     1       2.093   6.175  19.011  0.00  0.00    +0.000 HD
BRANCH  15  17
ATOM     17  C   UNL     1       2.507   4.948  20.702  0.00  0.00    +0.000 C 
BRANCH  17  18
ATOM     18  C   UNL     1       1.994   3.553  20.219  0.00  0.00    +0.000 C 
ATOM     19  C   UNL     1       1.259   2.852  21.379  0.00  0.00    +0.000 C 
ATOM     20  C   UNL     1       1.033   3.768  19.034  0.00  0.00    +0.000 C 
BRANCH  18  21
ATOM     21  C   UNL     1       3.257   2.708  19.815  0.00  0.00    +0.000 C 
BRANCH  21  22
ATOM     22  N   UNL     1       3.347   2.129  18.453  0.00  0.00    +0.000 NA
ATOM     23  C   UNL     1       4.035   2.995  17.493  0.00  0.00    +0.000 C 
ATOM     24  C   UNL     1       4.057   0.843  18.506  0.00  0.00    +0.000 C 
ENDBRANCH  21  22
ENDBRANCH  18  21
ENDBRANCH  17  18
ENDBRANCH  15  17
ENDBRANCH   1  13
TORSDOF 7
ENDMDL
MODEL 9
REMARK VINA RESULT:      -6.3      3.444      5.392
REMARK  Name = 
REMARK  12 active torsions:
REMARK  status: ('A' for Active; 'I' for Inactive)
REMARK    1  A    between atoms: C_1  and  C_2
REMARK    2  A    between atoms: C_4  and  C_5
REMARK    3  A    between atoms: C_11  and  C_12
REMARK    4  A    between atoms: C_12  and  C_13
REMARK    5  A    between atoms: N_15  and  C_16
REMARK    6  A    between atoms: C_16  and  C_17
REMARK    7  A    between atoms: C_17  and  C_18
REMARK    8  A    between atoms: C_17  and  C_19
REMARK    9  A    between atoms: C_17  and  C_20
REMARK   10  A    between atoms: C_20  and  N_21
REMARK   11  A    between atoms: N_21  and  C_22
REMARK   12  A    between atoms: N_21  and  C_23
REMARK                            x       y       z     vdW  Elec       q    Type
REMARK                         _______ _______ _______ _____ _____    ______ ____
ROOT
ATOM      1  C   UNL     1       5.606   6.440  16.529  0.00  0.00    +0.000 C 
ENDROOT
BRANCH   1   7
ATOM      2  C   UNL     1       7.839   5.056  18.658  0.00  0.00    +0.000 C 
ATOM      3  C   UNL     1       7.589   6.432  18.202  0.00  0.00    +0.000 A 
ATOM      4  O   UNL     1       8.433   7.394  18.672  0.00  0.00    +0.000 OA
ATOM      5  C   UNL     1       7.991   8.564  18.109  0.00  0.00    +0.000 A 
ATOM      6  N   UNL     1       6.927   8.402  17.341  0.00  0.00    +0.000 NA
ATOM      7  C   UNL     1       6.681   7.042  17.360  0.00  0.00    +0.000 A 
BRANCH   5   8
ATOM      8  C   UNL     1       8.659   9.873  18.360  0.00  0.00    +0.000 A 
ATOM      9  C   UNL     1       9.553  10.126  19.443  0.00  0.00    +0.000 A 
ATOM     10  C   UNL     1      10.021  11.421  19.430  0.00  0.00    +0.000 A 
ATOM     11  S   UNL     1       9.382  12.325  18.122  0.00  0.00    +0.000 S 
ATOM     12  C   UNL     1       8.479  10.978  17.561  0.00  0.00    +0.000 A 
ENDBRANCH   5   8
ENDBRANCH   1   7
BRANCH   1  13
ATOM     13  C   UNL     1       4.188   6.526  17.075  0.00  0.00    +0.000 C 
ATOM     14  O   UNL     1       3.646   7.626  17.197  0.00  0.00    +0.000 OA
ATOM     15  N   UNL     1       3.553   5.354  17.416  0.00  0.00    +0.000 N 
ATOM     16  H   UNL     1       4.108   4.503  17.428  0.00  0.00    +0.000 HD
BRANCH  15  17
ATOM     17  C   UNL     1       2.249   5.325  18.065  0.00  0.00    +0.000 C 
BRANCH  17  18
ATOM     18  C   UNL     1       2.223   4.484  19.381  0.00  0.00    +0.000 C 
ATOM     19  C   UNL     1       2.096   5.434  20.589  0.00  0.00    +0.000 C 
ATOM     20  C   UNL     1       1.015   3.528  19.327  0.00  0.00    +0.000 C 
BRANCH  18  21
ATOM     21  C   UNL     1       3.589   3.711  19.467  0.00  0.00    +0.000 C 
BRANCH  21  22
ATOM     22  N   UNL     1       3.589   2.236  19.619  0.00  0.00    +0.000 NA
ATOM     23  C   UNL     1       3.680   1.516  18.347  0.00  0.00    +0.000 C 
ATOM     24  C   UNL     1       4.719   1.824  20.464  0.00  0.00    +0.000 C 
ENDBRANCH  21  22
ENDBRANCH  18  21
ENDBRANCH  17  18
ENDBRANCH  15  17
ENDBRANCH   1  13
TORSDOF 7
ENDMDL
