MODEL 1
REMARK VINA RESULT:      -7.7      0.000      0.000
REMARK  Name = 
REMARK  8 active torsions:
REMARK  status: ('A' for Active; 'I' for Inactive)
REMARK    1  A    between atoms: C_1  and  C_2
REMARK    2  A    between atoms: C_2  and  C_3
REMARK    3  A    between atoms: C_2  and  N_4
REMARK    4  A    between atoms: N_7  and  C_8
REMARK    5  A    between atoms: C_8  and  C_9
REMARK    6  A    between atoms: C_11  and  C_12
REMARK    7  A    between atoms: C_16  and  N_17
REMARK    8  A    between atoms: N_29  and  C_30
REMARK                            x       y       z     vdW  Elec       q    Type
REMARK                         _______ _______ _______ _____ _____    ______ ____
ROOT
ATOM      1  C   UNL     1       0.914   8.490  21.016  0.00  0.00    +0.000 C 
ATOM      2  O   UNL     1       0.254   8.465  22.057  0.00  0.00    +0.000 OA
ATOM      3  N   UNL     1       1.052   9.652  20.281  0.00  0.00    +0.000 N 
ATOM      4  C   UNL     1       0.331  10.888  20.503  0.00  0.00    +0.000 C 
ATOM      5  C   UNL     1       0.244  11.058  18.974  0.00  0.00    +0.000 C 
ATOM      6  C   UNL     1       1.161   9.828  18.843  0.00  0.00    +0.000 C 
ENDROOT
BRANCH   5   7
ATOM      7  N   UNL     1      -1.102  10.872  18.490  0.00  0.00    +0.000 N 
ATOM      8  C   UNL     1      -1.409  10.036  17.448  0.00  0.00    +0.000 A 
ATOM      9  N   UNL     1      -2.692  10.061  17.159  0.00  0.00    +0.000 NA
ATOM     10  C   UNL     1      -3.238  10.959  18.062  0.00  0.00    +0.000 A 
ATOM     11  C   UNL     1      -4.550  11.419  18.260  0.00  0.00    +0.000 A 
ATOM     12  N   UNL     1      -5.629  10.988  17.501  0.00  0.00    +0.000 N 
ATOM     13  N   UNL     1      -4.776  12.344  19.220  0.00  0.00    +0.000 NA
ATOM     14  C   UNL     1      -3.728  12.767  19.960  0.00  0.00    +0.000 A 
ATOM     15  N   UNL     1      -2.441  12.385  19.872  0.00  0.00    +0.000 NA
ATOM     16  C   UNL     1      -2.261  11.480  18.898  0.00  0.00    +0.000 A 
ATOM     17  H   UNL     1      -5.361  10.601  16.605  0.00  0.00    +0.000 HD
ATOM     18  H   UNL     1      -6.382  11.661  17.513  0.00  0.00    +0.000 HD
ENDBRANCH   5   7
BRANCH   1  21
ATOM     19  C   UNL     1       3.013   5.975  19.374  0.00  0.00    +0.000 A 
ATOM     20  C   UNL     1       2.549   7.270  19.466  0.00  0.00    +0.000 A 
ATOM     21  C   UNL     1       1.618   7.287  20.534  0.00  0.00    +0.000 A 
ATOM     22  N   UNL     1       1.459   6.046  21.030  0.00  0.00    +0.000 NA
ATOM     23  N   UNL     1       2.328   5.281  20.336  0.00  0.00    +0.000 N 
ATOM     24  C   UNL     1       2.464   3.892  20.707  0.00  0.00    +0.000 C 
BRANCH  19  25
ATOM     25  C   UNL     1       4.105   5.442  18.516  0.00  0.00    +0.000 C 
BRANCH  25  29
ATOM     26  N   UNL     1       6.584   4.809  15.779  0.00  0.00    +0.000 NA
ATOM     27  C   UNL     1       6.373   6.125  16.440  0.00  0.00    +0.000 C 
ATOM     28  C   UNL     1       4.902   6.613  16.491  0.00  0.00    +0.000 C 
ATOM     29  N   UNL     1       3.936   5.649  17.068  0.00  0.00    +0.000 NA
ATOM     30  C   UNL     1       4.144   4.353  16.368  0.00  0.00    +0.000 C 
ATOM     31  C   UNL     1       5.615   3.856  16.366  0.00  0.00    +0.000 C 
BRANCH  26  33
ATOM     32  C   UNL     1       7.899   5.300  13.717  0.00  0.00    +0.000 C 
ATOM     33  C   UNL     1       6.534   4.885  14.298  0.00  0.00    +0.000 C 
ATOM     34  C   UNL     1       6.171   3.544  13.629  0.00  0.00    +0.000 C 
ENDBRANCH  26  33
ENDBRANCH  25  29
ENDBRANCH  19  25
ENDBRANCH   1  21
TORSDOF 5
ENDMDL
MODEL 2
REMARK VINA RESULT:      -7.6      2.813     10.293
REMARK  Name = 
REMARK  8 active torsions:
REMARK  status: ('A' for Active; 'I' for Inactive)
REMARK    1  A    between atoms: C_1  and  C_2
REMARK    2  A    between atoms: C_2  and  C_3
REMARK    3  A    between atoms: C_2  and  N_4
REMARK    4  A    between atoms: N_7  and  C_8
REMARK    5  A    between atoms: C_8  and  C_9
REMARK    6  A    between atoms: C_11  and  C_12
REMARK    7  A    between atoms: C_16  and  N_17
REMARK    8  A    between atoms: N_29  and  C_30
REMARK                            x       y       z     vdW  Elec       q    Type
REMARK                         _______ _______ _______ _____ _____    ______ ____
ROOT
ATOM      1  C   UNL     1       3.954   5.582  19.280  0.00  0.00    +0.000 C 
ATOM      2  O   UNL     1       4.837   5.508  20.137  0.00  0.00    +0.000 OA
ATOM      3  N   UNL     1       3.831   4.625  18.291  0.00  0.00    +0.000 N 
ATOM      4  C   UNL     1       4.777   3.565  18.013  0.00  0.00    +0.000 C 
ATOM      5  C   UNL     1       4.511   3.783  16.511  0.00  0.00    +0.000 C 
ATOM      6  C   UNL     1       3.401   4.773  16.911  0.00  0.00    +0.000 C 
ENDROOT
BRANCH   5   7
ATOM      7  N   UNL     1       5.646   4.373  15.846  0.00  0.00    +0.000 N 
ATOM      8  C   UNL     1       6.499   5.248  16.466  0.00  0.00    +0.000 A 
ATOM      9  N   UNL     1       7.435   5.686  15.650  0.00  0.00    +0.000 NA
ATOM     10  C   UNL     1       7.169   5.059  14.444  0.00  0.00    +0.000 A 
ATOM     11  C   UNL     1       7.800   5.116  13.191  0.00  0.00    +0.000 A 
ATOM     12  N   UNL     1       8.923   5.891  12.941  0.00  0.00    +0.000 N 
ATOM     13  N   UNL     1       7.279   4.402  12.168  0.00  0.00    +0.000 NA
ATOM     14  C   UNL     1       6.184   3.648  12.406  0.00  0.00    +0.000 A 
ATOM     15  N   UNL     1       5.512   3.502  13.562  0.00  0.00    +0.000 NA
ATOM     16  C   UNL     1       6.053   4.240  14.543  0.00  0.00    +0.000 A 
ATOM     17  H   UNL     1       9.043   6.650  13.601  0.00  0.00    +0.000 HD
ATOM     18  H   UNL     1       9.014   6.108  11.958  0.00  0.00    +0.000 HD
ENDBRANCH   5   7
BRANCH   1  21
ATOM     19  C   UNL     1       1.368   8.070  20.017  0.00  0.00    +0.000 A 
ATOM     20  C   UNL     1       2.073   6.939  20.368  0.00  0.00    +0.000 A 
ATOM     21  C   UNL     1       2.966   6.676  19.300  0.00  0.00    +0.000 A 
ATOM     22  N   UNL     1       2.770   7.560  18.304  0.00  0.00    +0.000 NA
ATOM     23  N   UNL     1       1.825   8.404  18.770  0.00  0.00    +0.000 N 
ATOM     24  C   UNL     1       1.458   9.538  17.955  0.00  0.00    +0.000 C 
BRANCH  19  25
ATOM     25  C   UNL     1       0.405   8.853  20.839  0.00  0.00    +0.000 C 
BRANCH  25  29
ATOM     26  N   UNL     1      -1.081  12.193  21.655  0.00  0.00    +0.000 NA
ATOM     27  C   UNL     1      -0.152  11.936  20.521  0.00  0.00    +0.000 C 
ATOM     28  C   UNL     1       1.163  11.204  20.895  0.00  0.00    +0.000 C 
ATOM     29  N   UNL     1       0.990   9.938  21.644  0.00  0.00    +0.000 NA
ATOM     30  C   UNL     1       0.085  10.228  22.789  0.00  0.00    +0.000 C 
ATOM     31  C   UNL     1      -1.247  10.920  22.392  0.00  0.00    +0.000 C 
BRANCH  26  33
ATOM     32  C   UNL     1      -0.491  14.617  21.671  0.00  0.00    +0.000 C 
ATOM     33  C   UNL     1      -0.662  13.334  22.506  0.00  0.00    +0.000 C 
ATOM     34  C   UNL     1      -1.677  13.674  23.616  0.00  0.00    +0.000 C 
ENDBRANCH  26  33
ENDBRANCH  25  29
ENDBRANCH  19  25
ENDBRANCH   1  21
TORSDOF 5
ENDMDL
MODEL 3
REMARK VINA RESULT:      -7.5      2.656      4.012
REMARK  Name = 
REMARK  8 active torsions:
REMARK  status: ('A' for Active; 'I' for Inactive)
REMARK    1  A    between atoms: C_1  and  C_2
REMARK    2  A    between atoms: C_2  and  C_3
REMARK    3  A    between atoms: C_2  and  N_4
REMARK    4  A    between atoms: N_7  and  C_8
REMARK    5  A    between atoms: C_8  and  C_9
REMARK    6  A    between atoms: C_11  and  C_12
REMARK    7  A    between atoms: C_16  and  N_17
REMARK    8  A    between atoms: N_29  and  C_30
REMARK                            x       y       z     vdW  Elec       q    Type
REMARK                         _______ _______ _______ _____ _____    ______ ____
ROOT
ATOM      1  C   UNL     1      -0.246   9.385  21.975  0.00  0.00    +0.000 C 
ATOM      2  O   UNL     1      -0.876   8.565  22.646  0.00  0.00    +0.000 OA
ATOM      3  N   UNL     1      -0.334  10.740  22.228  0.00  0.00    +0.000 N 
ATOM      4  C   UNL     1      -1.267  11.376  23.134  0.00  0.00    +0.000 C 
ATOM      5  C   UNL     1      -1.406  12.523  22.115  0.00  0.00    +0.000 C 
ATOM      6  C   UNL     1      -0.280  11.859  21.301  0.00  0.00    +0.000 C 
ENDROOT
BRANCH   5   7
ATOM      7  N   UNL     1      -2.700  12.523  21.480  0.00  0.00    +0.000 N 
ATOM      8  C   UNL     1      -2.862  12.530  20.120  0.00  0.00    +0.000 A 
ATOM      9  N   UNL     1      -4.132  12.571  19.775  0.00  0.00    +0.000 NA
ATOM     10  C   UNL     1      -4.821  12.590  20.976  0.00  0.00    +0.000 A 
ATOM     11  C   UNL     1      -6.191  12.638  21.277  0.00  0.00    +0.000 A 
ATOM     12  N   UNL     1      -7.182  12.667  20.306  0.00  0.00    +0.000 N 
ATOM     13  N   UNL     1      -6.570  12.682  22.575  0.00  0.00    +0.000 NA
ATOM     14  C   UNL     1      -5.609  12.657  23.523  0.00  0.00    +0.000 A 
ATOM     15  N   UNL     1      -4.276  12.592  23.353  0.00  0.00    +0.000 NA
ATOM     16  C   UNL     1      -3.946  12.567  22.052  0.00  0.00    +0.000 A 
ATOM     17  H   UNL     1      -6.853  12.990  19.405  0.00  0.00    +0.000 HD
ATOM     18  H   UNL     1      -8.039  13.067  20.662  0.00  0.00    +0.000 HD
ENDBRANCH   5   7
BRANCH   1  21
ATOM     19  C   UNL     1       2.148   7.732  19.747  0.00  0.00    +0.000 A 
ATOM     20  C   UNL     1       1.523   7.826  20.972  0.00  0.00    +0.000 A 
ATOM     21  C   UNL     1       0.660   8.947  20.897  0.00  0.00    +0.000 A 
ATOM     22  N   UNL     1       0.800   9.560  19.707  0.00  0.00    +0.000 NA
ATOM     23  N   UNL     1       1.678   8.796  19.024  0.00  0.00    +0.000 N 
ATOM     24  C   UNL     1       1.969   9.147  17.653  0.00  0.00    +0.000 C 
BRANCH  19  25
ATOM     25  C   UNL     1       3.045   6.656  19.245  0.00  0.00    +0.000 C 
BRANCH  25  29
ATOM     26  N   UNL     1       2.625   3.416  17.412  0.00  0.00    +0.000 NA
ATOM     27  C   UNL     1       1.503   4.286  17.858  0.00  0.00    +0.000 C 
ATOM     28  C   UNL     1       1.539   4.700  19.352  0.00  0.00    +0.000 C 
ATOM     29  N   UNL     1       2.807   5.316  19.807  0.00  0.00    +0.000 NA
ATOM     30  C   UNL     1       3.909   4.412  19.378  0.00  0.00    +0.000 C 
ATOM     31  C   UNL     1       3.884   4.045  17.870  0.00  0.00    +0.000 C 
BRANCH  26  33
ATOM     32  C   UNL     1       3.783   1.444  18.408  0.00  0.00    +0.000 C 
ATOM     33  C   UNL     1       2.469   2.001  17.830  0.00  0.00    +0.000 C 
ATOM     34  C   UNL     1       1.399   1.801  18.922  0.00  0.00    +0.000 C 
ENDBRANCH  26  33
ENDBRANCH  25  29
ENDBRANCH  19  25
ENDBRANCH   1  21
TORSDOF 5
ENDMDL
MODEL 4
REMARK VINA RESULT:      -7.4      1.253      2.129
REMARK  Name = 
REMARK  8 active torsions:
REMARK  status: ('A' for Active; 'I' for Inactive)
REMARK    1  A    between atoms: C_1  and  C_2
REMARK    2  A    between atoms: C_2  and  C_3
REMARK    3  A    between atoms: C_2  and  N_4
REMARK    4  A    between atoms: N_7  and  C_8
REMARK    5  A    between atoms: C_8  and  C_9
REMARK    6  A    between atoms: C_11  and  C_12
REMARK    7  A    between atoms: C_16  and  N_17
REMARK    8  A    between atoms: N_29  and  C_30
REMARK                            x       y       z     vdW  Elec       q    Type
REMARK                         _______ _______ _______ _____ _____    ______ ____
ROOT
ATOM      1  C   UNL     1       0.949   9.795  21.144  0.00  0.00    +0.000 C 
ATOM      2  O   UNL     1       0.682   9.933  22.339  0.00  0.00    +0.000 OA
ATOM      3  N   UNL     1       0.923  10.868  20.274  0.00  0.00    +0.000 N 
ATOM      4  C   UNL     1       0.421  12.192  20.573  0.00  0.00    +0.000 C 
ATOM      5  C   UNL     1      -0.166  12.243  19.149  0.00  0.00    +0.000 C 
ATOM      6  C   UNL     1       0.551  10.909  18.869  0.00  0.00    +0.000 C 
ENDROOT
BRANCH   5   7
ATOM      7  N   UNL     1      -1.606  12.173  19.161  0.00  0.00    +0.000 N 
ATOM      8  C   UNL     1      -2.357  12.483  20.264  0.00  0.00    +0.000 A 
ATOM      9  N   UNL     1      -3.643  12.306  20.051  0.00  0.00    +0.000 NA
ATOM     10  C   UNL     1      -3.722  11.859  18.742  0.00  0.00    +0.000 A 
ATOM     11  C   UNL     1      -4.811  11.493  17.934  0.00  0.00    +0.000 A 
ATOM     12  N   UNL     1      -6.128  11.535  18.369  0.00  0.00    +0.000 N 
ATOM     13  N   UNL     1      -4.569  11.054  16.678  0.00  0.00    +0.000 NA
ATOM     14  C   UNL     1      -3.288  11.008  16.252  0.00  0.00    +0.000 A 
ATOM     15  N   UNL     1      -2.176  11.351  16.927  0.00  0.00    +0.000 NA
ATOM     16  C   UNL     1      -2.462  11.764  18.171  0.00  0.00    +0.000 A 
ATOM     17  H   UNL     1      -6.219  11.515  19.377  0.00  0.00    +0.000 HD
ATOM     18  H   UNL     1      -6.715  10.911  17.833  0.00  0.00    +0.000 HD
ENDBRANCH   5   7
BRANCH   1  21
ATOM     19  C   UNL     1       2.163   6.927  19.213  0.00  0.00    +0.000 A 
ATOM     20  C   UNL     1       1.866   8.271  19.300  0.00  0.00    +0.000 A 
ATOM     21  C   UNL     1       1.348   8.483  20.602  0.00  0.00    +0.000 A 
ATOM     22  N   UNL     1       1.261   7.313  21.261  0.00  0.00    +0.000 NA
ATOM     23  N   UNL     1       1.782   6.398  20.417  0.00  0.00    +0.000 N 
ATOM     24  C   UNL     1       1.916   5.037  20.881  0.00  0.00    +0.000 C 
BRANCH  19  25
ATOM     25  C   UNL     1       2.858   6.202  18.115  0.00  0.00    +0.000 C 
BRANCH  25  29
ATOM     26  N   UNL     1       5.296   4.546  15.802  0.00  0.00    +0.000 NA
ATOM     27  C   UNL     1       4.478   3.832  16.819  0.00  0.00    +0.000 C 
ATOM     28  C   UNL     1       4.555   4.411  18.257  0.00  0.00    +0.000 C 
ATOM     29  N   UNL     1       4.267   5.860  18.370  0.00  0.00    +0.000 NA
ATOM     30  C   UNL     1       5.120   6.554  17.367  0.00  0.00    +0.000 C 
ATOM     31  C   UNL     1       4.997   5.991  15.925  0.00  0.00    +0.000 C 
BRANCH  26  33
ATOM     32  C   UNL     1       7.534   4.939  14.773  0.00  0.00    +0.000 C 
ATOM     33  C   UNL     1       6.741   4.220  15.880  0.00  0.00    +0.000 C 
ATOM     34  C   UNL     1       7.390   4.636  17.215  0.00  0.00    +0.000 C 
ENDBRANCH  26  33
ENDBRANCH  25  29
ENDBRANCH  19  25
ENDBRANCH   1  21
TORSDOF 5
ENDMDL
MODEL 5
REMARK VINA RESULT:      -7.4      2.586      4.154
REMARK  Name = 
REMARK  8 active torsions:
REMARK  status: ('A' for Active; 'I' for Inactive)
REMARK    1  A    between atoms: C_1  and  C_2
REMARK    2  A    between atoms: C_2  and  C_3
REMARK    3  A    between atoms: C_2  and  N_4
REMARK    4  A    between atoms: N_7  and  C_8
REMARK    5  A    between atoms: C_8  and  C_9
REMARK    6  A    between atoms: C_11  and  C_12
REMARK    7  A    between atoms: C_16  and  N_17
REMARK    8  A    between atoms: N_29  and  C_30
REMARK                            x       y       z     vdW  Elec       q    Type
REMARK                         _______ _______ _______ _____ _____    ______ ____
ROOT
ATOM      1  C   UNL     1      -0.503  10.370  22.269  0.00  0.00    +0.000 C 
ATOM      2  O   UNL     1      -0.882   9.736  23.256  0.00  0.00    +0.000 OA
ATOM      3  N   UNL     1      -0.813  11.707  22.112  0.00  0.00    +0.000 N 
ATOM      4  C   UNL     1      -1.732  12.468  22.932  0.00  0.00    +0.000 C 
ATOM      5  C   UNL     1      -2.205  13.188  21.655  0.00  0.00    +0.000 C 
ATOM      6  C   UNL     1      -1.082  12.457  20.897  0.00  0.00    +0.000 C 
ENDROOT
BRANCH   5   7
ATOM      7  N   UNL     1      -3.544  12.800  21.287  0.00  0.00    +0.000 N 
ATOM      8  C   UNL     1      -4.602  12.860  22.156  0.00  0.00    +0.000 A 
ATOM      9  N   UNL     1      -5.714  12.416  21.610  0.00  0.00    +0.000 NA
ATOM     10  C   UNL     1      -5.353  12.053  20.324  0.00  0.00    +0.000 A 
ATOM     11  C   UNL     1      -6.084  11.509  19.255  0.00  0.00    +0.000 A 
ATOM     12  N   UNL     1      -7.441  11.229  19.329  0.00  0.00    +0.000 N 
ATOM     13  N   UNL     1      -5.436  11.221  18.104  0.00  0.00    +0.000 NA
ATOM     14  C   UNL     1      -4.114  11.489  18.030  0.00  0.00    +0.000 A 
ATOM     15  N   UNL     1      -3.321  12.024  18.975  0.00  0.00    +0.000 NA
ATOM     16  C   UNL     1      -4.002  12.279  20.104  0.00  0.00    +0.000 A 
ATOM     17  H   UNL     1      -7.779  11.121  20.277  0.00  0.00    +0.000 HD
ATOM     18  H   UNL     1      -7.712  10.528  18.653  0.00  0.00    +0.000 HD
ENDBRANCH   5   7
BRANCH   1  21
ATOM     19  C   UNL     1       1.708   8.290  20.216  0.00  0.00    +0.000 A 
ATOM     20  C   UNL     1       1.144   8.592  21.438  0.00  0.00    +0.000 A 
ATOM     21  C   UNL     1       0.331   9.734  21.233  0.00  0.00    +0.000 A 
ATOM     22  N   UNL     1       0.445  10.161  19.961  0.00  0.00    +0.000 NA
ATOM     23  N   UNL     1       1.255   9.261  19.364  0.00  0.00    +0.000 N 
ATOM     24  C   UNL     1       1.498   9.395  17.946  0.00  0.00    +0.000 C 
BRANCH  19  25
ATOM     25  C   UNL     1       2.530   7.107  19.843  0.00  0.00    +0.000 C 
BRANCH  25  29
ATOM     26  N   UNL     1       3.486   3.521  19.332  0.00  0.00    +0.000 NA
ATOM     27  C   UNL     1       3.869   4.635  18.424  0.00  0.00    +0.000 C 
ATOM     28  C   UNL     1       2.698   5.534  17.946  0.00  0.00    +0.000 C 
ATOM     29  N   UNL     1       1.849   6.091  19.024  0.00  0.00    +0.000 NA
ATOM     30  C   UNL     1       1.453   4.954  19.899  0.00  0.00    +0.000 C 
ATOM     31  C   UNL     1       2.642   4.093  20.405  0.00  0.00    +0.000 C 
BRANCH  26  33
ATOM     32  C   UNL     1       3.873   1.221  18.449  0.00  0.00    +0.000 C 
ATOM     33  C   UNL     1       2.868   2.375  18.622  0.00  0.00    +0.000 C 
ATOM     34  C   UNL     1       1.653   1.781  19.362  0.00  0.00    +0.000 C 
ENDBRANCH  26  33
ENDBRANCH  25  29
ENDBRANCH  19  25
ENDBRANCH   1  21
TORSDOF 5
ENDMDL
MODEL 6
REMARK VINA RESULT:      -7.3      2.792      4.229
REMARK  Name = 
REMARK  8 active torsions:
REMARK  status: ('A' for Active; 'I' for Inactive)
REMARK    1  A    between atoms: C_1  and  C_2
REMARK    2  A    between atoms: C_2  and  C_3
REMARK    3  A    between atoms: C_2  and  N_4
REMARK    4  A    between atoms: N_7  and  C_8
REMARK    5  A    between atoms: C_8  and  C_9
REMARK    6  A    between atoms: C_11  and  C_12
REMARK    7  A    between atoms: C_16  and  N_17
REMARK    8  A    between atoms: N_29  and  C_30
REMARK                            x       y       z     vdW  Elec       q    Type
REMARK                         _______ _______ _______ _____ _____    ______ ____
ROOT
ATOM      1  C   UNL     1      -0.337   9.853  22.126  0.00  0.00    +0.000 C 
ATOM      2  O   UNL     1      -0.841   9.096  22.958  0.00  0.00    +0.000 OA
ATOM      3  N   UNL     1      -0.514  11.221  22.198  0.00  0.00    +0.000 N 
ATOM      4  C   UNL     1      -1.419  11.914  23.091  0.00  0.00    +0.000 C 
ATOM      5  C   UNL     1      -1.732  12.891  21.941  0.00  0.00    +0.000 C 
ATOM      6  C   UNL     1      -0.625  12.196  21.127  0.00  0.00    +0.000 C 
ENDROOT
BRANCH   5   7
ATOM      7  N   UNL     1      -3.069  12.711  21.435  0.00  0.00    +0.000 N 
ATOM      8  C   UNL     1      -3.351  12.610  20.098  0.00  0.00    +0.000 A 
ATOM      9  N   UNL     1      -4.642  12.493  19.873  0.00  0.00    +0.000 NA
ATOM     10  C   UNL     1      -5.220  12.519  21.132  0.00  0.00    +0.000 A 
ATOM     11  C   UNL     1      -6.555  12.441  21.560  0.00  0.00    +0.000 A 
ATOM     12  N   UNL     1      -7.625  12.299  20.688  0.00  0.00    +0.000 N 
ATOM     13  N   UNL     1      -6.820  12.531  22.883  0.00  0.00    +0.000 NA
ATOM     14  C   UNL     1      -5.782  12.671  23.735  0.00  0.00    +0.000 A 
ATOM     15  N   UNL     1      -4.471  12.737  23.442  0.00  0.00    +0.000 NA
ATOM     16  C   UNL     1      -4.256  12.660  22.120  0.00  0.00    +0.000 A 
ATOM     17  H   UNL     1      -7.415  12.595  19.742  0.00  0.00    +0.000 HD
ATOM     18  H   UNL     1      -8.486  12.629  21.100  0.00  0.00    +0.000 HD
ENDBRANCH   5   7
BRANCH   1  21
ATOM     19  C   UNL     1       1.965   8.043  19.923  0.00  0.00    +0.000 A 
ATOM     20  C   UNL     1       1.421   8.250  21.173  0.00  0.00    +0.000 A 
ATOM     21  C   UNL     1       0.511   9.329  21.040  0.00  0.00    +0.000 A 
ATOM     22  N   UNL     1       0.547   9.812  19.784  0.00  0.00    +0.000 NA
ATOM     23  N   UNL     1       1.406   9.006  19.126  0.00  0.00    +0.000 N 
ATOM     24  C   UNL     1       1.590   9.213  17.708  0.00  0.00    +0.000 C 
BRANCH  19  25
ATOM     25  C   UNL     1       2.868   6.947  19.477  0.00  0.00    +0.000 C 
BRANCH  25  29
ATOM     26  N   UNL     1       3.601   3.288  19.805  0.00  0.00    +0.000 NA
ATOM     27  C   UNL     1       4.172   4.173  18.754  0.00  0.00    +0.000 C 
ATOM     28  C   UNL     1       3.137   5.014  17.961  0.00  0.00    +0.000 C 
ATOM     29  N   UNL     1       2.212   5.822  18.790  0.00  0.00    +0.000 NA
ATOM     30  C   UNL     1       1.630   4.908  19.811  0.00  0.00    +0.000 C 
ATOM     31  C   UNL     1       2.682   4.108  20.626  0.00  0.00    +0.000 C 
BRANCH  26  33
ATOM     32  C   UNL     1       1.447   2.135  19.301  0.00  0.00    +0.000 C 
ATOM     33  C   UNL     1       2.984   2.054  19.258  0.00  0.00    +0.000 C 
ATOM     34  C   UNL     1       3.361   1.783  17.787  0.00  0.00    +0.000 C 
ENDBRANCH  26  33
ENDBRANCH  25  29
ENDBRANCH  19  25
ENDBRANCH   1  21
TORSDOF 5
ENDMDL
MODEL 7
REMARK VINA RESULT:      -7.2      2.559      4.353
REMARK  Name = 
REMARK  8 active torsions:
REMARK  status: ('A' for Active; 'I' for Inactive)
REMARK    1  A    between atoms: C_1  and  C_2
REMARK    2  A    between atoms: C_2  and  C_3
REMARK    3  A    between atoms: C_2  and  N_4
REMARK    4  A    between atoms: N_7  and  C_8
REMARK    5  A    between atoms: C_8  and  C_9
REMARK    6  A    between atoms: C_11  and  C_12
REMARK    7  A    between atoms: C_16  and  N_17
REMARK    8  A    between atoms: N_29  and  C_30
REMARK                            x       y       z     vdW  Elec       q    Type
REMARK                         _______ _______ _______ _____ _____    ______ ____
ROOT
ATOM      1  C   UNL     1      -0.465  10.485  22.155  0.00  0.00    +0.000 C 
ATOM      2  O   UNL     1      -0.779   9.723  23.071  0.00  0.00    +0.000 OA
ATOM      3  N   UNL     1      -0.836  11.816  22.169  0.00  0.00    +0.000 N 
ATOM      4  C   UNL     1      -1.753  12.433  23.103  0.00  0.00    +0.000 C 
ATOM      5  C   UNL     1      -2.304  13.275  21.937  0.00  0.00    +0.000 C 
ATOM      6  C   UNL     1      -1.181  12.691  21.061  0.00  0.00    +0.000 C 
ENDROOT
BRANCH   5   7
ATOM      7  N   UNL     1      -3.639  12.873  21.569  0.00  0.00    +0.000 N 
ATOM      8  C   UNL     1      -4.693  12.906  22.444  0.00  0.00    +0.000 A 
ATOM      9  N   UNL     1      -5.802  12.454  21.897  0.00  0.00    +0.000 NA
ATOM     10  C   UNL     1      -5.441  12.113  20.604  0.00  0.00    +0.000 A 
ATOM     11  C   UNL     1      -6.169  11.573  19.531  0.00  0.00    +0.000 A 
ATOM     12  N   UNL     1      -7.521  11.272  19.607  0.00  0.00    +0.000 N 
ATOM     13  N   UNL     1      -5.521  11.310  18.374  0.00  0.00    +0.000 NA
ATOM     14  C   UNL     1      -4.205  11.599  18.297  0.00  0.00    +0.000 A 
ATOM     15  N   UNL     1      -3.415  12.132  19.247  0.00  0.00    +0.000 NA
ATOM     16  C   UNL     1      -4.094  12.361  20.381  0.00  0.00    +0.000 A 
ATOM     17  H   UNL     1      -7.853  11.147  20.555  0.00  0.00    +0.000 HD
ATOM     18  H   UNL     1      -7.785  10.577  18.923  0.00  0.00    +0.000 HD
ENDBRANCH   5   7
BRANCH   1  21
ATOM     19  C   UNL     1       1.502   8.656  19.662  0.00  0.00    +0.000 A 
ATOM     20  C   UNL     1       0.833   8.690  20.868  0.00  0.00    +0.000 A 
ATOM     21  C   UNL     1       0.355  10.015  21.023  0.00  0.00    +0.000 A 
ATOM     22  N   UNL     1       0.771  10.781  19.998  0.00  0.00    +0.000 NA
ATOM     23  N   UNL     1       1.434   9.936  19.180  0.00  0.00    +0.000 N 
ATOM     24  C   UNL     1       1.930  10.448  17.923  0.00  0.00    +0.000 C 
BRANCH  19  25
ATOM     25  C   UNL     1       2.073   7.479  18.954  0.00  0.00    +0.000 C 
BRANCH  25  29
ATOM     26  N   UNL     1       2.689   3.817  18.462  0.00  0.00    +0.000 NA
ATOM     27  C   UNL     1       1.633   4.385  19.343  0.00  0.00    +0.000 C 
ATOM     28  C   UNL     1       2.121   5.448  20.361  0.00  0.00    +0.000 C 
ATOM     29  N   UNL     1       2.890   6.573  19.780  0.00  0.00    +0.000 NA
ATOM     30  C   UNL     1       3.957   5.980  18.931  0.00  0.00    +0.000 C 
ATOM     31  C   UNL     1       3.446   4.951  17.887  0.00  0.00    +0.000 C 
BRANCH  26  33
ATOM     32  C   UNL     1       3.015   2.508  20.561  0.00  0.00    +0.000 C 
ATOM     33  C   UNL     1       3.537   2.807  19.143  0.00  0.00    +0.000 C 
ATOM     34  C   UNL     1       3.586   1.453  18.407  0.00  0.00    +0.000 C 
ENDBRANCH  26  33
ENDBRANCH  25  29
ENDBRANCH  19  25
ENDBRANCH   1  21
TORSDOF 5
ENDMDL
MODEL 8
REMARK VINA RESULT:      -7.1      2.971      4.650
REMARK  Name = 
REMARK  8 active torsions:
REMARK  status: ('A' for Active; 'I' for Inactive)
REMARK    1  A    between atoms: C_1  and  C_2
REMARK    2  A    between atoms: C_2  and  C_3
REMARK    3  A    between atoms: C_2  and  N_4
REMARK    4  A    between atoms: N_7  and  C_8
REMARK    5  A    between atoms: C_8  and  C_9
REMARK    6  A    between atoms: C_11  and  C_12
REMARK    7  A    between atoms: C_16  and  N_17
REMARK    8  A    between atoms: N_29  and  C_30
REMARK                            x       y       z     vdW  Elec       q    Type
REMARK                         _______ _______ _______ _____ _____    ______ ____
ROOT
ATOM      1  C   UNL     1      -0.371  10.207  22.173  0.00  0.00    +0.000 C 
ATOM      2  O   UNL     1      -0.776   9.465  23.069  0.00  0.00    +0.000 OA
ATOM      3  N   UNL     1      -0.612  11.567  22.200  0.00  0.00    +0.000 N 
ATOM      4  C   UNL     1      -1.488  12.255  23.125  0.00  0.00    +0.000 C 
ATOM      5  C   UNL     1      -1.929  13.163  21.961  0.00  0.00    +0.000 C 
ATOM      6  C   UNL     1      -0.848  12.486  21.099  0.00  0.00    +0.000 C 
ENDROOT
BRANCH   5   7
ATOM      7  N   UNL     1      -3.288  12.896  21.559  0.00  0.00    +0.000 N 
ATOM      8  C   UNL     1      -3.671  12.802  20.247  0.00  0.00    +0.000 A 
ATOM      9  N   UNL     1      -4.964  12.595  20.125  0.00  0.00    +0.000 NA
ATOM     10  C   UNL     1      -5.437  12.552  21.426  0.00  0.00    +0.000 A 
ATOM     11  C   UNL     1      -6.723  12.367  21.957  0.00  0.00    +0.000 A 
ATOM     12  N   UNL     1      -7.849  12.165  21.171  0.00  0.00    +0.000 N 
ATOM     13  N   UNL     1      -6.884  12.409  23.299  0.00  0.00    +0.000 NA
ATOM     14  C   UNL     1      -5.792  12.608  24.069  0.00  0.00    +0.000 A 
ATOM     15  N   UNL     1      -4.517  12.776  23.673  0.00  0.00    +0.000 NA
ATOM     16  C   UNL     1      -4.408  12.743  22.336  0.00  0.00    +0.000 A 
ATOM     17  H   UNL     1      -7.739  12.496  20.220  0.00  0.00    +0.000 HD
ATOM     18  H   UNL     1      -8.694  12.422  21.661  0.00  0.00    +0.000 HD
ENDBRANCH   5   7
BRANCH   1  21
ATOM     19  C   UNL     1       1.669   8.288  19.809  0.00  0.00    +0.000 A 
ATOM     20  C   UNL     1       1.097   8.428  21.056  0.00  0.00    +0.000 A 
ATOM     21  C   UNL     1       0.426   9.676  21.051  0.00  0.00    +0.000 A 
ATOM     22  N   UNL     1       0.635  10.309  19.882  0.00  0.00    +0.000 NA
ATOM     23  N   UNL     1       1.360   9.444  19.143  0.00  0.00    +0.000 N 
ATOM     24  C   UNL     1       1.671   9.802  17.778  0.00  0.00    +0.000 C 
BRANCH  19  25
ATOM     25  C   UNL     1       2.367   7.104  19.239  0.00  0.00    +0.000 C 
BRANCH  25  29
ATOM     26  N   UNL     1       2.302   3.364  19.029  0.00  0.00    +0.000 NA
ATOM     27  C   UNL     1       1.273   4.189  19.717  0.00  0.00    +0.000 C 
ATOM     28  C   UNL     1       1.823   5.217  20.740  0.00  0.00    +0.000 C 
ATOM     29  N   UNL     1       2.870   6.128  20.220  0.00  0.00    +0.000 NA
ATOM     30  C   UNL     1       3.902   5.278  19.566  0.00  0.00    +0.000 C 
ATOM     31  C   UNL     1       3.339   4.285  18.512  0.00  0.00    +0.000 C 
BRANCH  26  33
ATOM     32  C   UNL     1       4.375   2.239  19.842  0.00  0.00    +0.000 C 
ATOM     33  C   UNL     1       2.835   2.269  19.877  0.00  0.00    +0.000 C 
ATOM     34  C   UNL     1       2.439   2.397  21.361  0.00  0.00    +0.000 C 
ENDBRANCH  26  33
ENDBRANCH  25  29
ENDBRANCH  19  25
ENDBRANCH   1  21
TORSDOF 5
ENDMDL
MODEL 9
REMARK VINA RESULT:      -7.1      5.942      8.471
REMARK  Name = 
REMARK  8 active torsions:
REMARK  status: ('A' for Active; 'I' for Inactive)
REMARK    1  A    between atoms: C_1  and  C_2
REMARK    2  A    between atoms: C_2  and  C_3
REMARK    3  A    between atoms: C_2  and  N_4
REMARK    4  A    between atoms: N_7  and  C_8
REMARK    5  A    between atoms: C_8  and  C_9
REMARK    6  A    between atoms: C_11  and  C_12
REMARK    7  A    between atoms: C_16  and  N_17
REMARK    8  A    between atoms: N_29  and  C_30
REMARK                            x       y       z     vdW  Elec       q    Type
REMARK                         _______ _______ _______ _____ _____    ______ ____
ROOT
ATOM      1  C   UNL     1       1.858  13.607  20.938  0.00  0.00    +0.000 C 
ATOM      2  O   UNL     1       1.092  13.729  21.896  0.00  0.00    +0.000 OA
ATOM      3  N   UNL     1       1.451  12.997  19.767  0.00  0.00    +0.000 N 
ATOM      4  C   UNL     1       0.208  12.282  19.569  0.00  0.00    +0.000 C 
ATOM      5  C   UNL     1       0.983  11.261  18.713  0.00  0.00    +0.000 C 
ATOM      6  C   UNL     1       2.213  12.179  18.838  0.00  0.00    +0.000 C 
ENDROOT
BRANCH   5   7
ATOM      7  N   UNL     1       1.101   9.987  19.376  0.00  0.00    +0.000 N 
ATOM      8  C   UNL     1       0.552   9.735  20.606  0.00  0.00    +0.000 A 
ATOM      9  N   UNL     1       0.825   8.518  21.028  0.00  0.00    +0.000 NA
ATOM     10  C   UNL     1       1.588   7.960  20.016  0.00  0.00    +0.000 A 
ATOM     11  C   UNL     1       2.185   6.697  19.871  0.00  0.00    +0.000 A 
ATOM     12  N   UNL     1       2.084   5.695  20.825  0.00  0.00    +0.000 N 
ATOM     13  N   UNL     1       2.916   6.448  18.760  0.00  0.00    +0.000 NA
ATOM     14  C   UNL     1       3.020   7.422  17.831  0.00  0.00    +0.000 A 
ATOM     15  N   UNL     1       2.478   8.653  17.854  0.00  0.00    +0.000 NA
ATOM     16  C   UNL     1       1.776   8.862  18.979  0.00  0.00    +0.000 A 
ATOM     17  H   UNL     1       1.854   6.040  21.748  0.00  0.00    +0.000 HD
ATOM     18  H   UNL     1       2.843   5.033  20.749  0.00  0.00    +0.000 HD
ENDBRANCH   5   7
BRANCH   1  21
ATOM     19  C   UNL     1       5.059  15.328  20.474  0.00  0.00    +0.000 A 
ATOM     20  C   UNL     1       3.790  15.024  20.030  0.00  0.00    +0.000 A 
ATOM     21  C   UNL     1       3.230  14.144  20.989  0.00  0.00    +0.000 A 
ATOM     22  N   UNL     1       4.137  13.861  21.942  0.00  0.00    +0.000 NA
ATOM     23  N   UNL     1       5.218  14.605  21.626  0.00  0.00    +0.000 N 
ATOM     24  C   UNL     1       6.347  14.591  22.527  0.00  0.00    +0.000 C 
BRANCH  19  25
ATOM     25  C   UNL     1       6.023  16.315  19.916  0.00  0.00    +0.000 C 
BRANCH  25  29
ATOM     26  N   UNL     1       9.480  15.158  19.055  0.00  0.00    +0.000 NA
ATOM     27  C   UNL     1       9.028  16.575  19.010  0.00  0.00    +0.000 C 
ATOM     28  C   UNL     1       7.728  16.830  18.203  0.00  0.00    +0.000 C 
ATOM     29  N   UNL     1       6.571  15.990  18.588  0.00  0.00    +0.000 NA
ATOM     30  C   UNL     1       7.039  14.578  18.594  0.00  0.00    +0.000 C 
ATOM     31  C   UNL     1       8.316  14.331  19.443  0.00  0.00    +0.000 C 
BRANCH  26  33
ATOM     32  C   UNL     1      11.626  15.137  17.783  0.00  0.00    +0.000 C 
ATOM     33  C   UNL     1      10.145  14.717  17.804  0.00  0.00    +0.000 C 
ATOM     34  C   UNL     1      10.127  13.188  17.609  0.00  0.00    +0.000 C 
ENDBRANCH  26  33
ENDBRANCH  25  29
ENDBRANCH  19  25
ENDBRANCH   1  21
TORSDOF 5
ENDMDL
