MODEL 1
REMARK VINA RESULT:      -7.9      0.000      0.000
REMARK  Name = 
REMARK  4 active torsions:
REMARK  status: ('A' for Active; 'I' for Inactive)
REMARK    1  A    between atoms: C_1  and  C_2
REMARK    2  A    between atoms: C_2  and  C_3
REMARK    3  A    between atoms: N_13  and  N_14
REMARK    4  A    between atoms: N_14  and  C_15
REMARK                            x       y       z     vdW  Elec       q    Type
REMARK                         _______ _______ _______ _____ _____    ______ ____
ROOT
ATOM      1  C   UNL     1       7.397   5.940  19.687  0.00  0.00    +0.000 C 
ATOM      2  C   UNL     1       6.472   5.582  18.526  0.00  0.00    +0.000 C 
ATOM      3  O   UNL     1       6.056   6.768  17.823  0.00  0.00    +0.000 OA
ATOM      4  C   UNL     1       6.107   6.494  16.487  0.00  0.00    +0.000 C 
ATOM      5  O   UNL     1       5.696   7.277  15.630  0.00  0.00    +0.000 OA
ATOM      6  N   UNL     1       6.751   5.321  16.258  0.00  0.00    +0.000 N 
ATOM      7  C   UNL     1       7.258   4.873  17.449  0.00  0.00    +0.000 C 
ATOM      8  O   UNL     1       8.167   4.084  17.676  0.00  0.00    +0.000 OA
ENDROOT
BRANCH   2   9
ATOM      9  C   UNL     1       5.237   4.838  19.001  0.00  0.00    +0.000 A 
ATOM     10  C   UNL     1       5.100   3.453  18.828  0.00  0.00    +0.000 A 
ATOM     11  C   UNL     1       3.965   2.800  19.305  0.00  0.00    +0.000 A 
ATOM     12  C   UNL     1       2.983   3.554  19.928  0.00  0.00    +0.000 A 
ATOM     13 BR   UNL     1       1.434   2.686  20.590  0.00  0.00    +0.000 Br
ATOM     14  N   UNL     1       3.072   4.888  20.098  0.00  0.00    +0.000 NA
ATOM     15  C   UNL     1       4.186   5.495  19.635  0.00  0.00    +0.000 A 
ENDBRANCH   2   9
BRANCH   6  16
ATOM     16  N   UNL     1       7.442   5.201  15.023  0.00  0.00    +0.000 N 
ATOM     17  H   UNL     1       7.763   6.131  14.722  0.00  0.00    +0.000 HD
BRANCH  16  18
ATOM     18  C   UNL     1       6.769   4.585  13.943  0.00  0.00    +0.000 A 
ATOM     19  C   UNL     1       7.475   4.442  12.739  0.00  0.00    +0.000 A 
ATOM     20  C   UNL     1       6.931   3.756  11.654  0.00  0.00    +0.000 A 
ATOM     21  C   UNL     1       5.681   3.158  11.773  0.00  0.00    +0.000 A 
ATOM     22  C   UNL     1       4.965   3.279  12.960  0.00  0.00    +0.000 A 
ATOM     23  C   UNL     1       5.508   3.988  14.032  0.00  0.00    +0.000 A 
ENDBRANCH  16  18
ENDBRANCH   6  16
TORSDOF 3
ENDMDL
MODEL 2
REMARK VINA RESULT:      -7.8      2.724      6.181
REMARK  Name = 
REMARK  4 active torsions:
REMARK  status: ('A' for Active; 'I' for Inactive)
REMARK    1  A    between atoms: C_1  and  C_2
REMARK    2  A    between atoms: C_2  and  C_3
REMARK    3  A    between atoms: N_13  and  N_14
REMARK    4  A    between atoms: N_14  and  C_15
REMARK                            x       y       z     vdW  Elec       q    Type
REMARK                         _______ _______ _______ _____ _____    ______ ____
ROOT
ATOM      1  C   UNL     1       7.464   6.982  17.415  0.00  0.00    +0.000 C 
ATOM      2  C   UNL     1       6.422   5.865  17.427  0.00  0.00    +0.000 C 
ATOM      3  O   UNL     1       6.737   4.887  18.437  0.00  0.00    +0.000 OA
ATOM      4  C   UNL     1       5.571   4.548  19.059  0.00  0.00    +0.000 C 
ATOM      5  O   UNL     1       5.499   3.644  19.892  0.00  0.00    +0.000 OA
ATOM      6  N   UNL     1       4.571   5.397  18.709  0.00  0.00    +0.000 N 
ATOM      7  C   UNL     1       5.110   6.400  17.948  0.00  0.00    +0.000 C 
ATOM      8  O   UNL     1       4.689   7.525  17.709  0.00  0.00    +0.000 OA
ENDROOT
BRANCH   2   9
ATOM      9  C   UNL     1       6.331   5.166  16.083  0.00  0.00    +0.000 A 
ATOM     10  C   UNL     1       5.172   4.486  15.683  0.00  0.00    +0.000 A 
ATOM     11  C   UNL     1       5.116   3.883  14.428  0.00  0.00    +0.000 A 
ATOM     12  C   UNL     1       6.231   3.959  13.609  0.00  0.00    +0.000 A 
ATOM     13 BR   UNL     1       6.175   3.152  11.896  0.00  0.00    +0.000 Br
ATOM     14  N   UNL     1       7.368   4.590  13.964  0.00  0.00    +0.000 NA
ATOM     15  C   UNL     1       7.394   5.174  15.181  0.00  0.00    +0.000 A 
ENDBRANCH   2   9
BRANCH   6  16
ATOM     16  N   UNL     1       3.549   5.612  19.671  0.00  0.00    +0.000 N 
ATOM     17  H   UNL     1       3.973   5.705  20.603  0.00  0.00    +0.000 HD
BRANCH  16  18
ATOM     18  C   UNL     1       2.498   4.667  19.746  0.00  0.00    +0.000 A 
ATOM     19  C   UNL     1       1.978   4.182  18.536  0.00  0.00    +0.000 A 
ATOM     20  C   UNL     1       1.015   3.175  18.512  0.00  0.00    +0.000 A 
ATOM     21  C   UNL     1       0.585   2.601  19.703  0.00  0.00    +0.000 A 
ATOM     22  C   UNL     1       1.092   3.061  20.915  0.00  0.00    +0.000 A 
ATOM     23  C   UNL     1       2.039   4.086  20.931  0.00  0.00    +0.000 A 
ENDBRANCH  16  18
ENDBRANCH   6  16
TORSDOF 3
ENDMDL
MODEL 3
REMARK VINA RESULT:      -7.7      2.730      6.126
REMARK  Name = 
REMARK  4 active torsions:
REMARK  status: ('A' for Active; 'I' for Inactive)
REMARK    1  A    between atoms: C_1  and  C_2
REMARK    2  A    between atoms: C_2  and  C_3
REMARK    3  A    between atoms: N_13  and  N_14
REMARK    4  A    between atoms: N_14  and  C_15
REMARK                            x       y       z     vdW  Elec       q    Type
REMARK                         _______ _______ _______ _____ _____    ______ ____
ROOT
ATOM      1  C   UNL     1       7.440   7.114  17.272  0.00  0.00    +0.000 C 
ATOM      2  C   UNL     1       6.415   5.981  17.303  0.00  0.00    +0.000 C 
ATOM      3  O   UNL     1       6.766   5.005  18.302  0.00  0.00    +0.000 OA
ATOM      4  C   UNL     1       5.619   4.647  18.948  0.00  0.00    +0.000 C 
ATOM      5  O   UNL     1       5.579   3.738  19.778  0.00  0.00    +0.000 OA
ATOM      6  N   UNL     1       4.599   5.481  18.622  0.00  0.00    +0.000 N 
ATOM      7  C   UNL     1       5.106   6.495  17.854  0.00  0.00    +0.000 C 
ATOM      8  O   UNL     1       4.665   7.615  17.629  0.00  0.00    +0.000 OA
ENDROOT
BRANCH   2   9
ATOM      9  C   UNL     1       6.306   5.286  15.958  0.00  0.00    +0.000 A 
ATOM     10  C   UNL     1       7.389   5.227  15.069  0.00  0.00    +0.000 A 
ATOM     11  C   UNL     1       7.258   4.553  13.856  0.00  0.00    +0.000 A 
ATOM     12  C   UNL     1       6.038   3.971  13.553  0.00  0.00    +0.000 A 
ATOM     13 BR   UNL     1       5.841   3.044  11.912  0.00  0.00    +0.000 Br
ATOM     14  N   UNL     1       4.971   4.020  14.374  0.00  0.00    +0.000 NA
ATOM     15  C   UNL     1       5.126   4.670  15.547  0.00  0.00    +0.000 A 
ENDBRANCH   2   9
BRANCH   6  16
ATOM     16  N   UNL     1       3.595   5.678  19.607  0.00  0.00    +0.000 N 
ATOM     17  H   UNL     1       4.037   5.760  20.532  0.00  0.00    +0.000 HD
BRANCH  16  18
ATOM     18  C   UNL     1       2.551   4.726  19.689  0.00  0.00    +0.000 A 
ATOM     19  C   UNL     1       2.035   4.228  18.484  0.00  0.00    +0.000 A 
ATOM     20  C   UNL     1       1.078   3.214  18.468  0.00  0.00    +0.000 A 
ATOM     21  C   UNL     1       0.653   2.646  19.664  0.00  0.00    +0.000 A 
ATOM     22  C   UNL     1       1.157   3.120  20.872  0.00  0.00    +0.000 A 
ATOM     23  C   UNL     1       2.096   4.151  20.880  0.00  0.00    +0.000 A 
ENDBRANCH  16  18
ENDBRANCH   6  16
TORSDOF 3
ENDMDL
MODEL 4
REMARK VINA RESULT:      -7.7      3.172      4.400
REMARK  Name = 
REMARK  4 active torsions:
REMARK  status: ('A' for Active; 'I' for Inactive)
REMARK    1  A    between atoms: C_1  and  C_2
REMARK    2  A    between atoms: C_2  and  C_3
REMARK    3  A    between atoms: N_13  and  N_14
REMARK    4  A    between atoms: N_14  and  C_15
REMARK                            x       y       z     vdW  Elec       q    Type
REMARK                         _______ _______ _______ _____ _____    ______ ____
ROOT
ATOM      1  C   UNL     1       1.330   4.011  19.909  0.00  0.00    +0.000 C 
ATOM      2  C   UNL     1       2.505   4.742  19.262  0.00  0.00    +0.000 C 
ATOM      3  O   UNL     1       3.707   4.557  20.034  0.00  0.00    +0.000 OA
ATOM      4  C   UNL     1       4.728   4.331  19.157  0.00  0.00    +0.000 C 
ATOM      5  O   UNL     1       5.905   4.253  19.512  0.00  0.00    +0.000 OA
ATOM      6  N   UNL     1       4.252   4.111  17.906  0.00  0.00    +0.000 N 
ATOM      7  C   UNL     1       2.885   4.053  17.973  0.00  0.00    +0.000 C 
ATOM      8  O   UNL     1       2.075   3.549  17.205  0.00  0.00    +0.000 OA
ENDROOT
BRANCH   2   9
ATOM      9  C   UNL     1       2.235   6.229  19.128  0.00  0.00    +0.000 A 
ATOM     10  C   UNL     1       2.343   6.889  17.895  0.00  0.00    +0.000 A 
ATOM     11  C   UNL     1       2.058   8.250  17.806  0.00  0.00    +0.000 A 
ATOM     12  C   UNL     1       1.688   8.924  18.959  0.00  0.00    +0.000 A 
ATOM     13 BR   UNL     1       1.289  10.773  18.859  0.00  0.00    +0.000 Br
ATOM     14  N   UNL     1       1.589   8.328  20.164  0.00  0.00    +0.000 NA
ATOM     15  C   UNL     1       1.862   7.007  20.222  0.00  0.00    +0.000 A 
ENDBRANCH   2   9
BRANCH   6  16
ATOM     16  N   UNL     1       5.026   3.267  17.066  0.00  0.00    +0.000 N 
ATOM     17  H   UNL     1       5.742   2.791  17.629  0.00  0.00    +0.000 HD
BRANCH  16  18
ATOM     18  C   UNL     1       5.653   3.848  15.938  0.00  0.00    +0.000 A 
ATOM     19  C   UNL     1       6.782   4.648  16.167  0.00  0.00    +0.000 A 
ATOM     20  C   UNL     1       7.525   5.176  15.112  0.00  0.00    +0.000 A 
ATOM     21  C   UNL     1       7.174   4.873  13.801  0.00  0.00    +0.000 A 
ATOM     22  C   UNL     1       6.062   4.075  13.550  0.00  0.00    +0.000 A 
ATOM     23  C   UNL     1       5.311   3.570  14.611  0.00  0.00    +0.000 A 
ENDBRANCH  16  18
ENDBRANCH   6  16
TORSDOF 3
ENDMDL
MODEL 5
REMARK VINA RESULT:      -7.7      0.275      1.054
REMARK  Name = 
REMARK  4 active torsions:
REMARK  status: ('A' for Active; 'I' for Inactive)
REMARK    1  A    between atoms: C_1  and  C_2
REMARK    2  A    between atoms: C_2  and  C_3
REMARK    3  A    between atoms: N_13  and  N_14
REMARK    4  A    between atoms: N_14  and  C_15
REMARK                            x       y       z     vdW  Elec       q    Type
REMARK                         _______ _______ _______ _____ _____    ______ ____
ROOT
ATOM      1  C   UNL     1       7.346   5.929  19.455  0.00  0.00    +0.000 C 
ATOM      2  C   UNL     1       6.401   5.583  18.306  0.00  0.00    +0.000 C 
ATOM      3  O   UNL     1       5.942   6.779  17.647  0.00  0.00    +0.000 OA
ATOM      4  C   UNL     1       5.968   6.543  16.303  0.00  0.00    +0.000 C 
ATOM      5  O   UNL     1       5.518   7.341  15.479  0.00  0.00    +0.000 OA
ATOM      6  N   UNL     1       6.631   5.392  16.026  0.00  0.00    +0.000 N 
ATOM      7  C   UNL     1       7.176   4.922  17.191  0.00  0.00    +0.000 C 
ATOM      8  O   UNL     1       8.107   4.148  17.374  0.00  0.00    +0.000 OA
ENDROOT
BRANCH   2   9
ATOM      9  C   UNL     1       5.195   4.798  18.788  0.00  0.00    +0.000 A 
ATOM     10  C   UNL     1       4.989   3.462  18.417  0.00  0.00    +0.000 A 
ATOM     11  C   UNL     1       3.885   2.765  18.905  0.00  0.00    +0.000 A 
ATOM     12  C   UNL     1       3.002   3.430  19.739  0.00  0.00    +0.000 A 
ATOM     13 BR   UNL     1       1.498   2.499  20.420  0.00  0.00    +0.000 Br
ATOM     14  N   UNL     1       3.157   4.717  20.106  0.00  0.00    +0.000 NA
ATOM     15  C   UNL     1       4.239   5.368  19.627  0.00  0.00    +0.000 A 
ENDBRANCH   2   9
BRANCH   6  16
ATOM     16  N   UNL     1       7.295   5.323  14.772  0.00  0.00    +0.000 N 
ATOM     17  H   UNL     1       7.381   6.270  14.380  0.00  0.00    +0.000 HD
BRANCH  16  18
ATOM     18  C   UNL     1       6.753   4.472  13.780  0.00  0.00    +0.000 A 
ATOM     19  C   UNL     1       5.421   4.062  13.939  0.00  0.00    +0.000 A 
ATOM     20  C   UNL     1       4.772   3.309  12.962  0.00  0.00    +0.000 A 
ATOM     21  C   UNL     1       5.434   2.991  11.781  0.00  0.00    +0.000 A 
ATOM     22  C   UNL     1       6.754   3.393  11.599  0.00  0.00    +0.000 A 
ATOM     23  C   UNL     1       7.404   4.127  12.592  0.00  0.00    +0.000 A 
ENDBRANCH  16  18
ENDBRANCH   6  16
TORSDOF 3
ENDMDL
MODEL 6
REMARK VINA RESULT:      -7.6      2.760      6.291
REMARK  Name = 
REMARK  4 active torsions:
REMARK  status: ('A' for Active; 'I' for Inactive)
REMARK    1  A    between atoms: C_1  and  C_2
REMARK    2  A    between atoms: C_2  and  C_3
REMARK    3  A    between atoms: N_13  and  N_14
REMARK    4  A    between atoms: N_14  and  C_15
REMARK                            x       y       z     vdW  Elec       q    Type
REMARK                         _______ _______ _______ _____ _____    ______ ____
ROOT
ATOM      1  C   UNL     1       7.290   7.298  17.316  0.00  0.00    +0.000 C 
ATOM      2  C   UNL     1       6.371   6.078  17.309  0.00  0.00    +0.000 C 
ATOM      3  O   UNL     1       6.756   5.146  18.337  0.00  0.00    +0.000 OA
ATOM      4  C   UNL     1       5.613   4.690  18.928  0.00  0.00    +0.000 C 
ATOM      5  O   UNL     1       5.612   3.789  19.767  0.00  0.00    +0.000 OA
ATOM      6  N   UNL     1       4.541   5.426  18.539  0.00  0.00    +0.000 N 
ATOM      7  C   UNL     1       4.994   6.475  17.784  0.00  0.00    +0.000 C 
ATOM      8  O   UNL     1       4.465   7.549  17.522  0.00  0.00    +0.000 OA
ENDROOT
BRANCH   2   9
ATOM      9  C   UNL     1       6.396   5.365  15.969  0.00  0.00    +0.000 A 
ATOM     10  C   UNL     1       5.257   4.731  15.451  0.00  0.00    +0.000 A 
ATOM     11  C   UNL     1       5.310   4.113  14.203  0.00  0.00    +0.000 A 
ATOM     12  C   UNL     1       6.511   4.127  13.511  0.00  0.00    +0.000 A 
ATOM     13 BR   UNL     1       6.604   3.298  11.809  0.00  0.00    +0.000 Br
ATOM     14  N   UNL     1       7.629   4.712  13.983  0.00  0.00    +0.000 NA
ATOM     15  C   UNL     1       7.549   5.312  15.190  0.00  0.00    +0.000 A 
ENDBRANCH   2   9
BRANCH   6  16
ATOM     16  N   UNL     1       3.472   5.539  19.468  0.00  0.00    +0.000 N 
ATOM     17  H   UNL     1       3.854   5.724  20.404  0.00  0.00    +0.000 HD
BRANCH  16  18
ATOM     18  C   UNL     1       2.556   4.465  19.559  0.00  0.00    +0.000 A 
ATOM     19  C   UNL     1       2.135   4.082  20.841  0.00  0.00    +0.000 A 
ATOM     20  C   UNL     1       1.158   3.105  21.023  0.00  0.00    +0.000 A 
ATOM     21  C   UNL     1       0.547   2.524  19.917  0.00  0.00    +0.000 A 
ATOM     22  C   UNL     1       0.942   2.894  18.635  0.00  0.00    +0.000 A 
ATOM     23  C   UNL     1       1.938   3.856  18.462  0.00  0.00    +0.000 A 
ENDBRANCH  16  18
ENDBRANCH   6  16
TORSDOF 3
ENDMDL
MODEL 7
REMARK VINA RESULT:      -7.5      3.235      4.532
REMARK  Name = 
REMARK  4 active torsions:
REMARK  status: ('A' for Active; 'I' for Inactive)
REMARK    1  A    between atoms: C_1  and  C_2
REMARK    2  A    between atoms: C_2  and  C_3
REMARK    3  A    between atoms: N_13  and  N_14
REMARK    4  A    between atoms: N_14  and  C_15
REMARK                            x       y       z     vdW  Elec       q    Type
REMARK                         _______ _______ _______ _____ _____    ______ ____
ROOT
ATOM      1  C   UNL     1       1.247   4.198  20.059  0.00  0.00    +0.000 C 
ATOM      2  C   UNL     1       2.433   4.858  19.359  0.00  0.00    +0.000 C 
ATOM      3  O   UNL     1       3.644   4.660  20.114  0.00  0.00    +0.000 OA
ATOM      4  C   UNL     1       4.637   4.361  19.227  0.00  0.00    +0.000 C 
ATOM      5  O   UNL     1       5.817   4.254  19.561  0.00  0.00    +0.000 OA
ATOM      6  N   UNL     1       4.126   4.108  17.995  0.00  0.00    +0.000 N 
ATOM      7  C   UNL     1       2.760   4.104  18.092  0.00  0.00    +0.000 C 
ATOM      8  O   UNL     1       1.915   3.599  17.362  0.00  0.00    +0.000 OA
ENDROOT
BRANCH   2   9
ATOM      9  C   UNL     1       2.214   6.348  19.168  0.00  0.00    +0.000 A 
ATOM     10  C   UNL     1       2.414   6.969  17.927  0.00  0.00    +0.000 A 
ATOM     11  C   UNL     1       2.173   8.334  17.784  0.00  0.00    +0.000 A 
ATOM     12  C   UNL     1       1.756   9.050  18.894  0.00  0.00    +0.000 A 
ATOM     13 BR   UNL     1       1.416  10.906  18.721  0.00  0.00    +0.000 Br
ATOM     14  N   UNL     1       1.568   8.492  20.107  0.00  0.00    +0.000 NA
ATOM     15  C   UNL     1       1.799   7.166  20.217  0.00  0.00    +0.000 A 
ENDBRANCH   2   9
BRANCH   6  16
ATOM     16  N   UNL     1       4.851   3.203  17.175  0.00  0.00    +0.000 N 
ATOM     17  H   UNL     1       5.425   2.591  17.770  0.00  0.00    +0.000 HD
BRANCH  16  18
ATOM     18  C   UNL     1       5.672   3.741  16.157  0.00  0.00    +0.000 A 
ATOM     19  C   UNL     1       5.237   3.593  14.831  0.00  0.00    +0.000 A 
ATOM     20  C   UNL     1       5.926   4.180  13.771  0.00  0.00    +0.000 A 
ATOM     21  C   UNL     1       7.043   4.968  14.025  0.00  0.00    +0.000 A 
ATOM     22  C   UNL     1       7.489   5.135  15.332  0.00  0.00    +0.000 A 
ATOM     23  C   UNL     1       6.807   4.525  16.386  0.00  0.00    +0.000 A 
ENDBRANCH  16  18
ENDBRANCH   6  16
TORSDOF 3
ENDMDL
MODEL 8
REMARK VINA RESULT:      -7.4      0.899      1.547
REMARK  Name = 
REMARK  4 active torsions:
REMARK  status: ('A' for Active; 'I' for Inactive)
REMARK    1  A    between atoms: C_1  and  C_2
REMARK    2  A    between atoms: C_2  and  C_3
REMARK    3  A    between atoms: N_13  and  N_14
REMARK    4  A    between atoms: N_14  and  C_15
REMARK                            x       y       z     vdW  Elec       q    Type
REMARK                         _______ _______ _______ _____ _____    ______ ____
ROOT
ATOM      1  C   UNL     1       7.238   5.970  19.086  0.00  0.00    +0.000 C 
ATOM      2  C   UNL     1       6.265   5.563  17.981  0.00  0.00    +0.000 C 
ATOM      3  O   UNL     1       5.744   6.725  17.308  0.00  0.00    +0.000 OA
ATOM      4  C   UNL     1       5.731   6.454  15.971  0.00  0.00    +0.000 C 
ATOM      5  O   UNL     1       5.226   7.214  15.143  0.00  0.00    +0.000 OA
ATOM      6  N   UNL     1       6.423   5.319  15.699  0.00  0.00    +0.000 N 
ATOM      7  C   UNL     1       7.023   4.898  16.856  0.00  0.00    +0.000 C 
ATOM      8  O   UNL     1       7.986   4.160  17.025  0.00  0.00    +0.000 OA
ENDROOT
BRANCH   2   9
ATOM      9  C   UNL     1       5.104   4.752  18.526  0.00  0.00    +0.000 A 
ATOM     10  C   UNL     1       4.252   5.259  19.517  0.00  0.00    +0.000 A 
ATOM     11  C   UNL     1       3.178   4.496  19.970  0.00  0.00    +0.000 A 
ATOM     12  C   UNL     1       2.994   3.232  19.433  0.00  0.00    +0.000 A 
ATOM     13 BR   UNL     1       1.536   2.179  20.029  0.00  0.00    +0.000 Br
ATOM     14  N   UNL     1       3.800   2.704  18.491  0.00  0.00    +0.000 NA
ATOM     15  C   UNL     1       4.828   3.467  18.062  0.00  0.00    +0.000 A 
ENDBRANCH   2   9
BRANCH   6  16
ATOM     16  N   UNL     1       7.044   5.238  14.425  0.00  0.00    +0.000 N 
ATOM     17  H   UNL     1       7.031   6.165  13.980  0.00  0.00    +0.000 HD
BRANCH  16  18
ATOM     18  C   UNL     1       6.545   4.289  13.502  0.00  0.00    +0.000 A 
ATOM     19  C   UNL     1       5.161   4.061  13.494  0.00  0.00    +0.000 A 
ATOM     20  C   UNL     1       4.568   3.222  12.552  0.00  0.00    +0.000 A 
ATOM     21  C   UNL     1       5.349   2.629  11.567  0.00  0.00    +0.000 A 
ATOM     22  C   UNL     1       6.724   2.847  11.549  0.00  0.00    +0.000 A 
ATOM     23  C   UNL     1       7.312   3.669  12.511  0.00  0.00    +0.000 A 
ENDBRANCH  16  18
ENDBRANCH   6  16
TORSDOF 3
ENDMDL
MODEL 9
REMARK VINA RESULT:      -7.4      3.172      4.445
REMARK  Name = 
REMARK  4 active torsions:
REMARK  status: ('A' for Active; 'I' for Inactive)
REMARK    1  A    between atoms: C_1  and  C_2
REMARK    2  A    between atoms: C_2  and  C_3
REMARK    3  A    between atoms: N_13  and  N_14
REMARK    4  A    between atoms: N_14  and  C_15
REMARK                            x       y       z     vdW  Elec       q    Type
REMARK                         _______ _______ _______ _____ _____    ______ ____
ROOT
ATOM      1  C   UNL     1       1.300   3.845  19.861  0.00  0.00    +0.000 C 
ATOM      2  C   UNL     1       2.478   4.599  19.249  0.00  0.00    +0.000 C 
ATOM      3  O   UNL     1       3.673   4.396  20.027  0.00  0.00    +0.000 OA
ATOM      4  C   UNL     1       4.704   4.200  19.155  0.00  0.00    +0.000 C 
ATOM      5  O   UNL     1       5.877   4.116  19.520  0.00  0.00    +0.000 OA
ATOM      6  N   UNL     1       4.242   4.015  17.892  0.00  0.00    +0.000 N 
ATOM      7  C   UNL     1       2.874   3.950  17.944  0.00  0.00    +0.000 C 
ATOM      8  O   UNL     1       2.074   3.466  17.153  0.00  0.00    +0.000 OA
ENDROOT
BRANCH   2   9
ATOM      9  C   UNL     1       2.204   6.089  19.155  0.00  0.00    +0.000 A 
ATOM     10  C   UNL     1       1.849   6.845  20.282  0.00  0.00    +0.000 A 
ATOM     11  C   UNL     1       1.634   8.217  20.162  0.00  0.00    +0.000 A 
ATOM     12  C   UNL     1       1.762   8.797  18.910  0.00  0.00    +0.000 A 
ATOM     13 BR   UNL     1       1.481  10.662  18.724  0.00  0.00    +0.000 Br
ATOM     14  N   UNL     1       2.086   8.101  17.802  0.00  0.00    +0.000 NA
ATOM     15  C   UNL     1       2.297   6.775  17.946  0.00  0.00    +0.000 A 
ENDBRANCH   2   9
BRANCH   6  16
ATOM     16  N   UNL     1       5.028   3.200  17.036  0.00  0.00    +0.000 N 
ATOM     17  H   UNL     1       5.742   2.711  17.593  0.00  0.00    +0.000 HD
BRANCH  16  18
ATOM     18  C   UNL     1       5.662   3.816  15.931  0.00  0.00    +0.000 A 
ATOM     19  C   UNL     1       6.799   4.595  16.191  0.00  0.00    +0.000 A 
ATOM     20  C   UNL     1       7.548   5.154  15.157  0.00  0.00    +0.000 A 
ATOM     21  C   UNL     1       7.196   4.904  13.835  0.00  0.00    +0.000 A 
ATOM     22  C   UNL     1       6.076   4.127  13.553  0.00  0.00    +0.000 A 
ATOM     23  C   UNL     1       5.318   3.590  14.595  0.00  0.00    +0.000 A 
ENDBRANCH  16  18
ENDBRANCH   6  16
TORSDOF 3
ENDMDL
