MODEL 1
REMARK VINA RESULT:      -6.0      0.000      0.000
REMARK  Name = 
REMARK  10 active torsions:
REMARK  status: ('A' for Active; 'I' for Inactive)
REMARK    1  A    between atoms: C_1  and  C_2
REMARK    2  A    between atoms: C_2  and  C_3
REMARK    3  A    between atoms: C_3  and  N_4
REMARK    4  A    between atoms: N_4  and  C_5
REMARK    5  A    between atoms: N_4  and  C_8
REMARK    6  A    between atoms: C_5  and  C_6
REMARK    7  A    between atoms: C_6  and  C_7
REMARK    8  A    between atoms: C_8  and  C_9
REMARK    9  A    between atoms: C_11  and  N_12
REMARK   10  A    between atoms: C_15  and  O_16
REMARK                            x       y       z     vdW  Elec       q    Type
REMARK                         _______ _______ _______ _____ _____    ______ ____
ROOT
ATOM      1  C   UNL     1       4.429   4.662  18.590  0.00  0.00    +0.000 A 
ATOM      2  C   UNL     1       4.086   3.303  18.699  0.00  0.00    +0.000 A 
ATOM      3  C   UNL     1       2.794   2.866  18.385  0.00  0.00    +0.000 A 
ATOM      4  C   UNL     1       1.835   3.792  17.957  0.00  0.00    +0.000 A 
ATOM      5  C   UNL     1       2.165   5.145  17.848  0.00  0.00    +0.000 A 
ATOM      6  C   UNL     1       3.459   5.588  18.162  0.00  0.00    +0.000 A 
ENDROOT
BRANCH   3   7
ATOM      7  N   UNL     1       2.461   1.491  18.495  0.00  0.00    +0.000 N 
ATOM      8  H   UNL     1       1.921   1.144  19.305  0.00  0.00    +0.000 HD
ATOM      9  H   UNL     1       2.754   0.820  17.772  0.00  0.00    +0.000 HD
ENDBRANCH   3   7
BRANCH   6  10
ATOM     10  O   UNL     1       3.776   6.896  18.046  0.00  0.00    +0.000 OA
ATOM     11  H   UNL     1       3.946   7.455  18.818  0.00  0.00    +0.000 HD
ENDBRANCH   6  10
BRANCH   1  12
ATOM     12  C   UNL     1       5.843   5.102  18.910  0.00  0.00    +0.000 C 
BRANCH  12  13
ATOM     13  N   UNL     1       6.568   5.669  17.739  0.00  0.00    +0.000 NA
BRANCH  13  14
ATOM     14  C   UNL     1       7.576   6.657  18.227  0.00  0.00    +0.000 C 
BRANCH  14  16
ATOM     15  C   UNL     1       8.402   9.048  18.203  0.00  0.00    +0.000 C 
ATOM     16  C   UNL     1       7.597   7.991  17.450  0.00  0.00    +0.000 C 
ENDBRANCH  14  16
ENDBRANCH  13  14
BRANCH  13  17
ATOM     17  C   UNL     1       7.222   4.573  16.967  0.00  0.00    +0.000 C 
BRANCH  17  18
ATOM     18  C   UNL     1       6.611   4.304  15.573  0.00  0.00    +0.000 C 
ATOM     19  C   UNL     1       5.618   5.384  15.146  0.00  0.00    +0.000 C 
ENDBRANCH  17  18
ENDBRANCH  13  17
ENDBRANCH  12  13
ENDBRANCH   1  12
TORSDOF 8
ENDMDL
MODEL 2
REMARK VINA RESULT:      -5.8      2.342      4.984
REMARK  Name = 
REMARK  10 active torsions:
REMARK  status: ('A' for Active; 'I' for Inactive)
REMARK    1  A    between atoms: C_1  and  C_2
REMARK    2  A    between atoms: C_2  and  C_3
REMARK    3  A    between atoms: C_3  and  N_4
REMARK    4  A    between atoms: N_4  and  C_5
REMARK    5  A    between atoms: N_4  and  C_8
REMARK    6  A    between atoms: C_5  and  C_6
REMARK    7  A    between atoms: C_6  and  C_7
REMARK    8  A    between atoms: C_8  and  C_9
REMARK    9  A    between atoms: C_11  and  N_12
REMARK   10  A    between atoms: C_15  and  O_16
REMARK                            x       y       z     vdW  Elec       q    Type
REMARK                         _______ _______ _______ _____ _____    ______ ____
ROOT
ATOM      1  C   UNL     1       5.030   4.240  17.906  0.00  0.00    +0.000 A 
ATOM      2  C   UNL     1       5.016   3.853  16.556  0.00  0.00    +0.000 A 
ATOM      3  C   UNL     1       6.161   3.992  15.761  0.00  0.00    +0.000 A 
ATOM      4  C   UNL     1       7.331   4.521  16.320  0.00  0.00    +0.000 A 
ATOM      5  C   UNL     1       7.354   4.911  17.661  0.00  0.00    +0.000 A 
ATOM      6  C   UNL     1       6.210   4.774  18.461  0.00  0.00    +0.000 A 
ENDROOT
BRANCH   3   7
ATOM      7  N   UNL     1       6.136   3.593  14.400  0.00  0.00    +0.000 N 
ATOM      8  H   UNL     1       5.499   4.053  13.729  0.00  0.00    +0.000 HD
ATOM      9  H   UNL     1       6.750   2.839  14.062  0.00  0.00    +0.000 HD
ENDBRANCH   3   7
BRANCH   6  10
ATOM     10  O   UNL     1       6.240   5.145  19.759  0.00  0.00    +0.000 OA
ATOM     11  H   UNL     1       6.421   6.056  20.031  0.00  0.00    +0.000 HD
ENDBRANCH   6  10
BRANCH   1  12
ATOM     12  C   UNL     1       3.786   4.052  18.749  0.00  0.00    +0.000 C 
BRANCH  12  13
ATOM     13  N   UNL     1       3.260   5.321  19.324  0.00  0.00    +0.000 NA
BRANCH  13  14
ATOM     14  C   UNL     1       2.498   6.052  18.269  0.00  0.00    +0.000 C 
BRANCH  14  16
ATOM     15  C   UNL     1       2.017   8.514  17.945  0.00  0.00    +0.000 C 
ATOM     16  C   UNL     1       3.087   7.425  17.885  0.00  0.00    +0.000 C 
ENDBRANCH  14  16
ENDBRANCH  13  14
BRANCH  13  17
ATOM     17  C   UNL     1       2.395   5.024  20.503  0.00  0.00    +0.000 C 
BRANCH  17  18
ATOM     18  C   UNL     1       1.283   3.982  20.248  0.00  0.00    +0.000 C 
ATOM     19  C   UNL     1       1.314   2.828  21.248  0.00  0.00    +0.000 C 
ENDBRANCH  17  18
ENDBRANCH  13  17
ENDBRANCH  12  13
ENDBRANCH   1  12
TORSDOF 8
ENDMDL
MODEL 3
REMARK VINA RESULT:      -5.8      2.112      5.448
REMARK  Name = 
REMARK  10 active torsions:
REMARK  status: ('A' for Active; 'I' for Inactive)
REMARK    1  A    between atoms: C_1  and  C_2
REMARK    2  A    between atoms: C_2  and  C_3
REMARK    3  A    between atoms: C_3  and  N_4
REMARK    4  A    between atoms: N_4  and  C_5
REMARK    5  A    between atoms: N_4  and  C_8
REMARK    6  A    between atoms: C_5  and  C_6
REMARK    7  A    between atoms: C_6  and  C_7
REMARK    8  A    between atoms: C_8  and  C_9
REMARK    9  A    between atoms: C_11  and  N_12
REMARK   10  A    between atoms: C_15  and  O_16
REMARK                            x       y       z     vdW  Elec       q    Type
REMARK                         _______ _______ _______ _____ _____    ______ ____
ROOT
ATOM      1  C   UNL     1       5.096   5.192  18.139  0.00  0.00    +0.000 A 
ATOM      2  C   UNL     1       5.970   5.460  19.206  0.00  0.00    +0.000 A 
ATOM      3  C   UNL     1       7.347   5.238  19.075  0.00  0.00    +0.000 A 
ATOM      4  C   UNL     1       7.856   4.746  17.867  0.00  0.00    +0.000 A 
ATOM      5  C   UNL     1       6.995   4.474  16.801  0.00  0.00    +0.000 A 
ATOM      6  C   UNL     1       5.615   4.695  16.928  0.00  0.00    +0.000 A 
ENDROOT
BRANCH   3   7
ATOM      7  N   UNL     1       8.220   5.517  20.157  0.00  0.00    +0.000 N 
ATOM      8  H   UNL     1       8.135   5.000  21.047  0.00  0.00    +0.000 HD
ATOM      9  H   UNL     1       8.948   6.240  20.073  0.00  0.00    +0.000 HD
ENDBRANCH   3   7
BRANCH   6  10
ATOM     10  O   UNL     1       4.787   4.439  15.892  0.00  0.00    +0.000 OA
ATOM     11  H   UNL     1       3.887   4.791  15.852  0.00  0.00    +0.000 HD
ENDBRANCH   6  10
BRANCH   1  12
ATOM     12  C   UNL     1       3.616   5.468  18.301  0.00  0.00    +0.000 C 
BRANCH  12  13
ATOM     13  N   UNL     1       2.866   4.344  18.928  0.00  0.00    +0.000 NA
BRANCH  13  14
ATOM     14  C   UNL     1       2.018   4.884  20.031  0.00  0.00    +0.000 C 
BRANCH  14  16
ATOM     15  C   UNL     1       1.801   2.908  21.596  0.00  0.00    +0.000 C 
ATOM     16  C   UNL     1       1.053   3.858  20.662  0.00  0.00    +0.000 C 
ENDBRANCH  14  16
ENDBRANCH  13  14
BRANCH  13  17
ATOM     17  C   UNL     1       2.035   3.653  17.900  0.00  0.00    +0.000 C 
BRANCH  17  18
ATOM     18  C   UNL     1       2.501   2.224  17.539  0.00  0.00    +0.000 C 
ATOM     19  C   UNL     1       3.539   1.677  18.518  0.00  0.00    +0.000 C 
ENDBRANCH  17  18
ENDBRANCH  13  17
ENDBRANCH  12  13
ENDBRANCH   1  12
TORSDOF 8
ENDMDL
MODEL 4
REMARK VINA RESULT:      -5.8      2.222      5.356
REMARK  Name = 
REMARK  10 active torsions:
REMARK  status: ('A' for Active; 'I' for Inactive)
REMARK    1  A    between atoms: C_1  and  C_2
REMARK    2  A    between atoms: C_2  and  C_3
REMARK    3  A    between atoms: C_3  and  N_4
REMARK    4  A    between atoms: N_4  and  C_5
REMARK    5  A    between atoms: N_4  and  C_8
REMARK    6  A    between atoms: C_5  and  C_6
REMARK    7  A    between atoms: C_6  and  C_7
REMARK    8  A    between atoms: C_8  and  C_9
REMARK    9  A    between atoms: C_11  and  N_12
REMARK   10  A    between atoms: C_15  and  O_16
REMARK                            x       y       z     vdW  Elec       q    Type
REMARK                         _______ _______ _______ _____ _____    ______ ____
ROOT
ATOM      1  C   UNL     1       5.034   5.411  17.627  0.00  0.00    +0.000 A 
ATOM      2  C   UNL     1       5.221   5.468  16.235  0.00  0.00    +0.000 A 
ATOM      3  C   UNL     1       6.458   5.140  15.667  0.00  0.00    +0.000 A 
ATOM      4  C   UNL     1       7.519   4.751  16.495  0.00  0.00    +0.000 A 
ATOM      5  C   UNL     1       7.343   4.694  17.880  0.00  0.00    +0.000 A 
ATOM      6  C   UNL     1       6.105   5.022  18.454  0.00  0.00    +0.000 A 
ENDROOT
BRANCH   3   7
ATOM      7  N   UNL     1       6.634   5.197  14.261  0.00  0.00    +0.000 N 
ATOM      8  H   UNL     1       5.821   5.302  13.634  0.00  0.00    +0.000 HD
ATOM      9  H   UNL     1       7.574   5.130  13.846  0.00  0.00    +0.000 HD
ENDBRANCH   3   7
BRANCH   6  10
ATOM     10  O   UNL     1       5.938   4.956  19.792  0.00  0.00    +0.000 OA
ATOM     11  H   UNL     1       5.072   5.067  20.210  0.00  0.00    +0.000 HD
ENDBRANCH   6  10
BRANCH   1  12
ATOM     12  C   UNL     1       3.677   5.745  18.211  0.00  0.00    +0.000 C 
BRANCH  12  13
ATOM     13  N   UNL     1       3.029   4.596  18.903  0.00  0.00    +0.000 NA
BRANCH  13  14
ATOM     14  C   UNL     1       2.339   5.096  20.129  0.00  0.00    +0.000 C 
BRANCH  14  16
ATOM     15  C   UNL     1       1.842   3.072  21.564  0.00  0.00    +0.000 C 
ATOM     16  C   UNL     1       1.241   4.160  20.676  0.00  0.00    +0.000 C 
ENDBRANCH  14  16
ENDBRANCH  13  14
BRANCH  13  17
ATOM     17  C   UNL     1       2.066   3.926  17.981  0.00  0.00    +0.000 C 
BRANCH  17  18
ATOM     18  C   UNL     1       2.541   2.567  17.419  0.00  0.00    +0.000 C 
ATOM     19  C   UNL     1       3.442   1.808  18.392  0.00  0.00    +0.000 C 
ENDBRANCH  17  18
ENDBRANCH  13  17
ENDBRANCH  12  13
ENDBRANCH   1  12
TORSDOF 8
ENDMDL
MODEL 5
REMARK VINA RESULT:      -5.8      2.116      5.239
REMARK  Name = 
REMARK  10 active torsions:
REMARK  status: ('A' for Active; 'I' for Inactive)
REMARK    1  A    between atoms: C_1  and  C_2
REMARK    2  A    between atoms: C_2  and  C_3
REMARK    3  A    between atoms: C_3  and  N_4
REMARK    4  A    between atoms: N_4  and  C_5
REMARK    5  A    between atoms: N_4  and  C_8
REMARK    6  A    between atoms: C_5  and  C_6
REMARK    7  A    between atoms: C_6  and  C_7
REMARK    8  A    between atoms: C_8  and  C_9
REMARK    9  A    between atoms: C_11  and  N_12
REMARK   10  A    between atoms: C_15  and  O_16
REMARK                            x       y       z     vdW  Elec       q    Type
REMARK                         _______ _______ _______ _____ _____    ______ ____
ROOT
ATOM      1  C   UNL     1       4.889   3.965  17.224  0.00  0.00    +0.000 A 
ATOM      2  C   UNL     1       5.275   4.308  15.917  0.00  0.00    +0.000 A 
ATOM      3  C   UNL     1       6.490   4.962  15.679  0.00  0.00    +0.000 A 
ATOM      4  C   UNL     1       7.328   5.278  16.756  0.00  0.00    +0.000 A 
ATOM      5  C   UNL     1       6.952   4.943  18.060  0.00  0.00    +0.000 A 
ATOM      6  C   UNL     1       5.736   4.288  18.303  0.00  0.00    +0.000 A 
ENDROOT
BRANCH   3   7
ATOM      7  N   UNL     1       6.871   5.299  14.355  0.00  0.00    +0.000 N 
ATOM      8  H   UNL     1       7.472   6.119  14.174  0.00  0.00    +0.000 HD
ATOM      9  H   UNL     1       6.550   4.734  13.556  0.00  0.00    +0.000 HD
ENDBRANCH   3   7
BRANCH   6  10
ATOM     10  O   UNL     1       5.381   3.959  19.563  0.00  0.00    +0.000 OA
ATOM     11  H   UNL     1       5.375   3.043  19.875  0.00  0.00    +0.000 HD
ENDBRANCH   6  10
BRANCH   1  12
ATOM     12  C   UNL     1       3.583   3.233  17.448  0.00  0.00    +0.000 C 
BRANCH  12  13
ATOM     13  N   UNL     1       2.725   3.853  18.496  0.00  0.00    +0.000 NA
BRANCH  13  14
ATOM     14  C   UNL     1       2.139   5.116  17.957  0.00  0.00    +0.000 C 
BRANCH  14  16
ATOM     15  C   UNL     1       3.392   7.306  17.771  0.00  0.00    +0.000 C 
ATOM     16  C   UNL     1       2.582   6.397  18.694  0.00  0.00    +0.000 C 
ENDBRANCH  14  16
ENDBRANCH  13  14
BRANCH  13  17
ATOM     17  C   UNL     1       1.655   2.899  18.907  0.00  0.00    +0.000 C 
BRANCH  17  18
ATOM     18  C   UNL     1       0.917   3.271  20.213  0.00  0.00    +0.000 C 
ATOM     19  C   UNL     1       1.713   2.908  21.465  0.00  0.00    +0.000 C 
ENDBRANCH  17  18
ENDBRANCH  13  17
ENDBRANCH  12  13
ENDBRANCH   1  12
TORSDOF 8
ENDMDL
MODEL 6
REMARK VINA RESULT:      -5.8      1.881      5.504
REMARK  Name = 
REMARK  10 active torsions:
REMARK  status: ('A' for Active; 'I' for Inactive)
REMARK    1  A    between atoms: C_1  and  C_2
REMARK    2  A    between atoms: C_2  and  C_3
REMARK    3  A    between atoms: C_3  and  N_4
REMARK    4  A    between atoms: N_4  and  C_5
REMARK    5  A    between atoms: N_4  and  C_8
REMARK    6  A    between atoms: C_5  and  C_6
REMARK    7  A    between atoms: C_6  and  C_7
REMARK    8  A    between atoms: C_8  and  C_9
REMARK    9  A    between atoms: C_11  and  N_12
REMARK   10  A    between atoms: C_15  and  O_16
REMARK                            x       y       z     vdW  Elec       q    Type
REMARK                         _______ _______ _______ _____ _____    ______ ____
ROOT
ATOM      1  C   UNL     1       4.702   5.335  18.495  0.00  0.00    +0.000 A 
ATOM      2  C   UNL     1       5.891   4.586  18.519  0.00  0.00    +0.000 A 
ATOM      3  C   UNL     1       6.990   4.965  17.738  0.00  0.00    +0.000 A 
ATOM      4  C   UNL     1       6.901   6.102  16.924  0.00  0.00    +0.000 A 
ATOM      5  C   UNL     1       5.722   6.851  16.892  0.00  0.00    +0.000 A 
ATOM      6  C   UNL     1       4.619   6.476  17.673  0.00  0.00    +0.000 A 
ENDROOT
BRANCH   3   7
ATOM      7  N   UNL     1       8.186   4.204  17.774  0.00  0.00    +0.000 N 
ATOM      8  H   UNL     1       8.762   4.090  16.924  0.00  0.00    +0.000 HD
ATOM      9  H   UNL     1       8.496   3.752  18.646  0.00  0.00    +0.000 HD
ENDBRANCH   3   7
BRANCH   6  10
ATOM     10  O   UNL     1       3.485   7.208  17.644  0.00  0.00    +0.000 OA
ATOM     11  H   UNL     1       3.345   7.965  18.230  0.00  0.00    +0.000 HD
ENDBRANCH   6  10
BRANCH   1  12
ATOM     12  C   UNL     1       3.540   4.918  19.372  0.00  0.00    +0.000 C 
BRANCH  12  13
ATOM     13  N   UNL     1       2.292   4.634  18.611  0.00  0.00    +0.000 NA
BRANCH  13  14
ATOM     14  C   UNL     1       2.592   3.633  17.544  0.00  0.00    +0.000 C 
BRANCH  14  16
ATOM     15  C   UNL     1       3.609   1.466  18.362  0.00  0.00    +0.000 C 
ATOM     16  C   UNL     1       2.318   2.167  17.943  0.00  0.00    +0.000 C 
ENDBRANCH  14  16
ENDBRANCH  13  14
BRANCH  13  17
ATOM     17  C   UNL     1       1.236   4.132  19.536  0.00  0.00    +0.000 C 
BRANCH  17  18
ATOM     18  C   UNL     1       1.663   4.029  21.018  0.00  0.00    +0.000 C 
ATOM     19  C   UNL     1       1.554   2.607  21.566  0.00  0.00    +0.000 C 
ENDBRANCH  17  18
ENDBRANCH  13  17
ENDBRANCH  12  13
ENDBRANCH   1  12
TORSDOF 8
ENDMDL
MODEL 7
REMARK VINA RESULT:      -5.7      1.695      3.364
REMARK  Name = 
REMARK  10 active torsions:
REMARK  status: ('A' for Active; 'I' for Inactive)
REMARK    1  A    between atoms: C_1  and  C_2
REMARK    2  A    between atoms: C_2  and  C_3
REMARK    3  A    between atoms: C_3  and  N_4
REMARK    4  A    between atoms: N_4  and  C_5
REMARK    5  A    between atoms: N_4  and  C_8
REMARK    6  A    between atoms: C_5  and  C_6
REMARK    7  A    between atoms: C_6  and  C_7
REMARK    8  A    between atoms: C_8  and  C_9
REMARK    9  A    between atoms: C_11  and  N_12
REMARK   10  A    between atoms: C_15  and  O_16
REMARK                            x       y       z     vdW  Elec       q    Type
REMARK                         _______ _______ _______ _____ _____    ______ ____
ROOT
ATOM      1  C   UNL     1       3.504   4.297  18.050  0.00  0.00    +0.000 A 
ATOM      2  C   UNL     1       4.461   3.587  18.795  0.00  0.00    +0.000 A 
ATOM      3  C   UNL     1       4.114   2.406  19.462  0.00  0.00    +0.000 A 
ATOM      4  C   UNL     1       2.799   1.928  19.385  0.00  0.00    +0.000 A 
ATOM      5  C   UNL     1       1.840   2.628  18.648  0.00  0.00    +0.000 A 
ATOM      6  C   UNL     1       2.184   3.812  17.978  0.00  0.00    +0.000 A 
ENDROOT
BRANCH   3   7
ATOM      7  N   UNL     1       5.089   1.696  20.208  0.00  0.00    +0.000 N 
ATOM      8  H   UNL     1       4.830   0.847  20.737  0.00  0.00    +0.000 HD
ATOM      9  H   UNL     1       6.067   2.017  20.235  0.00  0.00    +0.000 HD
ENDBRANCH   3   7
BRANCH   6  10
ATOM     10  O   UNL     1       1.255   4.481  17.261  0.00  0.00    +0.000 OA
ATOM     11  H   UNL     1       0.663   4.033  16.639  0.00  0.00    +0.000 HD
ENDBRANCH   6  10
BRANCH   1  12
ATOM     12  C   UNL     1       3.915   5.556  17.315  0.00  0.00    +0.000 C 
BRANCH  12  13
ATOM     13  N   UNL     1       5.335   5.546  16.867  0.00  0.00    +0.000 NA
BRANCH  13  14
ATOM     14  C   UNL     1       5.376   5.294  15.396  0.00  0.00    +0.000 C 
BRANCH  14  16
ATOM     15  C   UNL     1       6.065   3.798  13.476  0.00  0.00    +0.000 C 
ATOM     16  C   UNL     1       6.176   4.041  14.980  0.00  0.00    +0.000 C 
ENDBRANCH  14  16
ENDBRANCH  13  14
BRANCH  13  17
ATOM     17  C   UNL     1       5.984   6.846  17.206  0.00  0.00    +0.000 C 
BRANCH  17  18
ATOM     18  C   UNL     1       7.361   6.725  17.897  0.00  0.00    +0.000 C 
ATOM     19  C   UNL     1       7.698   5.289  18.295  0.00  0.00    +0.000 C 
ENDBRANCH  17  18
ENDBRANCH  13  17
ENDBRANCH  12  13
ENDBRANCH   1  12
TORSDOF 8
ENDMDL
MODEL 8
REMARK VINA RESULT:      -5.7      2.250      5.326
REMARK  Name = 
REMARK  10 active torsions:
REMARK  status: ('A' for Active; 'I' for Inactive)
REMARK    1  A    between atoms: C_1  and  C_2
REMARK    2  A    between atoms: C_2  and  C_3
REMARK    3  A    between atoms: C_3  and  N_4
REMARK    4  A    between atoms: N_4  and  C_5
REMARK    5  A    between atoms: N_4  and  C_8
REMARK    6  A    between atoms: C_5  and  C_6
REMARK    7  A    between atoms: C_6  and  C_7
REMARK    8  A    between atoms: C_8  and  C_9
REMARK    9  A    between atoms: C_11  and  N_12
REMARK   10  A    between atoms: C_15  and  O_16
REMARK                            x       y       z     vdW  Elec       q    Type
REMARK                         _______ _______ _______ _____ _____    ______ ____
ROOT
ATOM      1  C   UNL     1       5.092   4.152  17.912  0.00  0.00    +0.000 A 
ATOM      2  C   UNL     1       5.057   3.773  16.559  0.00  0.00    +0.000 A 
ATOM      3  C   UNL     1       6.161   3.995  15.727  0.00  0.00    +0.000 A 
ATOM      4  C   UNL     1       7.311   4.600  16.250  0.00  0.00    +0.000 A 
ATOM      5  C   UNL     1       7.355   4.982  17.593  0.00  0.00    +0.000 A 
ATOM      6  C   UNL     1       6.250   4.762  18.431  0.00  0.00    +0.000 A 
ENDROOT
BRANCH   3   7
ATOM      7  N   UNL     1       6.117   3.605  14.364  0.00  0.00    +0.000 N 
ATOM      8  H   UNL     1       5.373   3.959  13.740  0.00  0.00    +0.000 HD
ATOM      9  H   UNL     1       6.822   2.962  13.978  0.00  0.00    +0.000 HD
ENDBRANCH   3   7
BRANCH   6  10
ATOM     10  O   UNL     1       6.300   5.125  19.730  0.00  0.00    +0.000 OA
ATOM     11  H   UNL     1       6.010   5.998  20.033  0.00  0.00    +0.000 HD
ENDBRANCH   6  10
BRANCH   1  12
ATOM     12  C   UNL     1       3.893   3.874  18.795  0.00  0.00    +0.000 C 
BRANCH  12  13
ATOM     13  N   UNL     1       2.678   4.642  18.407  0.00  0.00    +0.000 NA
BRANCH  13  14
ATOM     14  C   UNL     1       1.468   3.902  18.875  0.00  0.00    +0.000 C 
BRANCH  14  16
ATOM     15  C   UNL     1       1.317   2.941  21.210  0.00  0.00    +0.000 C 
ATOM     16  C   UNL     1       1.075   4.174  20.342  0.00  0.00    +0.000 C 
ENDBRANCH  14  16
ENDBRANCH  13  14
BRANCH  13  17
ATOM     17  C   UNL     1       2.732   6.010  18.997  0.00  0.00    +0.000 C 
BRANCH  17  18
ATOM     18  C   UNL     1       3.114   7.132  18.005  0.00  0.00    +0.000 C 
ATOM     19  C   UNL     1       2.147   8.314  18.049  0.00  0.00    +0.000 C 
ENDBRANCH  17  18
ENDBRANCH  13  17
ENDBRANCH  12  13
ENDBRANCH   1  12
TORSDOF 8
ENDMDL
MODEL 9
REMARK VINA RESULT:      -5.7      2.170      5.190
REMARK  Name = 
REMARK  10 active torsions:
REMARK  status: ('A' for Active; 'I' for Inactive)
REMARK    1  A    between atoms: C_1  and  C_2
REMARK    2  A    between atoms: C_2  and  C_3
REMARK    3  A    between atoms: C_3  and  N_4
REMARK    4  A    between atoms: N_4  and  C_5
REMARK    5  A    between atoms: N_4  and  C_8
REMARK    6  A    between atoms: C_5  and  C_6
REMARK    7  A    between atoms: C_6  and  C_7
REMARK    8  A    between atoms: C_8  and  C_9
REMARK    9  A    between atoms: C_11  and  N_12
REMARK   10  A    between atoms: C_15  and  O_16
REMARK                            x       y       z     vdW  Elec       q    Type
REMARK                         _______ _______ _______ _____ _____    ______ ____
ROOT
ATOM      1  C   UNL     1       5.303   5.550  18.084  0.00  0.00    +0.000 A 
ATOM      2  C   UNL     1       6.136   5.186  19.155  0.00  0.00    +0.000 A 
ATOM      3  C   UNL     1       7.406   5.758  19.298  0.00  0.00    +0.000 A 
ATOM      4  C   UNL     1       7.849   6.702  18.363  0.00  0.00    +0.000 A 
ATOM      5  C   UNL     1       7.029   7.068  17.292  0.00  0.00    +0.000 A 
ATOM      6  C   UNL     1       5.755   6.498  17.145  0.00  0.00    +0.000 A 
ENDROOT
BRANCH   3   7
ATOM      7  N   UNL     1       8.237   5.387  20.386  0.00  0.00    +0.000 N 
ATOM      8  H   UNL     1       9.143   5.859  20.540  0.00  0.00    +0.000 HD
ATOM      9  H   UNL     1       7.952   4.640  21.034  0.00  0.00    +0.000 HD
ENDBRANCH   3   7
BRANCH   6  10
ATOM     10  O   UNL     1       4.963   6.861  16.114  0.00  0.00    +0.000 OA
ATOM     11  H   UNL     1       4.397   6.227  15.651  0.00  0.00    +0.000 HD
ENDBRANCH   6  10
BRANCH   1  12
ATOM     12  C   UNL     1       3.923   4.936  17.971  0.00  0.00    +0.000 C 
BRANCH  12  13
ATOM     13  N   UNL     1       3.083   5.132  19.185  0.00  0.00    +0.000 NA
BRANCH  13  14
ATOM     14  C   UNL     1       2.749   6.581  19.313  0.00  0.00    +0.000 C 
BRANCH  14  16
ATOM     15  C   UNL     1       2.469   8.642  17.873  0.00  0.00    +0.000 C 
ATOM     16  C   UNL     1       2.043   7.191  18.084  0.00  0.00    +0.000 C 
ENDBRANCH  14  16
ENDBRANCH  13  14
BRANCH  13  17
ATOM     17  C   UNL     1       1.847   4.303  19.087  0.00  0.00    +0.000 C 
BRANCH  17  18
ATOM     18  C   UNL     1       1.159   3.998  20.437  0.00  0.00    +0.000 C 
ATOM     19  C   UNL     1       2.149   3.586  21.525  0.00  0.00    +0.000 C 
ENDBRANCH  17  18
ENDBRANCH  13  17
ENDBRANCH  12  13
ENDBRANCH   1  12
TORSDOF 8
ENDMDL
