MODEL 1
REMARK VINA RESULT:      -7.4      0.000      0.000
REMARK  Name = 
REMARK  5 active torsions:
REMARK  status: ('A' for Active; 'I' for Inactive)
REMARK    1  A    between atoms: C_1  and  C_2
REMARK    2  A    between atoms: C_2  and  O_3
REMARK    3  A    between atoms: C_2  and  C_4
REMARK    4  A    between atoms: C_4  and  O_5
REMARK    5  A    between atoms: C_4  and  C_6
REMARK                            x       y       z     vdW  Elec       q    Type
REMARK                         _______ _______ _______ _____ _____    ______ ____
ROOT
ATOM      1  C   UNL     1       3.975   4.217  19.421  0.00  0.00    +0.000 C 
ATOM      2  C   UNL     1       3.069   5.116  18.527  0.00  0.00    +0.000 C 
ATOM      3  N   UNL     1       3.638   5.257  17.192  0.00  0.00    +0.000 N 
ATOM      4  C   UNL     1       5.001   5.185  16.931  0.00  0.00    +0.000 A 
ATOM      5  N   UNL     1       5.420   5.276  15.628  0.00  0.00    +0.000 NA
ATOM      6  C   UNL     1       6.678   5.082  15.376  0.00  0.00    +0.000 A 
ATOM      7  N   UNL     1       7.127   5.114  14.096  0.00  0.00    +0.000 N 
ATOM      8  N   UNL     1       7.607   4.850  16.338  0.00  0.00    +0.000 N 
ATOM      9  C   UNL     1       7.278   4.729  17.653  0.00  0.00    +0.000 A 
ATOM     10  O   UNL     1       8.102   4.425  18.512  0.00  0.00    +0.000 OA
ATOM     11  C   UNL     1       5.834   4.926  17.974  0.00  0.00    +0.000 A 
ATOM     12  N   UNL     1       5.386   4.680  19.286  0.00  0.00    +0.000 N 
ATOM     13  H   UNL     1       3.050   5.343  16.373  0.00  0.00    +0.000 HD
ATOM     14  H   UNL     1       6.438   5.508  13.463  0.00  0.00    +0.000 HD
ATOM     15  H   UNL     1       8.062   5.456  13.941  0.00  0.00    +0.000 HD
ATOM     16  H   UNL     1       8.561   4.646  16.098  0.00  0.00    +0.000 HD
ATOM     17  H   UNL     1       6.063   4.086  19.772  0.00  0.00    +0.000 HD
ENDROOT
BRANCH   1  18
ATOM     18  C   UNL     1       3.911   2.703  19.054  0.00  0.00    +0.000 C 
BRANCH  18  20
ATOM     19  C   UNL     1       1.925   2.738  20.651  0.00  0.00    +0.000 C 
ATOM     20  C   UNL     1       2.611   2.007  19.495  0.00  0.00    +0.000 C 
BRANCH  20  21
ATOM     21  O   UNL     1       1.713   1.927  18.383  0.00  0.00    +0.000 OA
ATOM     22  H   UNL     1       1.281   2.798  18.290  0.00  0.00    +0.000 HD
ENDBRANCH  20  21
ENDBRANCH  18  20
BRANCH  18  23
ATOM     23  O   UNL     1       5.026   2.027  19.687  0.00  0.00    +0.000 OA
ATOM     24  H   UNL     1       4.662   1.230  20.112  0.00  0.00    +0.000 HD
ENDBRANCH  18  23
ENDBRANCH   1  18
TORSDOF 4
ENDMDL
MODEL 2
REMARK VINA RESULT:      -7.3      0.994      1.065
REMARK  Name = 
REMARK  5 active torsions:
REMARK  status: ('A' for Active; 'I' for Inactive)
REMARK    1  A    between atoms: C_1  and  C_2
REMARK    2  A    between atoms: C_2  and  O_3
REMARK    3  A    between atoms: C_2  and  C_4
REMARK    4  A    between atoms: C_4  and  O_5
REMARK    5  A    between atoms: C_4  and  C_6
REMARK                            x       y       z     vdW  Elec       q    Type
REMARK                         _______ _______ _______ _____ _____    ______ ____
ROOT
ATOM      1  C   UNL     1       4.285   5.024  19.531  0.00  0.00    +0.000 C 
ATOM      2  C   UNL     1       3.513   6.053  18.652  0.00  0.00    +0.000 C 
ATOM      3  N   UNL     1       3.986   6.013  17.273  0.00  0.00    +0.000 N 
ATOM      4  C   UNL     1       5.278   5.644  16.919  0.00  0.00    +0.000 A 
ATOM      5  N   UNL     1       5.597   5.588  15.586  0.00  0.00    +0.000 NA
ATOM      6  C   UNL     1       6.763   5.122  15.256  0.00  0.00    +0.000 A 
ATOM      7  N   UNL     1       7.100   5.003  13.948  0.00  0.00    +0.000 N 
ATOM      8  N   UNL     1       7.699   4.742  16.160  0.00  0.00    +0.000 N 
ATOM      9  C   UNL     1       7.464   4.751  17.501  0.00  0.00    +0.000 A 
ATOM     10  O   UNL     1       8.276   4.318  18.315  0.00  0.00    +0.000 OA
ATOM     11  C   UNL     1       6.124   5.261  17.912  0.00  0.00    +0.000 A 
ATOM     12  N   UNL     1       5.745   5.173  19.267  0.00  0.00    +0.000 N 
ATOM     13  H   UNL     1       3.362   6.185  16.495  0.00  0.00    +0.000 HD
ATOM     14  H   UNL     1       6.457   5.505  13.343  0.00  0.00    +0.000 HD
ATOM     15  H   UNL     1       8.069   5.133  13.705  0.00  0.00    +0.000 HD
ATOM     16  H   UNL     1       8.568   4.331  15.865  0.00  0.00    +0.000 HD
ATOM     17  H   UNL     1       6.323   4.471  19.737  0.00  0.00    +0.000 HD
ENDROOT
BRANCH   1  18
ATOM     18  C   UNL     1       3.879   3.543  19.260  0.00  0.00    +0.000 C 
BRANCH  18  20
ATOM     19  C   UNL     1       1.804   2.065  19.219  0.00  0.00    +0.000 C 
ATOM     20  C   UNL     1       2.613   3.095  20.011  0.00  0.00    +0.000 C 
BRANCH  20  21
ATOM     21  O   UNL     1       2.981   2.537  21.277  0.00  0.00    +0.000 OA
ATOM     22  H   UNL     1       2.158   2.304  21.747  0.00  0.00    +0.000 HD
ENDBRANCH  20  21
ENDBRANCH  18  20
BRANCH  18  23
ATOM     23  O   UNL     1       4.974   2.683  19.664  0.00  0.00    +0.000 OA
ATOM     24  H   UNL     1       4.586   1.975  20.208  0.00  0.00    +0.000 HD
ENDBRANCH  18  23
ENDBRANCH   1  18
TORSDOF 4
ENDMDL
MODEL 3
REMARK VINA RESULT:      -7.1      2.775      5.484
REMARK  Name = 
REMARK  5 active torsions:
REMARK  status: ('A' for Active; 'I' for Inactive)
REMARK    1  A    between atoms: C_1  and  C_2
REMARK    2  A    between atoms: C_2  and  O_3
REMARK    3  A    between atoms: C_2  and  C_4
REMARK    4  A    between atoms: C_4  and  O_5
REMARK    5  A    between atoms: C_4  and  C_6
REMARK                            x       y       z     vdW  Elec       q    Type
REMARK                         _______ _______ _______ _____ _____    ______ ____
ROOT
ATOM      1  C   UNL     1       6.551   5.944  17.064  0.00  0.00    +0.000 C 
ATOM      2  C   UNL     1       7.368   4.867  17.839  0.00  0.00    +0.000 C 
ATOM      3  N   UNL     1       6.478   3.935  18.521  0.00  0.00    +0.000 N 
ATOM      4  C   UNL     1       5.206   4.278  18.963  0.00  0.00    +0.000 A 
ATOM      5  N   UNL     1       4.433   3.304  19.542  0.00  0.00    +0.000 NA
ATOM      6  C   UNL     1       3.202   3.595  19.838  0.00  0.00    +0.000 A 
ATOM      7  N   UNL     1       2.390   2.647  20.367  0.00  0.00    +0.000 N 
ATOM      8  N   UNL     1       2.660   4.825  19.654  0.00  0.00    +0.000 N 
ATOM      9  C   UNL     1       3.349   5.846  19.073  0.00  0.00    +0.000 A 
ATOM     10  O   UNL     1       2.829   6.929  18.820  0.00  0.00    +0.000 OA
ATOM     11  C   UNL     1       4.760   5.536  18.702  0.00  0.00    +0.000 A 
ATOM     12  N   UNL     1       5.499   6.487  17.971  0.00  0.00    +0.000 N 
ATOM     13  H   UNL     1       6.723   2.961  18.641  0.00  0.00    +0.000 HD
ATOM     14  H   UNL     1       2.910   1.834  20.681  0.00  0.00    +0.000 HD
ATOM     15  H   UNL     1       1.683   2.953  21.017  0.00  0.00    +0.000 HD
ATOM     16  H   UNL     1       1.688   4.995  19.840  0.00  0.00    +0.000 HD
ATOM     17  H   UNL     1       4.856   7.138  17.512  0.00  0.00    +0.000 HD
ENDROOT
BRANCH   1  18
ATOM     18  C   UNL     1       5.864   5.399  15.775  0.00  0.00    +0.000 C 
BRANCH  18  20
ATOM     19  C   UNL     1       6.059   3.922  13.708  0.00  0.00    +0.000 C 
ATOM     20  C   UNL     1       6.810   4.617  14.845  0.00  0.00    +0.000 C 
BRANCH  20  21
ATOM     21  O   UNL     1       7.784   5.511  14.296  0.00  0.00    +0.000 OA
ATOM     22  H   UNL     1       7.311   6.305  13.980  0.00  0.00    +0.000 HD
ENDBRANCH  20  21
ENDBRANCH  18  20
BRANCH  18  23
ATOM     23  O   UNL     1       5.321   6.519  15.032  0.00  0.00    +0.000 OA
ATOM     24  H   UNL     1       4.386   6.598  15.293  0.00  0.00    +0.000 HD
ENDBRANCH  18  23
ENDBRANCH   1  18
TORSDOF 4
ENDMDL
MODEL 4
REMARK VINA RESULT:      -7.1      2.245      3.110
REMARK  Name = 
REMARK  5 active torsions:
REMARK  status: ('A' for Active; 'I' for Inactive)
REMARK    1  A    between atoms: C_1  and  C_2
REMARK    2  A    between atoms: C_2  and  O_3
REMARK    3  A    between atoms: C_2  and  C_4
REMARK    4  A    between atoms: C_4  and  O_5
REMARK    5  A    between atoms: C_4  and  C_6
REMARK                            x       y       z     vdW  Elec       q    Type
REMARK                         _______ _______ _______ _____ _____    ______ ____
ROOT
ATOM      1  C   UNL     1       3.264   3.204  17.730  0.00  0.00    +0.000 C 
ATOM      2  C   UNL     1       4.093   2.449  18.812  0.00  0.00    +0.000 C 
ATOM      3  N   UNL     1       5.187   3.281  19.299  0.00  0.00    +0.000 N 
ATOM      4  C   UNL     1       5.798   4.265  18.532  0.00  0.00    +0.000 A 
ATOM      5  N   UNL     1       6.780   5.026  19.112  0.00  0.00    +0.000 NA
ATOM      6  C   UNL     1       7.260   6.026  18.436  0.00  0.00    +0.000 A 
ATOM      7  N   UNL     1       8.197   6.834  18.990  0.00  0.00    +0.000 N 
ATOM      8  N   UNL     1       6.879   6.320  17.167  0.00  0.00    +0.000 N 
ATOM      9  C   UNL     1       5.902   5.627  16.520  0.00  0.00    +0.000 A 
ATOM     10  O   UNL     1       5.492   5.952  15.408  0.00  0.00    +0.000 OA
ATOM     11  C   UNL     1       5.316   4.485  17.280  0.00  0.00    +0.000 A 
ATOM     12  N   UNL     1       4.206   3.805  16.742  0.00  0.00    +0.000 N 
ATOM     13  H   UNL     1       5.505   3.227  20.258  0.00  0.00    +0.000 HD
ATOM     14  H   UNL     1       8.591   6.432  19.835  0.00  0.00    +0.000 HD
ATOM     15  H   UNL     1       8.884   7.238  18.374  0.00  0.00    +0.000 HD
ATOM     16  H   UNL     1       7.230   7.136  16.698  0.00  0.00    +0.000 HD
ATOM     17  H   UNL     1       3.748   4.398  16.045  0.00  0.00    +0.000 HD
ENDROOT
BRANCH   1  18
ATOM     18  C   UNL     1       2.363   4.336  18.311  0.00  0.00    +0.000 C 
BRANCH  18  20
ATOM     19  C   UNL     1       1.845   5.394  20.571  0.00  0.00    +0.000 C 
ATOM     20  C   UNL     1       1.916   4.096  19.764  0.00  0.00    +0.000 C 
BRANCH  20  21
ATOM     21  O   UNL     1       0.631   3.463  19.768  0.00  0.00    +0.000 OA
ATOM     22  H   UNL     1       0.118   3.833  19.024  0.00  0.00    +0.000 HD
ENDBRANCH  20  21
ENDBRANCH  18  20
BRANCH  18  23
ATOM     23  O   UNL     1       1.178   4.453  17.484  0.00  0.00    +0.000 OA
ATOM     24  H   UNL     1       1.486   4.502  16.562  0.00  0.00    +0.000 HD
ENDBRANCH  18  23
ENDBRANCH   1  18
TORSDOF 4
ENDMDL
MODEL 5
REMARK VINA RESULT:      -7.0      2.221      5.167
REMARK  Name = 
REMARK  5 active torsions:
REMARK  status: ('A' for Active; 'I' for Inactive)
REMARK    1  A    between atoms: C_1  and  C_2
REMARK    2  A    between atoms: C_2  and  O_3
REMARK    3  A    between atoms: C_2  and  C_4
REMARK    4  A    between atoms: C_4  and  O_5
REMARK    5  A    between atoms: C_4  and  C_6
REMARK                            x       y       z     vdW  Elec       q    Type
REMARK                         _______ _______ _______ _____ _____    ______ ____
ROOT
ATOM      1  C   UNL     1       5.485   4.901  17.353  0.00  0.00    +0.000 C 
ATOM      2  C   UNL     1       4.414   5.980  17.014  0.00  0.00    +0.000 C 
ATOM      3  N   UNL     1       3.154   5.686  17.687  0.00  0.00    +0.000 N 
ATOM      4  C   UNL     1       2.747   4.400  18.020  0.00  0.00    +0.000 A 
ATOM      5  N   UNL     1       1.568   4.246  18.702  0.00  0.00    +0.000 NA
ATOM      6  C   UNL     1       1.255   3.058  19.123  0.00  0.00    +0.000 A 
ATOM      7  N   UNL     1       0.122   2.869  19.843  0.00  0.00    +0.000 N 
ATOM      8  N   UNL     1       2.005   1.955  18.873  0.00  0.00    +0.000 N 
ATOM      9  C   UNL     1       3.196   2.017  18.217  0.00  0.00    +0.000 A 
ATOM     10  O   UNL     1       3.921   1.036  18.075  0.00  0.00    +0.000 OA
ATOM     11  C   UNL     1       3.595   3.374  17.740  0.00  0.00    +0.000 A 
ATOM     12  N   UNL     1       4.874   3.551  17.177  0.00  0.00    +0.000 N 
ATOM     13  H   UNL     1       2.542   6.425  18.011  0.00  0.00    +0.000 HD
ATOM     14  H   UNL     1      -0.493   3.676  19.801  0.00  0.00    +0.000 HD
ATOM     15  H   UNL     1      -0.356   1.989  19.735  0.00  0.00    +0.000 HD
ATOM     16  H   UNL     1       1.761   1.063  19.265  0.00  0.00    +0.000 HD
ATOM     17  H   UNL     1       5.483   2.782  17.467  0.00  0.00    +0.000 HD
ENDROOT
BRANCH   1  18
ATOM     18  C   UNL     1       6.044   5.009  18.804  0.00  0.00    +0.000 C 
BRANCH  18  20
ATOM     19  C   UNL     1       7.734   6.824  18.219  0.00  0.00    +0.000 C 
ATOM     20  C   UNL     1       7.514   5.460  18.876  0.00  0.00    +0.000 C 
BRANCH  20  21
ATOM     21  O   UNL     1       7.926   5.520  20.246  0.00  0.00    +0.000 OA
ATOM     22  H   UNL     1       8.357   6.385  20.386  0.00  0.00    +0.000 HD
ENDBRANCH  20  21
ENDBRANCH  18  20
BRANCH  18  23
ATOM     23  O   UNL     1       5.936   3.710  19.438  0.00  0.00    +0.000 OA
ATOM     24  H   UNL     1       5.960   3.867  20.399  0.00  0.00    +0.000 HD
ENDBRANCH  18  23
ENDBRANCH   1  18
TORSDOF 4
ENDMDL
MODEL 6
REMARK VINA RESULT:      -7.0      2.077      5.314
REMARK  Name = 
REMARK  5 active torsions:
REMARK  status: ('A' for Active; 'I' for Inactive)
REMARK    1  A    between atoms: C_1  and  C_2
REMARK    2  A    between atoms: C_2  and  O_3
REMARK    3  A    between atoms: C_2  and  C_4
REMARK    4  A    between atoms: C_4  and  O_5
REMARK    5  A    between atoms: C_4  and  C_6
REMARK                            x       y       z     vdW  Elec       q    Type
REMARK                         _______ _______ _______ _____ _____    ______ ____
ROOT
ATOM      1  C   UNL     1       6.126   4.715  17.464  0.00  0.00    +0.000 C 
ATOM      2  C   UNL     1       4.986   5.150  16.495  0.00  0.00    +0.000 C 
ATOM      3  N   UNL     1       3.699   5.153  17.181  0.00  0.00    +0.000 N 
ATOM      4  C   UNL     1       3.404   4.324  18.256  0.00  0.00    +0.000 A 
ATOM      5  N   UNL     1       2.179   4.451  18.860  0.00  0.00    +0.000 NA
ATOM      6  C   UNL     1       1.956   3.766  19.940  0.00  0.00    +0.000 A 
ATOM      7  N   UNL     1       0.777   3.900  20.596  0.00  0.00    +0.000 N 
ATOM      8  N   UNL     1       2.848   2.891  20.468  0.00  0.00    +0.000 N 
ATOM      9  C   UNL     1       4.091   2.712  19.942  0.00  0.00    +0.000 A 
ATOM     10  O   UNL     1       4.932   1.992  20.474  0.00  0.00    +0.000 OA
ATOM     11  C   UNL     1       4.387   3.502  18.712  0.00  0.00    +0.000 A 
ATOM     12  N   UNL     1       5.693   3.484  18.186  0.00  0.00    +0.000 N 
ATOM     13  H   UNL     1       2.976   5.822  16.946  0.00  0.00    +0.000 HD
ATOM     14  H   UNL     1       0.084   4.387  20.037  0.00  0.00    +0.000 HD
ATOM     15  H   UNL     1       0.415   3.087  21.071  0.00  0.00    +0.000 HD
ATOM     16  H   UNL     1       2.662   2.423  21.337  0.00  0.00    +0.000 HD
ATOM     17  H   UNL     1       6.348   3.180  18.911  0.00  0.00    +0.000 HD
ENDROOT
BRANCH   1  18
ATOM     18  C   UNL     1       6.502   5.803  18.515  0.00  0.00    +0.000 C 
BRANCH  18  20
ATOM     19  C   UNL     1       7.333   7.984  17.493  0.00  0.00    +0.000 C 
ATOM     20  C   UNL     1       7.728   6.650  18.129  0.00  0.00    +0.000 C 
BRANCH  20  21
ATOM     21  O   UNL     1       8.523   6.895  19.294  0.00  0.00    +0.000 OA
ATOM     22  H   UNL     1       8.256   6.248  19.975  0.00  0.00    +0.000 HD
ENDBRANCH  20  21
ENDBRANCH  18  20
BRANCH  18  23
ATOM     23  O   UNL     1       6.782   5.147  19.778  0.00  0.00    +0.000 OA
ATOM     24  H   UNL     1       6.779   4.190  19.601  0.00  0.00    +0.000 HD
ENDBRANCH  18  23
ENDBRANCH   1  18
TORSDOF 4
ENDMDL
MODEL 7
REMARK VINA RESULT:      -7.0      2.198      5.439
REMARK  Name = 
REMARK  5 active torsions:
REMARK  status: ('A' for Active; 'I' for Inactive)
REMARK    1  A    between atoms: C_1  and  C_2
REMARK    2  A    between atoms: C_2  and  O_3
REMARK    3  A    between atoms: C_2  and  C_4
REMARK    4  A    between atoms: C_4  and  O_5
REMARK    5  A    between atoms: C_4  and  C_6
REMARK                            x       y       z     vdW  Elec       q    Type
REMARK                         _______ _______ _______ _____ _____    ______ ____
ROOT
ATOM      1  C   UNL     1       4.631   5.417  16.987  0.00  0.00    +0.000 C 
ATOM      2  C   UNL     1       3.819   6.578  17.635  0.00  0.00    +0.000 C 
ATOM      3  N   UNL     1       3.306   6.183  18.942  0.00  0.00    +0.000 N 
ATOM      4  C   UNL     1       3.010   4.868  19.282  0.00  0.00    +0.000 A 
ATOM      5  N   UNL     1       2.587   4.605  20.559  0.00  0.00    +0.000 NA
ATOM      6  C   UNL     1       2.433   3.364  20.909  0.00  0.00    +0.000 A 
ATOM      7  N   UNL     1       2.064   3.057  22.177  0.00  0.00    +0.000 N 
ATOM      8  N   UNL     1       2.616   2.320  20.062  0.00  0.00    +0.000 N 
ATOM      9  C   UNL     1       3.049   2.488  18.782  0.00  0.00    +0.000 A 
ATOM     10  O   UNL     1       3.306   1.539  18.045  0.00  0.00    +0.000 OA
ATOM     11  C   UNL     1       3.256   3.903  18.356  0.00  0.00    +0.000 A 
ATOM     12  N   UNL     1       3.835   4.160  17.098  0.00  0.00    +0.000 N 
ATOM     13  H   UNL     1       3.211   6.850  19.697  0.00  0.00    +0.000 HD
ATOM     14  H   UNL     1       1.731   3.872  22.683  0.00  0.00    +0.000 HD
ATOM     15  H   UNL     1       1.491   2.238  22.308  0.00  0.00    +0.000 HD
ATOM     16  H   UNL     1       2.545   1.372  20.385  0.00  0.00    +0.000 HD
ATOM     17  H   UNL     1       4.335   3.326  16.777  0.00  0.00    +0.000 HD
ENDROOT
BRANCH   1  18
ATOM     18  C   UNL     1       6.024   5.184  17.647  0.00  0.00    +0.000 C 
BRANCH  18  20
ATOM     19  C   UNL     1       7.963   6.399  18.766  0.00  0.00    +0.000 C 
ATOM     20  C   UNL     1       6.938   6.421  17.631  0.00  0.00    +0.000 C 
BRANCH  20  21
ATOM     21  O   UNL     1       7.622   6.492  16.374  0.00  0.00    +0.000 OA
ATOM     22  H   UNL     1       8.581   6.462  16.559  0.00  0.00    +0.000 HD
ENDBRANCH  20  21
ENDBRANCH  18  20
BRANCH  18  23
ATOM     23  O   UNL     1       6.697   4.113  16.939  0.00  0.00    +0.000 OA
ATOM     24  H   UNL     1       6.012   3.462  16.702  0.00  0.00    +0.000 HD
ENDBRANCH  18  23
ENDBRANCH   1  18
TORSDOF 4
ENDMDL
MODEL 8
REMARK VINA RESULT:      -7.0      2.104      2.846
REMARK  Name = 
REMARK  5 active torsions:
REMARK  status: ('A' for Active; 'I' for Inactive)
REMARK    1  A    between atoms: C_1  and  C_2
REMARK    2  A    between atoms: C_2  and  O_3
REMARK    3  A    between atoms: C_2  and  C_4
REMARK    4  A    between atoms: C_4  and  O_5
REMARK    5  A    between atoms: C_4  and  C_6
REMARK                            x       y       z     vdW  Elec       q    Type
REMARK                         _______ _______ _______ _____ _____    ______ ____
ROOT
ATOM      1  C   UNL     1       3.655   2.878  18.435  0.00  0.00    +0.000 C 
ATOM      2  C   UNL     1       4.657   2.945  19.626  0.00  0.00    +0.000 C 
ATOM      3  N   UNL     1       5.513   4.121  19.516  0.00  0.00    +0.000 N 
ATOM      4  C   UNL     1       5.851   4.709  18.303  0.00  0.00    +0.000 A 
ATOM      5  N   UNL     1       6.616   5.846  18.322  0.00  0.00    +0.000 NA
ATOM      6  C   UNL     1       6.824   6.463  17.198  0.00  0.00    +0.000 A 
ATOM      7  N   UNL     1       7.534   7.618  17.178  0.00  0.00    +0.000 N 
ATOM      8  N   UNL     1       6.369   6.010  16.002  0.00  0.00    +0.000 N 
ATOM      9  C   UNL     1       5.591   4.899  15.892  0.00  0.00    +0.000 A 
ATOM     10  O   UNL     1       5.101   4.542  14.824  0.00  0.00    +0.000 OA
ATOM     11  C   UNL     1       5.317   4.179  17.170  0.00  0.00    +0.000 A 
ATOM     12  N   UNL     1       4.407   3.104  17.167  0.00  0.00    +0.000 N 
ATOM     13  H   UNL     1       5.844   4.613  20.336  0.00  0.00    +0.000 HD
ATOM     14  H   UNL     1       8.025   7.776  18.053  0.00  0.00    +0.000 HD
ATOM     15  H   UNL     1       8.092   7.805  16.361  0.00  0.00    +0.000 HD
ATOM     16  H   UNL     1       6.500   6.545  15.163  0.00  0.00    +0.000 HD
ATOM     17  H   UNL     1       3.808   3.166  16.339  0.00  0.00    +0.000 HD
ENDROOT
BRANCH   1  18
ATOM     18  C   UNL     1       2.505   3.926  18.526  0.00  0.00    +0.000 C 
BRANCH  18  20
ATOM     19  C   UNL     1       1.876   5.519  20.413  0.00  0.00    +0.000 C 
ATOM     20  C   UNL     1       1.896   4.067  19.933  0.00  0.00    +0.000 C 
BRANCH  20  21
ATOM     21  O   UNL     1       0.561   3.549  19.927  0.00  0.00    +0.000 OA
ATOM     22  H   UNL     1       0.067   4.017  19.227  0.00  0.00    +0.000 HD
ENDBRANCH  20  21
ENDBRANCH  18  20
BRANCH  18  23
ATOM     23  O   UNL     1       1.451   3.536  17.612  0.00  0.00    +0.000 OA
ATOM     24  H   UNL     1       1.632   3.987  16.768  0.00  0.00    +0.000 HD
ENDBRANCH  18  23
ENDBRANCH   1  18
TORSDOF 4
ENDMDL
MODEL 9
REMARK VINA RESULT:      -6.8      2.295      3.136
REMARK  Name = 
REMARK  5 active torsions:
REMARK  status: ('A' for Active; 'I' for Inactive)
REMARK    1  A    between atoms: C_1  and  C_2
REMARK    2  A    between atoms: C_2  and  O_3
REMARK    3  A    between atoms: C_2  and  C_4
REMARK    4  A    between atoms: C_4  and  O_5
REMARK    5  A    between atoms: C_4  and  C_6
REMARK                            x       y       z     vdW  Elec       q    Type
REMARK                         _______ _______ _______ _____ _____    ______ ____
ROOT
ATOM      1  C   UNL     1       3.206   3.353  18.040  0.00  0.00    +0.000 C 
ATOM      2  C   UNL     1       4.175   2.493  18.905  0.00  0.00    +0.000 C 
ATOM      3  N   UNL     1       5.334   3.277  19.317  0.00  0.00    +0.000 N 
ATOM      4  C   UNL     1       5.837   4.342  18.580  0.00  0.00    +0.000 A 
ATOM      5  N   UNL     1       6.898   5.045  19.092  0.00  0.00    +0.000 NA
ATOM      6  C   UNL     1       7.283   6.114  18.465  0.00  0.00    +0.000 A 
ATOM      7  N   UNL     1       8.296   6.865  18.963  0.00  0.00    +0.000 N 
ATOM      8  N   UNL     1       6.728   6.539  17.302  0.00  0.00    +0.000 N 
ATOM      9  C   UNL     1       5.663   5.912  16.731  0.00  0.00    +0.000 A 
ATOM     10  O   UNL     1       5.101   6.351  15.731  0.00  0.00    +0.000 OA
ATOM     11  C   UNL     1       5.183   4.691  17.440  0.00  0.00    +0.000 A 
ATOM     12  N   UNL     1       4.002   4.064  16.997  0.00  0.00    +0.000 N 
ATOM     13  H   UNL     1       5.786   3.124  20.210  0.00  0.00    +0.000 HD
ATOM     14  H   UNL     1       8.804   6.379  19.695  0.00  0.00    +0.000 HD
ATOM     15  H   UNL     1       8.892   7.338  18.302  0.00  0.00    +0.000 HD
ATOM     16  H   UNL     1       7.014   7.403  16.877  0.00  0.00    +0.000 HD
ATOM     17  H   UNL     1       3.454   4.724  16.440  0.00  0.00    +0.000 HD
ENDROOT
BRANCH   1  18
ATOM     18  C   UNL     1       2.406   4.410  18.861  0.00  0.00    +0.000 C 
BRANCH  18  20
ATOM     19  C   UNL     1       0.668   2.548  18.936  0.00  0.00    +0.000 C 
ATOM     20  C   UNL     1       1.174   3.838  19.585  0.00  0.00    +0.000 C 
BRANCH  20  21
ATOM     21  O   UNL     1       1.502   3.584  20.955  0.00  0.00    +0.000 OA
ATOM     22  H   UNL     1       1.451   4.434  21.433  0.00  0.00    +0.000 HD
ENDBRANCH  20  21
ENDBRANCH  18  20
BRANCH  18  23
ATOM     23  O   UNL     1       1.959   5.454  17.960  0.00  0.00    +0.000 OA
ATOM     24  H   UNL     1       0.986   5.420  17.956  0.00  0.00    +0.000 HD
ENDBRANCH  18  23
ENDBRANCH   1  18
TORSDOF 4
ENDMDL
