MODEL 1
REMARK VINA RESULT:      -9.3      0.000      0.000
REMARK  Name = 
REMARK  7 active torsions:
REMARK  status: ('A' for Active; 'I' for Inactive)
REMARK    1  A    between atoms: C_1  and  O_2
REMARK    2  A    between atoms: O_2  and  C_3
REMARK    3  A    between atoms: C_6  and  C_7
REMARK    4  A    between atoms: N_11  and  C_12
REMARK    5  A    between atoms: C_12  and  C_13
REMARK    6  A    between atoms: C_16  and  O_17
REMARK    7  A    between atoms: O_17  and  C_18
REMARK                            x       y       z     vdW  Elec       q    Type
REMARK                         _______ _______ _______ _____ _____    ______ ____
ROOT
ATOM      1  C   UNL     1       2.545   6.936  19.541  0.00  0.00    +0.000 A 
ATOM      2  C   UNL     1       2.594   7.400  18.222  0.00  0.00    +0.000 A 
ATOM      3  C   UNL     1       1.972   8.605  17.874  0.00  0.00    +0.000 A 
ATOM      4  C   UNL     1       1.269   9.361  18.822  0.00  0.00    +0.000 A 
ATOM      5  C   UNL     1       1.123   8.853  20.109  0.00  0.00    +0.000 A 
ATOM      6  C   UNL     1       1.736   7.636  20.455  0.00  0.00    +0.000 A 
ENDROOT
BRANCH   1   7
ATOM      7  C   UNL     1       3.383   5.748  20.017  0.00  0.00    +0.000 C 
BRANCH   7  12
ATOM      8  C   UNL     1       3.567   3.824  18.368  0.00  0.00    +0.000 C 
ATOM      9  C   UNL     1       2.495   3.754  17.273  0.00  0.00    +0.000 C 
ATOM     10  C   UNL     1       1.209   3.596  18.039  0.00  0.00    +0.000 C 
ATOM     11  C   UNL     1       1.455   4.387  19.312  0.00  0.00    +0.000 C 
ATOM     12  N   UNL     1       2.913   4.443  19.537  0.00  0.00    +0.000 NA
BRANCH   8  16
ATOM     13  C   UNL     1       6.878   6.147  16.982  0.00  0.00    +0.000 A 
ATOM     14  C   UNL     1       7.066   5.300  18.070  0.00  0.00    +0.000 A 
ATOM     15  C   UNL     1       6.052   4.420  18.452  0.00  0.00    +0.000 A 
ATOM     16  C   UNL     1       4.847   4.350  17.737  0.00  0.00    +0.000 A 
ATOM     17  C   UNL     1       4.754   5.074  16.534  0.00  0.00    +0.000 A 
ATOM     18  C   UNL     1       5.761   5.972  16.167  0.00  0.00    +0.000 A 
BRANCH  13  20
ATOM     19  C   UNL     1       7.885   8.181  17.662  0.00  0.00    +0.000 C 
ATOM     20  O   UNL     1       7.698   7.189  16.652  0.00  0.00    +0.000 OA
ENDBRANCH  13  20
ENDBRANCH   8  16
ENDBRANCH   7  12
ENDBRANCH   1   7
BRANCH   4  21
ATOM     21  O   UNL     1       0.831  10.576  18.349  0.00  0.00    +0.000 OA
BRANCH  21  22
ATOM     22  C   UNL     1      -0.506  10.903  18.235  0.00  0.00    +0.000 A 
ATOM     23  C   UNL     1      -1.272  10.034  17.415  0.00  0.00    +0.000 A 
ATOM     24  C   UNL     1      -2.673  10.075  17.417  0.00  0.00    +0.000 A 
ATOM     25  C   UNL     1      -3.272  10.992  18.267  0.00  0.00    +0.000 A 
ATOM     26  C   UNL     1      -4.668  11.222  18.579  0.00  0.00    +0.000 A 
ATOM     27  O   UNL     1      -5.608  10.586  18.156  0.00  0.00    +0.000 OA
ATOM     28  N   UNL     1      -4.669  12.264  19.469  0.00  0.00    +0.000 N 
ATOM     29  O   UNL     1      -3.346  12.641  19.840  0.00  0.00    +0.000 OA
ATOM     30  C   UNL     1      -2.535  11.851  19.057  0.00  0.00    +0.000 A 
ATOM     31  C   UNL     1      -1.151  11.828  19.072  0.00  0.00    +0.000 A 
ATOM     32 CL   UNL     1      -0.301  12.850  20.167  0.00  0.00    +0.000 Cl
ATOM     33  H   UNL     1      -5.445  12.504  20.073  0.00  0.00    +0.000 HD
ENDBRANCH  21  22
ENDBRANCH   4  21
TORSDOF 6
ENDMDL
MODEL 2
REMARK VINA RESULT:      -9.2      1.165      1.712
REMARK  Name = 
REMARK  7 active torsions:
REMARK  status: ('A' for Active; 'I' for Inactive)
REMARK    1  A    between atoms: C_1  and  O_2
REMARK    2  A    between atoms: O_2  and  C_3
REMARK    3  A    between atoms: C_6  and  C_7
REMARK    4  A    between atoms: N_11  and  C_12
REMARK    5  A    between atoms: C_12  and  C_13
REMARK    6  A    between atoms: C_16  and  O_17
REMARK    7  A    between atoms: O_17  and  C_18
REMARK                            x       y       z     vdW  Elec       q    Type
REMARK                         _______ _______ _______ _____ _____    ______ ____
ROOT
ATOM      1  C   UNL     1       2.643   6.687  19.624  0.00  0.00    +0.000 A 
ATOM      2  C   UNL     1       2.641   7.245  18.341  0.00  0.00    +0.000 A 
ATOM      3  C   UNL     1       1.972   8.450  18.097  0.00  0.00    +0.000 A 
ATOM      4  C   UNL     1       1.271   9.112  19.114  0.00  0.00    +0.000 A 
ATOM      5  C   UNL     1       1.176   8.509  20.364  0.00  0.00    +0.000 A 
ATOM      6  C   UNL     1       1.836   7.292  20.606  0.00  0.00    +0.000 A 
ENDROOT
BRANCH   1   7
ATOM      7  C   UNL     1       3.531   5.496  19.992  0.00  0.00    +0.000 C 
BRANCH   7  12
ATOM      8  C   UNL     1       3.727   3.678  18.228  0.00  0.00    +0.000 C 
ATOM      9  C   UNL     1       2.637   3.648  17.150  0.00  0.00    +0.000 C 
ATOM     10  C   UNL     1       1.369   3.415  17.927  0.00  0.00    +0.000 C 
ATOM     11  C   UNL     1       1.621   4.134  19.240  0.00  0.00    +0.000 C 
ATOM     12  N   UNL     1       3.081   4.211  19.444  0.00  0.00    +0.000 NA
BRANCH   8  16
ATOM     13  C   UNL     1       6.948   6.162  16.910  0.00  0.00    +0.000 A 
ATOM     14  C   UNL     1       7.174   5.277  17.960  0.00  0.00    +0.000 A 
ATOM     15  C   UNL     1       6.193   4.349  18.314  0.00  0.00    +0.000 A 
ATOM     16  C   UNL     1       4.983   4.271  17.608  0.00  0.00    +0.000 A 
ATOM     17  C   UNL     1       4.854   5.042  16.438  0.00  0.00    +0.000 A 
ATOM     18  C   UNL     1       5.828   5.986  16.099  0.00  0.00    +0.000 A 
BRANCH  13  20
ATOM     19  C   UNL     1       7.911   8.189  17.671  0.00  0.00    +0.000 C 
ATOM     20  O   UNL     1       7.731   7.243  16.617  0.00  0.00    +0.000 OA
ENDBRANCH  13  20
ENDBRANCH   8  16
ENDBRANCH   7  12
ENDBRANCH   1   7
BRANCH   4  21
ATOM     21  O   UNL     1       0.782  10.343  18.741  0.00  0.00    +0.000 OA
BRANCH  21  22
ATOM     22  C   UNL     1      -0.420  10.846  19.200  0.00  0.00    +0.000 A 
ATOM     23  C   UNL     1      -0.326  11.691  20.337  0.00  0.00    +0.000 A 
ATOM     24  C   UNL     1      -1.407  12.481  20.750  0.00  0.00    +0.000 A 
ATOM     25  C   UNL     1      -2.563  12.410  19.988  0.00  0.00    +0.000 A 
ATOM     26  C   UNL     1      -3.804  13.151  20.079  0.00  0.00    +0.000 A 
ATOM     27  O   UNL     1      -4.045  14.047  20.859  0.00  0.00    +0.000 OA
ATOM     28  N   UNL     1      -4.596  12.649  19.080  0.00  0.00    +0.000 N 
ATOM     29  O   UNL     1      -3.894  11.707  18.274  0.00  0.00    +0.000 OA
ATOM     30  C   UNL     1      -2.668  11.580  18.890  0.00  0.00    +0.000 A 
ATOM     31  C   UNL     1      -1.614  10.791  18.463  0.00  0.00    +0.000 A 
ATOM     32 CL   UNL     1      -1.780   9.868  17.018  0.00  0.00    +0.000 Cl
ATOM     33  H   UNL     1      -5.416  13.111  18.708  0.00  0.00    +0.000 HD
ENDBRANCH  21  22
ENDBRANCH   4  21
TORSDOF 6
ENDMDL
MODEL 3
REMARK VINA RESULT:      -8.8      0.897      1.385
REMARK  Name = 
REMARK  7 active torsions:
REMARK  status: ('A' for Active; 'I' for Inactive)
REMARK    1  A    between atoms: C_1  and  O_2
REMARK    2  A    between atoms: O_2  and  C_3
REMARK    3  A    between atoms: C_6  and  C_7
REMARK    4  A    between atoms: N_11  and  C_12
REMARK    5  A    between atoms: C_12  and  C_13
REMARK    6  A    between atoms: C_16  and  O_17
REMARK    7  A    between atoms: O_17  and  C_18
REMARK                            x       y       z     vdW  Elec       q    Type
REMARK                         _______ _______ _______ _____ _____    ______ ____
ROOT
ATOM      1  C   UNL     1       2.377   7.147  19.642  0.00  0.00    +0.000 A 
ATOM      2  C   UNL     1       2.436   7.576  18.312  0.00  0.00    +0.000 A 
ATOM      3  C   UNL     1       1.777   8.748  17.918  0.00  0.00    +0.000 A 
ATOM      4  C   UNL     1       1.027   9.502  18.831  0.00  0.00    +0.000 A 
ATOM      5  C   UNL     1       0.873   9.024  20.128  0.00  0.00    +0.000 A 
ATOM      6  C   UNL     1       1.523   7.841  20.520  0.00  0.00    +0.000 A 
ENDROOT
BRANCH   1   7
ATOM      7  C   UNL     1       3.248   6.004  20.167  0.00  0.00    +0.000 C 
BRANCH   7  12
ATOM      8  C   UNL     1       3.519   4.170  18.430  0.00  0.00    +0.000 C 
ATOM      9  C   UNL     1       2.395   4.034  17.396  0.00  0.00    +0.000 C 
ATOM     10  C   UNL     1       1.178   3.721  18.225  0.00  0.00    +0.000 C 
ATOM     11  C   UNL     1       1.423   4.485  19.515  0.00  0.00    +0.000 C 
ATOM     12  N   UNL     1       2.879   4.677  19.660  0.00  0.00    +0.000 NA
BRANCH   8  16
ATOM     13  C   UNL     1       6.767   5.321  15.900  0.00  0.00    +0.000 A 
ATOM     14  C   UNL     1       5.560   6.003  15.788  0.00  0.00    +0.000 A 
ATOM     15  C   UNL     1       4.531   5.755  16.698  0.00  0.00    +0.000 A 
ATOM     16  C   UNL     1       4.701   4.844  17.751  0.00  0.00    +0.000 A 
ATOM     17  C   UNL     1       5.986   4.310  17.958  0.00  0.00    +0.000 A 
ATOM     18  C   UNL     1       7.008   4.542  17.031  0.00  0.00    +0.000 A 
BRANCH  13  20
ATOM     19  C   UNL     1       7.365   4.898  13.647  0.00  0.00    +0.000 C 
ATOM     20  O   UNL     1       7.754   5.318  14.955  0.00  0.00    +0.000 OA
ENDBRANCH  13  20
ENDBRANCH   8  16
ENDBRANCH   7  12
ENDBRANCH   1   7
BRANCH   4  21
ATOM     21  O   UNL     1       0.555  10.687  18.316  0.00  0.00    +0.000 OA
BRANCH  21  22
ATOM     22  C   UNL     1      -0.791  10.980  18.214  0.00  0.00    +0.000 A 
ATOM     23  C   UNL     1      -1.548  10.076  17.423  0.00  0.00    +0.000 A 
ATOM     24  C   UNL     1      -2.949  10.086  17.444  0.00  0.00    +0.000 A 
ATOM     25  C   UNL     1      -3.558  11.006  18.282  0.00  0.00    +0.000 A 
ATOM     26  C   UNL     1      -4.954  11.212  18.608  0.00  0.00    +0.000 A 
ATOM     27  O   UNL     1      -5.886  10.546  18.212  0.00  0.00    +0.000 OA
ATOM     28  N   UNL     1      -4.968  12.273  19.475  0.00  0.00    +0.000 N 
ATOM     29  O   UNL     1      -3.649  12.688  19.820  0.00  0.00    +0.000 OA
ATOM     30  C   UNL     1      -2.830  11.900  19.043  0.00  0.00    +0.000 A 
ATOM     31  C   UNL     1      -1.447  11.909  19.039  0.00  0.00    +0.000 A 
ATOM     32 CL   UNL     1      -0.605  12.973  20.100  0.00  0.00    +0.000 Cl
ATOM     33  H   UNL     1      -5.740  12.509  20.085  0.00  0.00    +0.000 HD
ENDBRANCH  21  22
ENDBRANCH   4  21
TORSDOF 6
ENDMDL
MODEL 4
REMARK VINA RESULT:      -8.8      1.082      1.266
REMARK  Name = 
REMARK  7 active torsions:
REMARK  status: ('A' for Active; 'I' for Inactive)
REMARK    1  A    between atoms: C_1  and  O_2
REMARK    2  A    between atoms: O_2  and  C_3
REMARK    3  A    between atoms: C_6  and  C_7
REMARK    4  A    between atoms: N_11  and  C_12
REMARK    5  A    between atoms: C_12  and  C_13
REMARK    6  A    between atoms: C_16  and  O_17
REMARK    7  A    between atoms: O_17  and  C_18
REMARK                            x       y       z     vdW  Elec       q    Type
REMARK                         _______ _______ _______ _____ _____    ______ ____
ROOT
ATOM      1  C   UNL     1       2.611   6.837  19.507  0.00  0.00    +0.000 A 
ATOM      2  C   UNL     1       2.730   7.256  18.178  0.00  0.00    +0.000 A 
ATOM      3  C   UNL     1       2.191   8.483  17.774  0.00  0.00    +0.000 A 
ATOM      4  C   UNL     1       1.502   9.307  18.674  0.00  0.00    +0.000 A 
ATOM      5  C   UNL     1       1.284   8.849  19.969  0.00  0.00    +0.000 A 
ATOM      6  C   UNL     1       1.813   7.610  20.372  0.00  0.00    +0.000 A 
ENDROOT
BRANCH   1   7
ATOM      7  C   UNL     1       3.362   5.618  20.047  0.00  0.00    +0.000 C 
BRANCH   7  12
ATOM      8  C   UNL     1       3.557   3.731  18.357  0.00  0.00    +0.000 C 
ATOM      9  C   UNL     1       2.510   3.703  17.237  0.00  0.00    +0.000 C 
ATOM     10  C   UNL     1       1.204   3.545  17.969  0.00  0.00    +0.000 C 
ATOM     11  C   UNL     1       1.432   4.302  19.266  0.00  0.00    +0.000 C 
ATOM     12  N   UNL     1       2.885   4.331  19.525  0.00  0.00    +0.000 NA
BRANCH   8  16
ATOM     13  C   UNL     1       6.883   6.058  17.014  0.00  0.00    +0.000 A 
ATOM     14  C   UNL     1       7.027   5.290  18.166  0.00  0.00    +0.000 A 
ATOM     15  C   UNL     1       6.016   4.406  18.546  0.00  0.00    +0.000 A 
ATOM     16  C   UNL     1       4.858   4.254  17.768  0.00  0.00    +0.000 A 
ATOM     17  C   UNL     1       4.818   4.894  16.516  0.00  0.00    +0.000 A 
ATOM     18  C   UNL     1       5.822   5.797  16.149  0.00  0.00    +0.000 A 
BRANCH  13  20
ATOM     19  C   UNL     1       7.783   8.168  17.609  0.00  0.00    +0.000 C 
ATOM     20  O   UNL     1       7.694   7.101  16.664  0.00  0.00    +0.000 OA
ENDBRANCH  13  20
ENDBRANCH   8  16
ENDBRANCH   7  12
ENDBRANCH   1   7
BRANCH   4  21
ATOM     21  O   UNL     1       1.152  10.530  18.151  0.00  0.00    +0.000 OA
BRANCH  21  22
ATOM     22  C   UNL     1       0.042  11.238  18.569  0.00  0.00    +0.000 A 
ATOM     23  C   UNL     1      -1.204  10.734  18.113  0.00  0.00    +0.000 A 
ATOM     24  C   UNL     1      -2.415  11.175  18.663  0.00  0.00    +0.000 A 
ATOM     25  C   UNL     1      -2.337  12.113  19.680  0.00  0.00    +0.000 A 
ATOM     26  C   UNL     1      -3.370  12.695  20.513  0.00  0.00    +0.000 A 
ATOM     27  O   UNL     1      -4.548  12.413  20.491  0.00  0.00    +0.000 OA
ATOM     28  N   UNL     1      -2.716  13.576  21.333  0.00  0.00    +0.000 N 
ATOM     29  O   UNL     1      -1.303  13.509  21.158  0.00  0.00    +0.000 OA
ATOM     30  C   UNL     1      -1.131  12.621  20.119  0.00  0.00    +0.000 A 
ATOM     31  C   UNL     1       0.077  12.200  19.592  0.00  0.00    +0.000 A 
ATOM     32 CL   UNL     1       1.547  12.792  20.268  0.00  0.00    +0.000 Cl
ATOM     33  H   UNL     1      -3.094  13.953  22.192  0.00  0.00    +0.000 HD
ENDBRANCH  21  22
ENDBRANCH   4  21
TORSDOF 6
ENDMDL
MODEL 5
REMARK VINA RESULT:      -8.7      2.444      3.380
REMARK  Name = 
REMARK  7 active torsions:
REMARK  status: ('A' for Active; 'I' for Inactive)
REMARK    1  A    between atoms: C_1  and  O_2
REMARK    2  A    between atoms: O_2  and  C_3
REMARK    3  A    between atoms: C_6  and  C_7
REMARK    4  A    between atoms: N_11  and  C_12
REMARK    5  A    between atoms: C_12  and  C_13
REMARK    6  A    between atoms: C_16  and  O_17
REMARK    7  A    between atoms: O_17  and  C_18
REMARK                            x       y       z     vdW  Elec       q    Type
REMARK                         _______ _______ _______ _____ _____    ______ ____
ROOT
ATOM      1  C   UNL     1       2.511   7.012  19.502  0.00  0.00    +0.000 A 
ATOM      2  C   UNL     1       2.447   7.431  18.168  0.00  0.00    +0.000 A 
ATOM      3  C   UNL     1       1.752   8.598  17.828  0.00  0.00    +0.000 A 
ATOM      4  C   UNL     1       1.087   9.359  18.800  0.00  0.00    +0.000 A 
ATOM      5  C   UNL     1       1.054   8.891  20.109  0.00  0.00    +0.000 A 
ATOM      6  C   UNL     1       1.740   7.712  20.449  0.00  0.00    +0.000 A 
ENDROOT
BRANCH   1   7
ATOM      7  C   UNL     1       3.430   5.875  19.954  0.00  0.00    +0.000 C 
BRANCH   7  12
ATOM      8  C   UNL     1       3.641   3.898  18.372  0.00  0.00    +0.000 C 
ATOM      9  C   UNL     1       2.548   3.753  17.306  0.00  0.00    +0.000 C 
ATOM     10  C   UNL     1       1.285   3.582  18.107  0.00  0.00    +0.000 C 
ATOM     11  C   UNL     1       1.533   4.427  19.344  0.00  0.00    +0.000 C 
ATOM     12  N   UNL     1       2.993   4.538  19.533  0.00  0.00    +0.000 NA
BRANCH   8  16
ATOM     13  C   UNL     1       6.932   6.234  16.960  0.00  0.00    +0.000 A 
ATOM     14  C   UNL     1       7.169   5.266  17.932  0.00  0.00    +0.000 A 
ATOM     15  C   UNL     1       6.150   4.388  18.305  0.00  0.00    +0.000 A 
ATOM     16  C   UNL     1       4.889   4.442  17.692  0.00  0.00    +0.000 A 
ATOM     17  C   UNL     1       4.731   5.297  16.586  0.00  0.00    +0.000 A 
ATOM     18  C   UNL     1       5.745   6.192  16.231  0.00  0.00    +0.000 A 
BRANCH  13  20
ATOM     19  C   UNL     1       7.820   8.323  17.642  0.00  0.00    +0.000 C 
ATOM     20  O   UNL     1       7.771   7.275  16.674  0.00  0.00    +0.000 OA
ENDBRANCH  13  20
ENDBRANCH   8  16
ENDBRANCH   7  12
ENDBRANCH   1   7
BRANCH   4  21
ATOM     21  O   UNL     1       0.567  10.539  18.321  0.00  0.00    +0.000 OA
BRANCH  21  22
ATOM     22  C   UNL     1       1.027  11.780  18.714  0.00  0.00    +0.000 A 
ATOM     23  C   UNL     1       2.325  12.119  18.249  0.00  0.00    +0.000 A 
ATOM     24  C   UNL     1       2.812  13.429  18.337  0.00  0.00    +0.000 A 
ATOM     25  C   UNL     1       1.963  14.379  18.885  0.00  0.00    +0.000 A 
ATOM     26  C   UNL     1       2.115  15.812  19.032  0.00  0.00    +0.000 A 
ATOM     27  O   UNL     1       3.049  16.475  18.637  0.00  0.00    +0.000 OA
ATOM     28  N   UNL     1       0.971  16.231  19.658  0.00  0.00    +0.000 N 
ATOM     29  O   UNL     1       0.038  15.166  19.818  0.00  0.00    +0.000 OA
ATOM     30  C   UNL     1       0.706  14.056  19.354  0.00  0.00    +0.000 A 
ATOM     31  C   UNL     1       0.203  12.769  19.277  0.00  0.00    +0.000 A 
ATOM     32 CL   UNL     1      -1.417  12.463  19.777  0.00  0.00    +0.000 Cl
ATOM     33  H   UNL     1       0.644  17.188  19.680  0.00  0.00    +0.000 HD
ENDBRANCH  21  22
ENDBRANCH   4  21
TORSDOF 6
ENDMDL
MODEL 6
REMARK VINA RESULT:      -8.7      1.196      1.674
REMARK  Name = 
REMARK  7 active torsions:
REMARK  status: ('A' for Active; 'I' for Inactive)
REMARK    1  A    between atoms: C_1  and  O_2
REMARK    2  A    between atoms: O_2  and  C_3
REMARK    3  A    between atoms: C_6  and  C_7
REMARK    4  A    between atoms: N_11  and  C_12
REMARK    5  A    between atoms: C_12  and  C_13
REMARK    6  A    between atoms: C_16  and  O_17
REMARK    7  A    between atoms: O_17  and  C_18
REMARK                            x       y       z     vdW  Elec       q    Type
REMARK                         _______ _______ _______ _____ _____    ______ ____
ROOT
ATOM      1  C   UNL     1       2.293   7.245  18.703  0.00  0.00    +0.000 A 
ATOM      2  C   UNL     1       1.830   7.505  19.997  0.00  0.00    +0.000 A 
ATOM      3  C   UNL     1       1.278   8.753  20.312  0.00  0.00    +0.000 A 
ATOM      4  C   UNL     1       1.198   9.775  19.357  0.00  0.00    +0.000 A 
ATOM      5  C   UNL     1       1.756   9.563  18.101  0.00  0.00    +0.000 A 
ATOM      6  C   UNL     1       2.323   8.314  17.788  0.00  0.00    +0.000 A 
ENDROOT
BRANCH   1   7
ATOM      7  C   UNL     1       2.702   5.842  18.252  0.00  0.00    +0.000 C 
BRANCH   7  12
ATOM      8  C   UNL     1       3.943   3.910  19.340  0.00  0.00    +0.000 C 
ATOM      9  C   UNL     1       3.318   2.519  19.183  0.00  0.00    +0.000 C 
ATOM     10  C   UNL     1       1.975   2.650  19.850  0.00  0.00    +0.000 C 
ATOM     11  C   UNL     1       1.580   4.089  19.570  0.00  0.00    +0.000 C 
ATOM     12  N   UNL     1       2.816   4.863  19.340  0.00  0.00    +0.000 NA
BRANCH   8  16
ATOM     13  C   UNL     1       6.799   4.940  16.330  0.00  0.00    +0.000 A 
ATOM     14  C   UNL     1       7.083   5.255  17.656  0.00  0.00    +0.000 A 
ATOM     15  C   UNL     1       6.246   4.801  18.676  0.00  0.00    +0.000 A 
ATOM     16  C   UNL     1       5.128   4.001  18.392  0.00  0.00    +0.000 A 
ATOM     17  C   UNL     1       4.968   3.540  17.073  0.00  0.00    +0.000 A 
ATOM     18  C   UNL     1       5.795   4.015  16.050  0.00  0.00    +0.000 A 
BRANCH  13  20
ATOM     19  C   UNL     1       7.109   4.910  13.981  0.00  0.00    +0.000 C 
ATOM     20  O   UNL     1       7.412   5.502  15.245  0.00  0.00    +0.000 OA
ENDBRANCH  13  20
ENDBRANCH   8  16
ENDBRANCH   7  12
ENDBRANCH   1   7
BRANCH   4  21
ATOM     21  O   UNL     1       0.515  10.888  19.790  0.00  0.00    +0.000 OA
BRANCH  21  22
ATOM     22  C   UNL     1      -0.704  11.273  19.268  0.00  0.00    +0.000 A 
ATOM     23  C   UNL     1      -1.167  10.495  18.174  0.00  0.00    +0.000 A 
ATOM     24  C   UNL     1      -2.488  10.591  17.718  0.00  0.00    +0.000 A 
ATOM     25  C   UNL     1      -3.323  11.467  18.394  0.00  0.00    +0.000 A 
ATOM     26  C   UNL     1      -4.740  11.729  18.245  0.00  0.00    +0.000 A 
ATOM     27  O   UNL     1      -5.496  11.161  17.486  0.00  0.00    +0.000 OA
ATOM     28  N   UNL     1      -5.023  12.703  19.166  0.00  0.00    +0.000 N 
ATOM     29  O   UNL     1      -3.894  13.002  19.981  0.00  0.00    +0.000 OA
ATOM     30  C   UNL     1      -2.879  12.238  19.448  0.00  0.00    +0.000 A 
ATOM     31  C   UNL     1      -1.579  12.161  19.917  0.00  0.00    +0.000 A 
ATOM     32 CL   UNL     1      -1.126  13.068  21.309  0.00  0.00    +0.000 Cl
ATOM     33  H   UNL     1      -5.952  12.930  19.498  0.00  0.00    +0.000 HD
ENDBRANCH  21  22
ENDBRANCH   4  21
TORSDOF 6
ENDMDL
MODEL 7
REMARK VINA RESULT:      -8.6      3.108      9.588
REMARK  Name = 
REMARK  7 active torsions:
REMARK  status: ('A' for Active; 'I' for Inactive)
REMARK    1  A    between atoms: C_1  and  O_2
REMARK    2  A    between atoms: O_2  and  C_3
REMARK    3  A    between atoms: C_6  and  C_7
REMARK    4  A    between atoms: N_11  and  C_12
REMARK    5  A    between atoms: C_12  and  C_13
REMARK    6  A    between atoms: C_16  and  O_17
REMARK    7  A    between atoms: O_17  and  C_18
REMARK                            x       y       z     vdW  Elec       q    Type
REMARK                         _______ _______ _______ _____ _____    ______ ____
ROOT
ATOM      1  C   UNL     1       1.834   8.754  18.962  0.00  0.00    +0.000 A 
ATOM      2  C   UNL     1       1.850   7.728  19.913  0.00  0.00    +0.000 A 
ATOM      3  C   UNL     1       2.682   6.616  19.736  0.00  0.00    +0.000 A 
ATOM      4  C   UNL     1       3.495   6.488  18.601  0.00  0.00    +0.000 A 
ATOM      5  C   UNL     1       3.403   7.449  17.600  0.00  0.00    +0.000 A 
ATOM      6  C   UNL     1       2.558   8.560  17.771  0.00  0.00    +0.000 A 
ENDROOT
BRANCH   1   7
ATOM      7  C   UNL     1       1.113  10.081  19.210  0.00  0.00    +0.000 C 
BRANCH   7  12
ATOM      8  C   UNL     1      -1.274  10.470  19.987  0.00  0.00    +0.000 C 
ATOM      9  C   UNL     1      -1.518  11.707  20.861  0.00  0.00    +0.000 C 
ATOM     10  C   UNL     1      -0.661  11.465  22.074  0.00  0.00    +0.000 C 
ATOM     11  C   UNL     1       0.532  10.707  21.520  0.00  0.00    +0.000 C 
ATOM     12  N   UNL     1       0.106  10.035  20.277  0.00  0.00    +0.000 NA
BRANCH   8  16
ATOM     13  C   UNL     1      -3.360  10.619  16.259  0.00  0.00    +0.000 A 
ATOM     14  C   UNL     1      -3.614  11.607  17.205  0.00  0.00    +0.000 A 
ATOM     15  C   UNL     1      -2.844  11.674  18.368  0.00  0.00    +0.000 A 
ATOM     16  C   UNL     1      -1.790  10.775  18.589  0.00  0.00    +0.000 A 
ATOM     17  C   UNL     1      -1.431   9.910  17.539  0.00  0.00    +0.000 A 
ATOM     18  C   UNL     1      -2.219   9.830  16.386  0.00  0.00    +0.000 A 
BRANCH  13  20
ATOM     19  C   UNL     1      -3.521  10.105  13.951  0.00  0.00    +0.000 C 
ATOM     20  O   UNL     1      -4.175  10.322  15.202  0.00  0.00    +0.000 OA
ENDBRANCH  13  20
ENDBRANCH   8  16
ENDBRANCH   7  12
ENDBRANCH   1   7
BRANCH   4  21
ATOM     21  O   UNL     1       4.343   5.406  18.645  0.00  0.00    +0.000 OA
BRANCH  21  22
ATOM     22  C   UNL     1       5.057   4.964  17.548  0.00  0.00    +0.000 A 
ATOM     23  C   UNL     1       4.392   4.003  16.741  0.00  0.00    +0.000 A 
ATOM     24  C   UNL     1       4.868   3.666  15.468  0.00  0.00    +0.000 A 
ATOM     25  C   UNL     1       6.007   4.323  15.029  0.00  0.00    +0.000 A 
ATOM     26  C   UNL     1       6.693   4.281  13.753  0.00  0.00    +0.000 A 
ATOM     27  O   UNL     1       6.342   3.659  12.774  0.00  0.00    +0.000 OA
ATOM     28  N   UNL     1       7.767   5.119  13.896  0.00  0.00    +0.000 N 
ATOM     29  O   UNL     1       7.748   5.790  15.153  0.00  0.00    +0.000 OA
ATOM     30  C   UNL     1       6.669   5.246  15.813  0.00  0.00    +0.000 A 
ATOM     31  C   UNL     1       6.218   5.596  17.073  0.00  0.00    +0.000 A 
ATOM     32 CL   UNL     1       7.029   6.840  17.947  0.00  0.00    +0.000 Cl
ATOM     33  H   UNL     1       8.297   5.511  13.129  0.00  0.00    +0.000 HD
ENDBRANCH  21  22
ENDBRANCH   4  21
TORSDOF 6
ENDMDL
MODEL 8
REMARK VINA RESULT:      -8.6      1.505      2.232
REMARK  Name = 
REMARK  7 active torsions:
REMARK  status: ('A' for Active; 'I' for Inactive)
REMARK    1  A    between atoms: C_1  and  O_2
REMARK    2  A    between atoms: O_2  and  C_3
REMARK    3  A    between atoms: C_6  and  C_7
REMARK    4  A    between atoms: N_11  and  C_12
REMARK    5  A    between atoms: C_12  and  C_13
REMARK    6  A    between atoms: C_16  and  O_17
REMARK    7  A    between atoms: O_17  and  C_18
REMARK                            x       y       z     vdW  Elec       q    Type
REMARK                         _______ _______ _______ _____ _____    ______ ____
ROOT
ATOM      1  C   UNL     1       2.647   6.702  19.683  0.00  0.00    +0.000 A 
ATOM      2  C   UNL     1       2.694   7.285  18.413  0.00  0.00    +0.000 A 
ATOM      3  C   UNL     1       2.012   8.482  18.160  0.00  0.00    +0.000 A 
ATOM      4  C   UNL     1       1.251   9.110  19.156  0.00  0.00    +0.000 A 
ATOM      5  C   UNL     1       1.110   8.480  20.388  0.00  0.00    +0.000 A 
ATOM      6  C   UNL     1       1.783   7.271  20.637  0.00  0.00    +0.000 A 
ENDROOT
BRANCH   1   7
ATOM      7  C   UNL     1       3.540   5.521  20.070  0.00  0.00    +0.000 C 
BRANCH   7  12
ATOM      8  C   UNL     1       3.593   3.794  18.207  0.00  0.00    +0.000 C 
ATOM      9  C   UNL     1       2.355   3.722  17.304  0.00  0.00    +0.000 C 
ATOM     10  C   UNL     1       1.241   3.361  18.249  0.00  0.00    +0.000 C 
ATOM     11  C   UNL     1       1.639   4.046  19.545  0.00  0.00    +0.000 C 
ATOM     12  N   UNL     1       3.104   4.228  19.531  0.00  0.00    +0.000 NA
BRANCH   8  16
ATOM     13  C   UNL     1       6.833   4.916  15.654  0.00  0.00    +0.000 A 
ATOM     14  C   UNL     1       5.539   5.261  15.280  0.00  0.00    +0.000 A 
ATOM     15  C   UNL     1       4.476   5.044  16.159  0.00  0.00    +0.000 A 
ATOM     16  C   UNL     1       4.694   4.506  17.437  0.00  0.00    +0.000 A 
ATOM     17  C   UNL     1       6.024   4.343  17.863  0.00  0.00    +0.000 A 
ATOM     18  C   UNL     1       7.084   4.539  16.972  0.00  0.00    +0.000 A 
BRANCH  13  20
ATOM     19  C   UNL     1       7.640   5.197  13.444  0.00  0.00    +0.000 C 
ATOM     20  O   UNL     1       7.907   4.879  14.810  0.00  0.00    +0.000 OA
ENDBRANCH  13  20
ENDBRANCH   8  16
ENDBRANCH   7  12
ENDBRANCH   1   7
BRANCH   4  21
ATOM     21  O   UNL     1       0.756  10.338  18.784  0.00  0.00    +0.000 OA
BRANCH  21  22
ATOM     22  C   UNL     1      -0.450  10.834  19.241  0.00  0.00    +0.000 A 
ATOM     23  C   UNL     1      -0.366  11.659  20.393  0.00  0.00    +0.000 A 
ATOM     24  C   UNL     1      -1.451  12.441  20.810  0.00  0.00    +0.000 A 
ATOM     25  C   UNL     1      -2.600  12.383  20.037  0.00  0.00    +0.000 A 
ATOM     26  C   UNL     1      -3.842  13.123  20.130  0.00  0.00    +0.000 A 
ATOM     27  O   UNL     1      -4.090  14.005  20.923  0.00  0.00    +0.000 OA
ATOM     28  N   UNL     1      -4.626  12.638  19.116  0.00  0.00    +0.000 N 
ATOM     29  O   UNL     1      -3.916  11.710  18.300  0.00  0.00    +0.000 OA
ATOM     30  C   UNL     1      -2.696  11.573  18.924  0.00  0.00    +0.000 A 
ATOM     31  C   UNL     1      -1.638  10.791  18.493  0.00  0.00    +0.000 A 
ATOM     32 CL   UNL     1      -1.791   9.894  17.031  0.00  0.00    +0.000 Cl
ATOM     33  H   UNL     1      -5.442  13.106  18.745  0.00  0.00    +0.000 HD
ENDBRANCH  21  22
ENDBRANCH   4  21
TORSDOF 6
ENDMDL
MODEL 9
REMARK VINA RESULT:      -8.6      1.233      1.961
REMARK  Name = 
REMARK  7 active torsions:
REMARK  status: ('A' for Active; 'I' for Inactive)
REMARK    1  A    between atoms: C_1  and  O_2
REMARK    2  A    between atoms: O_2  and  C_3
REMARK    3  A    between atoms: C_6  and  C_7
REMARK    4  A    between atoms: N_11  and  C_12
REMARK    5  A    between atoms: C_12  and  C_13
REMARK    6  A    between atoms: C_16  and  O_17
REMARK    7  A    between atoms: O_17  and  C_18
REMARK                            x       y       z     vdW  Elec       q    Type
REMARK                         _______ _______ _______ _____ _____    ______ ____
ROOT
ATOM      1  C   UNL     1       2.019   6.633  19.231  0.00  0.00    +0.000 A 
ATOM      2  C   UNL     1       1.556   7.248  20.399  0.00  0.00    +0.000 A 
ATOM      3  C   UNL     1       1.265   8.618  20.407  0.00  0.00    +0.000 A 
ATOM      4  C   UNL     1       1.451   9.408  19.264  0.00  0.00    +0.000 A 
ATOM      5  C   UNL     1       2.013   8.826  18.133  0.00  0.00    +0.000 A 
ATOM      6  C   UNL     1       2.319   7.454  18.128  0.00  0.00    +0.000 A 
ENDROOT
BRANCH   1   7
ATOM      7  C   UNL     1       2.144   5.113  19.108  0.00  0.00    +0.000 C 
BRANCH   7  12
ATOM      8  C   UNL     1       4.542   4.318  19.378  0.00  0.00    +0.000 C 
ATOM      9  C   UNL     1       4.768   2.801  19.360  0.00  0.00    +0.000 C 
ATOM     10  C   UNL     1       3.973   2.305  20.537  0.00  0.00    +0.000 C 
ATOM     11  C   UNL     1       2.792   3.257  20.593  0.00  0.00    +0.000 C 
ATOM     12  N   UNL     1       3.195   4.521  19.945  0.00  0.00    +0.000 NA
BRANCH   8  16
ATOM     13  C   UNL     1       6.567   5.312  15.746  0.00  0.00    +0.000 A 
ATOM     14  C   UNL     1       5.487   4.437  15.690  0.00  0.00    +0.000 A 
ATOM     15  C   UNL     1       4.713   4.209  16.829  0.00  0.00    +0.000 A 
ATOM     16  C   UNL     1       4.987   4.874  18.034  0.00  0.00    +0.000 A 
ATOM     17  C   UNL     1       5.960   5.890  18.017  0.00  0.00    +0.000 A 
ATOM     18  C   UNL     1       6.748   6.099  16.881  0.00  0.00    +0.000 A 
BRANCH  13  20
ATOM     19  C   UNL     1       7.258   4.754  13.549  0.00  0.00    +0.000 C 
ATOM     20  O   UNL     1       7.516   5.446  14.771  0.00  0.00    +0.000 OA
ENDBRANCH  13  20
ENDBRANCH   8  16
ENDBRANCH   7  12
ENDBRANCH   1   7
BRANCH   4  21
ATOM     21  O   UNL     1       0.996  10.699  19.401  0.00  0.00    +0.000 OA
BRANCH  21  22
ATOM     22  C   UNL     1      -0.262  11.102  18.999  0.00  0.00    +0.000 A 
ATOM     23  C   UNL     1      -0.847  10.318  17.969  0.00  0.00    +0.000 A 
ATOM     24  C   UNL     1      -2.205  10.434  17.647  0.00  0.00    +0.000 A 
ATOM     25  C   UNL     1      -2.952  11.336  18.390  0.00  0.00    +0.000 A 
ATOM     26  C   UNL     1      -4.371  11.624  18.380  0.00  0.00    +0.000 A 
ATOM     27  O   UNL     1      -5.210  11.062  17.710  0.00  0.00    +0.000 OA
ATOM     28  N   UNL     1      -4.542  12.616  19.309  0.00  0.00    +0.000 N 
ATOM     29  O   UNL     1      -3.331  12.903  20.002  0.00  0.00    +0.000 OA
ATOM     30  C   UNL     1      -2.389  12.112  19.382  0.00  0.00    +0.000 A 
ATOM     31  C   UNL     1      -1.050  12.015  19.718  0.00  0.00    +0.000 A 
ATOM     32 CL   UNL     1      -0.442  12.932  21.044  0.00  0.00    +0.000 Cl
ATOM     33  H   UNL     1      -5.428  12.866  19.729  0.00  0.00    +0.000 HD
ENDBRANCH  21  22
ENDBRANCH   4  21
TORSDOF 6
ENDMDL
