MODEL 1
REMARK VINA RESULT:      -6.5      0.000      0.000
REMARK  Name = 
REMARK  7 active torsions:
REMARK  status: ('A' for Active; 'I' for Inactive)
REMARK    1  A    between atoms: C_1  and  O_2
REMARK    2  A    between atoms: O_2  and  C_3
REMARK    3  A    between atoms: N_5  and  C_6
REMARK    4  A    between atoms: N_5  and  C_7
REMARK    5  A    between atoms: C_7  and  C_8
REMARK    6  A    between atoms: N_10  and  C_11
REMARK    7  A    between atoms: C_11  and  C_12
REMARK                            x       y       z     vdW  Elec       q    Type
REMARK                         _______ _______ _______ _____ _____    ______ ____
ROOT
ATOM      1  C   UNL     1       5.511   4.912  19.060  0.00  0.00    +0.000 C 
ATOM      2  O   UNL     1       4.803   5.530  19.852  0.00  0.00    +0.000 OA
ATOM      3  N   UNL     1       5.458   3.537  18.912  0.00  0.00    +0.000 N 
ATOM      4  H   UNL     1       6.288   3.083  18.536  0.00  0.00    +0.000 HD
ENDROOT
BRANCH   1   5
ATOM      5  C   UNL     1       6.546   5.618  18.182  0.00  0.00    +0.000 C 
BRANCH   5   8
ATOM      6  C   UNL     1       6.854   5.117  15.813  0.00  0.00    +0.000 C 
ATOM      7  O   UNL     1       7.877   4.481  16.045  0.00  0.00    +0.000 OA
ATOM      8  N   UNL     1       6.125   5.762  16.793  0.00  0.00    +0.000 N 
ATOM      9  C   UNL     1       4.980   6.618  16.521  0.00  0.00    +0.000 C 
BRANCH   6  11
ATOM     10  C   UNL     1       6.075   4.018  13.887  0.00  0.00    +0.000 C 
ATOM     11  O   UNL     1       6.303   5.246  14.576  0.00  0.00    +0.000 OA
ENDBRANCH   6  11
ENDBRANCH   5   8
ENDBRANCH   1   5
BRANCH   3  12
ATOM     12  C   UNL     1       4.497   2.770  19.682  0.00  0.00    +0.000 C 
BRANCH  12  13
ATOM     13  C   UNL     1       3.025   3.078  19.419  0.00  0.00    +0.000 C 
ATOM     14  C   UNL     1       2.261   2.033  18.612  0.00  0.00    +0.000 C 
ATOM     15  C   UNL     1       0.805   2.452  18.785  0.00  0.00    +0.000 C 
ATOM     16  C   UNL     1       0.725   3.142  20.149  0.00  0.00    +0.000 C 
ATOM     17  C   UNL     1       2.160   3.234  20.668  0.00  0.00    +0.000 C 
ENDBRANCH  12  13
ENDBRANCH   3  12
TORSDOF 5
ENDMDL
MODEL 2
REMARK VINA RESULT:      -6.3      1.921      2.792
REMARK  Name = 
REMARK  7 active torsions:
REMARK  status: ('A' for Active; 'I' for Inactive)
REMARK    1  A    between atoms: C_1  and  O_2
REMARK    2  A    between atoms: O_2  and  C_3
REMARK    3  A    between atoms: N_5  and  C_6
REMARK    4  A    between atoms: N_5  and  C_7
REMARK    5  A    between atoms: C_7  and  C_8
REMARK    6  A    between atoms: N_10  and  C_11
REMARK    7  A    between atoms: C_11  and  C_12
REMARK                            x       y       z     vdW  Elec       q    Type
REMARK                         _______ _______ _______ _____ _____    ______ ____
ROOT
ATOM      1  C   UNL     1       4.579   3.737  17.187  0.00  0.00    +0.000 C 
ATOM      2  O   UNL     1       3.690   4.529  16.882  0.00  0.00    +0.000 OA
ATOM      3  N   UNL     1       4.325   2.475  17.698  0.00  0.00    +0.000 N 
ATOM      4  H   UNL     1       5.065   2.046  18.249  0.00  0.00    +0.000 HD
ENDROOT
BRANCH   1   5
ATOM      5  C   UNL     1       6.060   4.094  17.053  0.00  0.00    +0.000 C 
BRANCH   5   8
ATOM      6  C   UNL     1       7.174   6.250  17.318  0.00  0.00    +0.000 C 
ATOM      7  O   UNL     1       7.542   6.243  16.147  0.00  0.00    +0.000 OA
ATOM      8  N   UNL     1       6.462   5.216  17.894  0.00  0.00    +0.000 N 
ATOM      9  C   UNL     1       6.124   5.154  19.308  0.00  0.00    +0.000 C 
BRANCH   6  11
ATOM     10  C   UNL     1       7.928   8.460  17.581  0.00  0.00    +0.000 C 
ATOM     11  O   UNL     1       7.401   7.278  18.179  0.00  0.00    +0.000 OA
ENDBRANCH   6  11
ENDBRANCH   5   8
ENDBRANCH   1   5
BRANCH   3  12
ATOM     12  C   UNL     1       2.954   2.026  17.848  0.00  0.00    +0.000 C 
BRANCH  12  13
ATOM     13  C   UNL     1       2.300   2.303  19.200  0.00  0.00    +0.000 C 
ATOM     14  C   UNL     1       3.250   2.673  20.335  0.00  0.00    +0.000 C 
ATOM     15  C   UNL     1       2.312   3.182  21.425  0.00  0.00    +0.000 C 
ATOM     16  C   UNL     1       1.100   3.767  20.698  0.00  0.00    +0.000 C 
ATOM     17  C   UNL     1       1.297   3.454  19.214  0.00  0.00    +0.000 C 
ENDBRANCH  12  13
ENDBRANCH   3  12
TORSDOF 5
ENDMDL
MODEL 3
REMARK VINA RESULT:      -6.2      1.261      1.641
REMARK  Name = 
REMARK  7 active torsions:
REMARK  status: ('A' for Active; 'I' for Inactive)
REMARK    1  A    between atoms: C_1  and  O_2
REMARK    2  A    between atoms: O_2  and  C_3
REMARK    3  A    between atoms: N_5  and  C_6
REMARK    4  A    between atoms: N_5  and  C_7
REMARK    5  A    between atoms: C_7  and  C_8
REMARK    6  A    between atoms: N_10  and  C_11
REMARK    7  A    between atoms: C_11  and  C_12
REMARK                            x       y       z     vdW  Elec       q    Type
REMARK                         _______ _______ _______ _____ _____    ______ ____
ROOT
ATOM      1  C   UNL     1       4.264   4.479  17.739  0.00  0.00    +0.000 C 
ATOM      2  O   UNL     1       3.148   4.950  17.526  0.00  0.00    +0.000 OA
ATOM      3  N   UNL     1       4.477   3.142  18.028  0.00  0.00    +0.000 N 
ATOM      4  H   UNL     1       5.328   2.912  18.536  0.00  0.00    +0.000 HD
ENDROOT
BRANCH   1   5
ATOM      5  C   UNL     1       5.522   5.349  17.735  0.00  0.00    +0.000 C 
BRANCH   5   8
ATOM      6  C   UNL     1       7.155   5.095  15.939  0.00  0.00    +0.000 C 
ATOM      7  O   UNL     1       7.851   4.357  16.629  0.00  0.00    +0.000 OA
ATOM      8  N   UNL     1       5.990   5.682  16.394  0.00  0.00    +0.000 N 
ATOM      9  C   UNL     1       5.219   6.651  15.631  0.00  0.00    +0.000 C 
BRANCH   6  11
ATOM     10  C   UNL     1       6.982   4.448  13.686  0.00  0.00    +0.000 C 
ATOM     11  O   UNL     1       7.429   5.405  14.643  0.00  0.00    +0.000 OA
ENDBRANCH   6  11
ENDBRANCH   5   8
ENDBRANCH   1   5
BRANCH   3  12
ATOM     12  C   UNL     1       3.355   2.224  18.039  0.00  0.00    +0.000 C 
BRANCH  12  13
ATOM     13  C   UNL     1       2.576   2.129  19.349  0.00  0.00    +0.000 C 
ATOM     14  C   UNL     1       3.300   2.641  20.591  0.00  0.00    +0.000 C 
ATOM     15  C   UNL     1       2.193   2.708  21.638  0.00  0.00    +0.000 C 
ATOM     16  C   UNL     1       0.899   2.973  20.867  0.00  0.00    +0.000 C 
ATOM     17  C   UNL     1       1.263   2.908  19.383  0.00  0.00    +0.000 C 
ENDBRANCH  12  13
ENDBRANCH   3  12
TORSDOF 5
ENDMDL
MODEL 4
REMARK VINA RESULT:      -6.2      1.826      2.032
REMARK  Name = 
REMARK  7 active torsions:
REMARK  status: ('A' for Active; 'I' for Inactive)
REMARK    1  A    between atoms: C_1  and  O_2
REMARK    2  A    between atoms: O_2  and  C_3
REMARK    3  A    between atoms: N_5  and  C_6
REMARK    4  A    between atoms: N_5  and  C_7
REMARK    5  A    between atoms: C_7  and  C_8
REMARK    6  A    between atoms: N_10  and  C_11
REMARK    7  A    between atoms: C_11  and  C_12
REMARK                            x       y       z     vdW  Elec       q    Type
REMARK                         _______ _______ _______ _____ _____    ______ ____
ROOT
ATOM      1  C   UNL     1       4.360   6.311  18.024  0.00  0.00    +0.000 C 
ATOM      2  O   UNL     1       3.681   7.100  17.369  0.00  0.00    +0.000 OA
ATOM      3  N   UNL     1       3.959   5.803  19.247  0.00  0.00    +0.000 N 
ATOM      4  H   UNL     1       4.693   5.474  19.871  0.00  0.00    +0.000 HD
ENDROOT
BRANCH   1   5
ATOM      5  C   UNL     1       5.737   5.844  17.549  0.00  0.00    +0.000 C 
BRANCH   5   8
ATOM      6  C   UNL     1       6.617   4.794  15.529  0.00  0.00    +0.000 C 
ATOM      7  O   UNL     1       7.464   5.672  15.400  0.00  0.00    +0.000 OA
ATOM      8  N   UNL     1       5.676   4.793  16.541  0.00  0.00    +0.000 N 
ATOM      9  C   UNL     1       4.593   3.827  16.638  0.00  0.00    +0.000 C 
BRANCH   6  11
ATOM     10  C   UNL     1       6.317   4.009  13.334  0.00  0.00    +0.000 C 
ATOM     11  O   UNL     1       6.516   3.710  14.714  0.00  0.00    +0.000 OA
ENDBRANCH   6  11
ENDBRANCH   5   8
ENDBRANCH   1   5
BRANCH   3  12
ATOM     12  C   UNL     1       2.661   6.165  19.782  0.00  0.00    +0.000 C 
BRANCH  12  13
ATOM     13  C   UNL     1       1.724   5.006  20.118  0.00  0.00    +0.000 C 
ATOM     14  C   UNL     1       1.494   3.993  19.000  0.00  0.00    +0.000 C 
ATOM     15  C   UNL     1       0.802   2.836  19.715  0.00  0.00    +0.000 C 
ATOM     16  C   UNL     1       1.311   2.867  21.157  0.00  0.00    +0.000 C 
ATOM     17  C   UNL     1       2.172   4.125  21.281  0.00  0.00    +0.000 C 
ENDBRANCH  12  13
ENDBRANCH   3  12
TORSDOF 5
ENDMDL
MODEL 5
REMARK VINA RESULT:      -6.2      2.295      3.098
REMARK  Name = 
REMARK  7 active torsions:
REMARK  status: ('A' for Active; 'I' for Inactive)
REMARK    1  A    between atoms: C_1  and  O_2
REMARK    2  A    between atoms: O_2  and  C_3
REMARK    3  A    between atoms: N_5  and  C_6
REMARK    4  A    between atoms: N_5  and  C_7
REMARK    5  A    between atoms: C_7  and  C_8
REMARK    6  A    between atoms: N_10  and  C_11
REMARK    7  A    between atoms: C_11  and  C_12
REMARK                            x       y       z     vdW  Elec       q    Type
REMARK                         _______ _______ _______ _____ _____    ______ ____
ROOT
ATOM      1  C   UNL     1       4.777   5.347  18.024  0.00  0.00    +0.000 C 
ATOM      2  O   UNL     1       4.117   5.507  16.999  0.00  0.00    +0.000 OA
ATOM      3  N   UNL     1       4.285   5.617  19.290  0.00  0.00    +0.000 N 
ATOM      4  H   UNL     1       4.970   5.813  20.017  0.00  0.00    +0.000 HD
ENDROOT
BRANCH   1   5
ATOM      5  C   UNL     1       6.227   4.861  17.984  0.00  0.00    +0.000 C 
BRANCH   5   8
ATOM      6  C   UNL     1       7.489   6.930  17.689  0.00  0.00    +0.000 C 
ATOM      7  O   UNL     1       7.050   7.077  16.553  0.00  0.00    +0.000 OA
ATOM      8  N   UNL     1       7.181   5.844  18.485  0.00  0.00    +0.000 N 
ATOM      9  C   UNL     1       7.786   5.595  19.784  0.00  0.00    +0.000 C 
BRANCH   6  11
ATOM     10  C   UNL     1       8.112   9.183  17.931  0.00  0.00    +0.000 C 
ATOM     11  O   UNL     1       8.308   7.822  18.308  0.00  0.00    +0.000 OA
ENDBRANCH   6  11
ENDBRANCH   5   8
ENDBRANCH   1   5
BRANCH   3  12
ATOM     12  C   UNL     1       2.915   6.065  19.445  0.00  0.00    +0.000 C 
BRANCH  12  13
ATOM     13  C   UNL     1       1.910   5.011  19.906  0.00  0.00    +0.000 C 
ATOM     14  C   UNL     1       1.509   3.974  18.860  0.00  0.00    +0.000 C 
ATOM     15  C   UNL     1       0.777   2.917  19.680  0.00  0.00    +0.000 C 
ATOM     16  C   UNL     1       1.395   2.965  21.079  0.00  0.00    +0.000 C 
ATOM     17  C   UNL     1       2.368   4.145  21.077  0.00  0.00    +0.000 C 
ENDBRANCH  12  13
ENDBRANCH   3  12
TORSDOF 5
ENDMDL
MODEL 6
REMARK VINA RESULT:      -6.1      2.131      2.928
REMARK  Name = 
REMARK  7 active torsions:
REMARK  status: ('A' for Active; 'I' for Inactive)
REMARK    1  A    between atoms: C_1  and  O_2
REMARK    2  A    between atoms: O_2  and  C_3
REMARK    3  A    between atoms: N_5  and  C_6
REMARK    4  A    between atoms: N_5  and  C_7
REMARK    5  A    between atoms: C_7  and  C_8
REMARK    6  A    between atoms: N_10  and  C_11
REMARK    7  A    between atoms: C_11  and  C_12
REMARK                            x       y       z     vdW  Elec       q    Type
REMARK                         _______ _______ _______ _____ _____    ______ ____
ROOT
ATOM      1  C   UNL     1       4.750   4.679  17.080  0.00  0.00    +0.000 C 
ATOM      2  O   UNL     1       4.262   5.757  16.748  0.00  0.00    +0.000 OA
ATOM      3  N   UNL     1       3.988   3.555  17.350  0.00  0.00    +0.000 N 
ATOM      4  H   UNL     1       4.408   2.849  17.951  0.00  0.00    +0.000 HD
ENDROOT
BRANCH   1   5
ATOM      5  C   UNL     1       6.258   4.495  17.256  0.00  0.00    +0.000 C 
BRANCH   5   8
ATOM      6  C   UNL     1       7.544   6.559  17.466  0.00  0.00    +0.000 C 
ATOM      7  O   UNL     1       7.703   6.624  16.251  0.00  0.00    +0.000 OA
ATOM      8  N   UNL     1       6.874   5.523  18.087  0.00  0.00    +0.000 N 
ATOM      9  C   UNL     1       6.780   5.369  19.530  0.00  0.00    +0.000 C 
BRANCH   6  11
ATOM     10  C   UNL     1       8.021   8.831  17.827  0.00  0.00    +0.000 C 
ATOM     11  O   UNL     1       7.983   7.502  18.342  0.00  0.00    +0.000 OA
ENDBRANCH   6  11
ENDBRANCH   5   8
ENDBRANCH   1   5
BRANCH   3  12
ATOM     12  C   UNL     1       2.547   3.613  17.196  0.00  0.00    +0.000 C 
BRANCH  12  13
ATOM     13  C   UNL     1       1.735   3.693  18.487  0.00  0.00    +0.000 C 
ATOM     14  C   UNL     1       1.778   2.454  19.377  0.00  0.00    +0.000 C 
ATOM     15  C   UNL     1       1.160   2.940  20.683  0.00  0.00    +0.000 C 
ATOM     16  C   UNL     1       1.479   4.434  20.770  0.00  0.00    +0.000 C 
ATOM     17  C   UNL     1       2.146   4.808  19.446  0.00  0.00    +0.000 C 
ENDBRANCH  12  13
ENDBRANCH   3  12
TORSDOF 5
ENDMDL
MODEL 7
REMARK VINA RESULT:      -6.1      1.424      2.183
REMARK  Name = 
REMARK  7 active torsions:
REMARK  status: ('A' for Active; 'I' for Inactive)
REMARK    1  A    between atoms: C_1  and  O_2
REMARK    2  A    between atoms: O_2  and  C_3
REMARK    3  A    between atoms: N_5  and  C_6
REMARK    4  A    between atoms: N_5  and  C_7
REMARK    5  A    between atoms: C_7  and  C_8
REMARK    6  A    between atoms: N_10  and  C_11
REMARK    7  A    between atoms: C_11  and  C_12
REMARK                            x       y       z     vdW  Elec       q    Type
REMARK                         _______ _______ _______ _____ _____    ______ ____
ROOT
ATOM      1  C   UNL     1       4.897   4.126  18.224  0.00  0.00    +0.000 C 
ATOM      2  O   UNL     1       4.454   5.100  18.830  0.00  0.00    +0.000 OA
ATOM      3  N   UNL     1       4.917   2.849  18.759  0.00  0.00    +0.000 N 
ATOM      4  H   UNL     1       5.603   2.202  18.376  0.00  0.00    +0.000 HD
ENDROOT
BRANCH   1   5
ATOM      5  C   UNL     1       5.499   4.250  16.824  0.00  0.00    +0.000 C 
BRANCH   5   8
ATOM      6  C   UNL     1       7.266   5.921  17.031  0.00  0.00    +0.000 C 
ATOM      7  O   UNL     1       7.926   5.183  17.757  0.00  0.00    +0.000 OA
ATOM      8  N   UNL     1       6.023   5.580  16.536  0.00  0.00    +0.000 N 
ATOM      9  C   UNL     1       5.178   6.488  15.775  0.00  0.00    +0.000 C 
BRANCH   6  11
ATOM     10  C   UNL     1       7.856   8.112  17.643  0.00  0.00    +0.000 C 
ATOM     11  O   UNL     1       7.684   7.145  16.610  0.00  0.00    +0.000 OA
ENDBRANCH   6  11
ENDBRANCH   5   8
ENDBRANCH   1   5
BRANCH   3  12
ATOM     12  C   UNL     1       4.354   2.615  20.075  0.00  0.00    +0.000 C 
BRANCH  12  13
ATOM     13  C   UNL     1       2.835   2.458  20.138  0.00  0.00    +0.000 C 
ATOM     14  C   UNL     1       2.065   3.662  20.674  0.00  0.00    +0.000 C 
ATOM     15  C   UNL     1       0.617   3.332  20.326  0.00  0.00    +0.000 C 
ATOM     16  C   UNL     1       0.672   2.466  19.067  0.00  0.00    +0.000 C 
ATOM     17  C   UNL     1       2.153   2.194  18.798  0.00  0.00    +0.000 C 
ENDBRANCH  12  13
ENDBRANCH   3  12
TORSDOF 5
ENDMDL
MODEL 8
REMARK VINA RESULT:      -6.1      0.959      1.049
REMARK  Name = 
REMARK  7 active torsions:
REMARK  status: ('A' for Active; 'I' for Inactive)
REMARK    1  A    between atoms: C_1  and  O_2
REMARK    2  A    between atoms: O_2  and  C_3
REMARK    3  A    between atoms: N_5  and  C_6
REMARK    4  A    between atoms: N_5  and  C_7
REMARK    5  A    between atoms: C_7  and  C_8
REMARK    6  A    between atoms: N_10  and  C_11
REMARK    7  A    between atoms: C_11  and  C_12
REMARK                            x       y       z     vdW  Elec       q    Type
REMARK                         _______ _______ _______ _____ _____    ______ ____
ROOT
ATOM      1  C   UNL     1       5.154   4.591  19.110  0.00  0.00    +0.000 C 
ATOM      2  O   UNL     1       4.014   5.051  19.118  0.00  0.00    +0.000 OA
ATOM      3  N   UNL     1       5.430   3.251  19.317  0.00  0.00    +0.000 N 
ATOM      4  H   UNL     1       6.362   3.020  19.655  0.00  0.00    +0.000 HD
ENDROOT
BRANCH   1   5
ATOM      5  C   UNL     1       6.382   5.479  18.901  0.00  0.00    +0.000 C 
BRANCH   5   8
ATOM      6  C   UNL     1       7.424   5.158  16.718  0.00  0.00    +0.000 C 
ATOM      7  O   UNL     1       8.087   4.213  17.135  0.00  0.00    +0.000 OA
ATOM      8  N   UNL     1       6.567   5.892  17.514  0.00  0.00    +0.000 N 
ATOM      9  C   UNL     1       5.867   7.085  17.066  0.00  0.00    +0.000 C 
BRANCH   6  11
ATOM     10  C   UNL     1       6.818   4.690  14.496  0.00  0.00    +0.000 C 
ATOM     11  O   UNL     1       7.433   5.580  15.425  0.00  0.00    +0.000 OA
ENDBRANCH   6  11
ENDBRANCH   5   8
ENDBRANCH   1   5
BRANCH   3  12
ATOM     12  C   UNL     1       4.337   2.316  19.507  0.00  0.00    +0.000 C 
BRANCH  12  13
ATOM     13  C   UNL     1       3.021   2.912  20.003  0.00  0.00    +0.000 C 
ATOM     14  C   UNL     1       1.767   2.466  19.256  0.00  0.00    +0.000 C 
ATOM     15  C   UNL     1       0.634   2.959  20.150  0.00  0.00    +0.000 C 
ATOM     16  C   UNL     1       1.190   2.955  21.576  0.00  0.00    +0.000 C 
ATOM     17  C   UNL     1       2.673   2.600  21.456  0.00  0.00    +0.000 C 
ENDBRANCH  12  13
ENDBRANCH   3  12
TORSDOF 5
ENDMDL
MODEL 9
REMARK VINA RESULT:      -6.1      1.834      2.573
REMARK  Name = 
REMARK  7 active torsions:
REMARK  status: ('A' for Active; 'I' for Inactive)
REMARK    1  A    between atoms: C_1  and  O_2
REMARK    2  A    between atoms: O_2  and  C_3
REMARK    3  A    between atoms: N_5  and  C_6
REMARK    4  A    between atoms: N_5  and  C_7
REMARK    5  A    between atoms: C_7  and  C_8
REMARK    6  A    between atoms: N_10  and  C_11
REMARK    7  A    between atoms: C_11  and  C_12
REMARK                            x       y       z     vdW  Elec       q    Type
REMARK                         _______ _______ _______ _____ _____    ______ ____
ROOT
ATOM      1  C   UNL     1       4.399   3.525  17.109  0.00  0.00    +0.000 C 
ATOM      2  O   UNL     1       3.300   3.001  16.936  0.00  0.00    +0.000 OA
ATOM      3  N   UNL     1       5.038   3.553  18.336  0.00  0.00    +0.000 N 
ATOM      4  H   UNL     1       5.725   4.290  18.479  0.00  0.00    +0.000 HD
ENDROOT
BRANCH   1   5
ATOM      5  C   UNL     1       5.147   4.226  15.974  0.00  0.00    +0.000 C 
BRANCH   5   8
ATOM      6  C   UNL     1       7.095   5.524  16.665  0.00  0.00    +0.000 C 
ATOM      7  O   UNL     1       7.804   4.522  16.669  0.00  0.00    +0.000 OA
ATOM      8  N   UNL     1       5.745   5.494  16.372  0.00  0.00    +0.000 N 
ATOM      9  C   UNL     1       4.868   6.650  16.480  0.00  0.00    +0.000 C 
BRANCH   6  11
ATOM     10  C   UNL     1       7.928   7.017  18.277  0.00  0.00    +0.000 C 
ATOM     11  O   UNL     1       7.552   6.778  16.922  0.00  0.00    +0.000 OA
ENDBRANCH   6  11
ENDBRANCH   5   8
ENDBRANCH   1   5
BRANCH   3  12
ATOM     12  C   UNL     1       4.425   2.901  19.478  0.00  0.00    +0.000 C 
BRANCH  12  13
ATOM     13  C   UNL     1       3.348   3.699  20.211  0.00  0.00    +0.000 C 
ATOM     14  C   UNL     1       3.239   5.173  19.830  0.00  0.00    +0.000 C 
ATOM     15  C   UNL     1       1.922   5.602  20.469  0.00  0.00    +0.000 C 
ATOM     16  C   UNL     1       1.042   4.350  20.501  0.00  0.00    +0.000 C 
ATOM     17  C   UNL     1       1.920   3.196  20.016  0.00  0.00    +0.000 C 
ENDBRANCH  12  13
ENDBRANCH   3  12
TORSDOF 5
ENDMDL
