MODEL 1
REMARK VINA RESULT:      -8.6      0.000      0.000
REMARK  Name = 
REMARK  9 active torsions:
REMARK  status: ('A' for Active; 'I' for Inactive)
REMARK    1  A    between atoms: C_1  and  C_2
REMARK    2  A    between atoms: C_8  and  C_9
REMARK    3  A    between atoms: C_10  and  N_11
REMARK    4  A    between atoms: C_12  and  C_14
REMARK    5  A    between atoms: C_14  and  C_15
REMARK    6  A    between atoms: C_15  and  N_16
REMARK    7  A    between atoms: N_16  and  C_17
REMARK    8  A    between atoms: C_17  and  C_18
REMARK    9  A    between atoms: C_17  and  C_19
REMARK                            x       y       z     vdW  Elec       q    Type
REMARK                         _______ _______ _______ _____ _____    ______ ____
ROOT
ATOM      1  C   UNL     1       3.411   5.588  18.143  0.00  0.00    +0.000 A 
ATOM      2  C   UNL     1       4.697   5.541  17.575  0.00  0.00    +0.000 A 
ATOM      3  S   UNL     1       5.153   3.923  17.395  0.00  0.00    +0.000 S 
ATOM      4  C   UNL     1       3.733   3.275  17.985  0.00  0.00    +0.000 A 
ATOM      5  C   UNL     1       2.882   4.296  18.386  0.00  0.00    +0.000 A 
ATOM      6  C   UNL     1       1.518   3.968  18.940  0.00  0.00    +0.000 C 
ATOM      7  C   UNL     1       1.423   2.471  19.307  0.00  0.00    +0.000 C 
ATOM      8  N   UNL     1       1.933   1.619  18.224  0.00  0.00    +0.000 NA
ATOM      9  C   UNL     1       3.381   1.817  18.020  0.00  0.00    +0.000 C 
ATOM     10  H   UNL     1       1.422   1.853  17.341  0.00  0.00    +0.000 HD
ENDROOT
BRANCH   1  18
ATOM     11  C   UNL     1       0.990   8.721  21.973  0.00  0.00    +0.000 C 
ATOM     12  C   UNL     1       1.144   9.184  20.554  0.00  0.00    +0.000 A 
ATOM     13  C   UNL     1       0.719  10.469  20.145  0.00  0.00    +0.000 A 
ATOM     14  C   UNL     1       0.902  10.894  18.808  0.00  0.00    +0.000 A 
ATOM     15  C   UNL     1       1.527  10.051  17.871  0.00  0.00    +0.000 A 
ATOM     16  C   UNL     1       1.935   8.795  18.306  0.00  0.00    +0.000 A 
ATOM     17  O   UNL     1       2.557   7.859  17.639  0.00  0.00    +0.000 OA
ATOM     18  C   UNL     1       2.706   6.846  18.480  0.00  0.00    +0.000 A 
ATOM     19  N   UNL     1       2.194   7.112  19.708  0.00  0.00    +0.000 NA
ATOM     20  C   UNL     1       1.733   8.366  19.584  0.00  0.00    +0.000 A 
ENDBRANCH   1  18
BRANCH   2  21
ATOM     21  N   UNL     1       5.513   6.676  17.251  0.00  0.00    +0.000 N 
ATOM     22  C   UNL     1       6.770   6.887  17.741  0.00  0.00    +0.000 C 
ATOM     23  O   UNL     1       7.278   6.110  18.537  0.00  0.00    +0.000 OA
ATOM     24  H   UNL     1       5.133   7.385  16.612  0.00  0.00    +0.000 HD
BRANCH  22  25
ATOM     25  C   UNL     1       7.574   8.091  17.312  0.00  0.00    +0.000 C 
BRANCH  25  26
ATOM     26  C   UNL     1       8.467   8.581  18.460  0.00  0.00    +0.000 C 
BRANCH  26  27
ATOM     27  N   UNL     1       8.681  10.034  18.362  0.00  0.00    +0.000 NA
ATOM     28  H   UNL     1       7.824  10.503  18.742  0.00  0.00    +0.000 HD
BRANCH  27  29
ATOM     29  C   UNL     1       9.847  10.516  19.131  0.00  0.00    +0.000 C 
ATOM     30  C   UNL     1      10.623  11.613  18.380  0.00  0.00    +0.000 C 
ATOM     31  C   UNL     1       9.359  11.088  20.469  0.00  0.00    +0.000 C 
ENDBRANCH  27  29
ENDBRANCH  26  27
ENDBRANCH  25  26
ENDBRANCH  22  25
ENDBRANCH   2  21
TORSDOF 6
ENDMDL
MODEL 2
REMARK VINA RESULT:      -8.5      2.807      7.464
REMARK  Name = 
REMARK  9 active torsions:
REMARK  status: ('A' for Active; 'I' for Inactive)
REMARK    1  A    between atoms: C_1  and  C_2
REMARK    2  A    between atoms: C_8  and  C_9
REMARK    3  A    between atoms: C_10  and  N_11
REMARK    4  A    between atoms: C_12  and  C_14
REMARK    5  A    between atoms: C_14  and  C_15
REMARK    6  A    between atoms: C_15  and  N_16
REMARK    7  A    between atoms: N_16  and  C_17
REMARK    8  A    between atoms: C_17  and  C_18
REMARK    9  A    between atoms: C_17  and  C_19
REMARK                            x       y       z     vdW  Elec       q    Type
REMARK                         _______ _______ _______ _____ _____    ______ ____
ROOT
ATOM      1  C   UNL     1       2.484   7.260  19.209  0.00  0.00    +0.000 A 
ATOM      2  C   UNL     1       2.001   6.710  20.412  0.00  0.00    +0.000 A 
ATOM      3  S   UNL     1       0.930   7.812  21.120  0.00  0.00    +0.000 S 
ATOM      4  C   UNL     1       1.033   8.957  19.910  0.00  0.00    +0.000 A 
ATOM      5  C   UNL     1       1.939   8.541  18.945  0.00  0.00    +0.000 A 
ATOM      6  C   UNL     1       2.195   9.397  17.730  0.00  0.00    +0.000 C 
ATOM      7  C   UNL     1       1.638  10.822  17.940  0.00  0.00    +0.000 C 
ATOM      8  N   UNL     1       0.267  10.792  18.466  0.00  0.00    +0.000 NA
ATOM      9  C   UNL     1       0.224  10.217  19.824  0.00  0.00    +0.000 C 
ATOM     10  H   UNL     1      -0.327  10.214  17.825  0.00  0.00    +0.000 HD
ENDROOT
BRANCH   1  18
ATOM     11  C   UNL     1       7.644   7.023  17.297  0.00  0.00    +0.000 C 
ATOM     12  C   UNL     1       6.609   6.008  16.909  0.00  0.00    +0.000 A 
ATOM     13  C   UNL     1       6.925   4.912  16.072  0.00  0.00    +0.000 A 
ATOM     14  C   UNL     1       5.939   3.952  15.744  0.00  0.00    +0.000 A 
ATOM     15  C   UNL     1       4.636   4.062  16.261  0.00  0.00    +0.000 A 
ATOM     16  C   UNL     1       4.360   5.150  17.082  0.00  0.00    +0.000 A 
ATOM     17  O   UNL     1       3.246   5.449  17.699  0.00  0.00    +0.000 OA
ATOM     18  C   UNL     1       3.474   6.586  18.338  0.00  0.00    +0.000 A 
ATOM     19  N   UNL     1       4.740   7.039  18.156  0.00  0.00    +0.000 NA
ATOM     20  C   UNL     1       5.294   6.097  17.376  0.00  0.00    +0.000 A 
ENDBRANCH   1  18
BRANCH   2  21
ATOM     21  N   UNL     1       2.391   5.451  20.975  0.00  0.00    +0.000 N 
ATOM     22  C   UNL     1       1.629   4.317  20.932  0.00  0.00    +0.000 C 
ATOM     23  O   UNL     1       0.519   4.320  20.420  0.00  0.00    +0.000 OA
ATOM     24  H   UNL     1       3.299   5.387  21.450  0.00  0.00    +0.000 HD
BRANCH  22  25
ATOM     25  C   UNL     1       2.140   3.022  21.517  0.00  0.00    +0.000 C 
BRANCH  25  26
ATOM     26  C   UNL     1       3.566   2.734  21.027  0.00  0.00    +0.000 C 
BRANCH  26  27
ATOM     27  N   UNL     1       3.649   2.886  19.566  0.00  0.00    +0.000 NA
ATOM     28  H   UNL     1       4.665   2.899  19.310  0.00  0.00    +0.000 HD
BRANCH  27  29
ATOM     29  C   UNL     1       3.001   1.790  18.816  0.00  0.00    +0.000 C 
ATOM     30  C   UNL     1       1.938   2.311  17.832  0.00  0.00    +0.000 C 
ATOM     31  C   UNL     1       4.072   1.027  18.025  0.00  0.00    +0.000 C 
ENDBRANCH  27  29
ENDBRANCH  26  27
ENDBRANCH  25  26
ENDBRANCH  22  25
ENDBRANCH   2  21
TORSDOF 6
ENDMDL
MODEL 3
REMARK VINA RESULT:      -8.4      3.393      7.433
REMARK  Name = 
REMARK  9 active torsions:
REMARK  status: ('A' for Active; 'I' for Inactive)
REMARK    1  A    between atoms: C_1  and  C_2
REMARK    2  A    between atoms: C_8  and  C_9
REMARK    3  A    between atoms: C_10  and  N_11
REMARK    4  A    between atoms: C_12  and  C_14
REMARK    5  A    between atoms: C_14  and  C_15
REMARK    6  A    between atoms: C_15  and  N_16
REMARK    7  A    between atoms: N_16  and  C_17
REMARK    8  A    between atoms: C_17  and  C_18
REMARK    9  A    between atoms: C_17  and  C_19
REMARK                            x       y       z     vdW  Elec       q    Type
REMARK                         _______ _______ _______ _____ _____    ______ ____
ROOT
ATOM      1  C   UNL     1       2.604   7.132  19.422  0.00  0.00    +0.000 A 
ATOM      2  C   UNL     1       1.920   6.583  20.522  0.00  0.00    +0.000 A 
ATOM      3  S   UNL     1       0.701   7.657  20.994  0.00  0.00    +0.000 S 
ATOM      4  C   UNL     1       0.995   8.788  19.802  0.00  0.00    +0.000 A 
ATOM      5  C   UNL     1       2.080   8.389  19.034  0.00  0.00    +0.000 A 
ATOM      6  C   UNL     1       2.533   9.238  17.872  0.00  0.00    +0.000 C 
ATOM      7  C   UNL     1       1.903  10.646  17.945  0.00  0.00    +0.000 C 
ATOM      8  N   UNL     1       0.459  10.575  18.204  0.00  0.00    +0.000 NA
ATOM      9  C   UNL     1       0.178  10.018  19.541  0.00  0.00    +0.000 C 
ATOM     10  H   UNL     1       0.015   9.969  17.474  0.00  0.00    +0.000 HD
ENDROOT
BRANCH   1  18
ATOM     11  C   UNL     1       5.245   5.872  14.754  0.00  0.00    +0.000 C 
ATOM     12  C   UNL     1       5.802   5.513  16.101  0.00  0.00    +0.000 A 
ATOM     13  C   UNL     1       7.059   4.878  16.236  0.00  0.00    +0.000 A 
ATOM     14  C   UNL     1       7.577   4.576  17.517  0.00  0.00    +0.000 A 
ATOM     15  C   UNL     1       6.859   4.921  18.676  0.00  0.00    +0.000 A 
ATOM     16  C   UNL     1       5.628   5.546  18.508  0.00  0.00    +0.000 A 
ATOM     17  O   UNL     1       4.801   5.985  19.420  0.00  0.00    +0.000 OA
ATOM     18  C   UNL     1       3.762   6.481  18.766  0.00  0.00    +0.000 A 
ATOM     19  N   UNL     1       3.902   6.383  17.420  0.00  0.00    +0.000 NA
ATOM     20  C   UNL     1       5.107   5.811  17.277  0.00  0.00    +0.000 A 
ENDBRANCH   1  18
BRANCH   2  21
ATOM     21  N   UNL     1       2.235   5.345  21.174  0.00  0.00    +0.000 N 
ATOM     22  C   UNL     1       1.585   4.165  20.946  0.00  0.00    +0.000 C 
ATOM     23  O   UNL     1       0.644   4.102  20.169  0.00  0.00    +0.000 OA
ATOM     24  H   UNL     1       2.996   5.335  21.865  0.00  0.00    +0.000 HD
BRANCH  22  25
ATOM     25  C   UNL     1       2.014   2.900  21.650  0.00  0.00    +0.000 C 
BRANCH  25  26
ATOM     26  C   UNL     1       3.259   2.304  20.977  0.00  0.00    +0.000 C 
BRANCH  26  27
ATOM     27  N   UNL     1       3.713   3.169  19.877  0.00  0.00    +0.000 NA
ATOM     28  H   UNL     1       4.650   3.553  20.148  0.00  0.00    +0.000 HD
BRANCH  27  29
ATOM     29  C   UNL     1       3.862   2.462  18.588  0.00  0.00    +0.000 C 
ATOM     30  C   UNL     1       3.749   0.936  18.748  0.00  0.00    +0.000 C 
ATOM     31  C   UNL     1       2.762   2.939  17.630  0.00  0.00    +0.000 C 
ENDBRANCH  27  29
ENDBRANCH  26  27
ENDBRANCH  25  26
ENDBRANCH  22  25
ENDBRANCH   2  21
TORSDOF 6
ENDMDL
MODEL 4
REMARK VINA RESULT:      -7.9      0.782      1.541
REMARK  Name = 
REMARK  9 active torsions:
REMARK  status: ('A' for Active; 'I' for Inactive)
REMARK    1  A    between atoms: C_1  and  C_2
REMARK    2  A    between atoms: C_8  and  C_9
REMARK    3  A    between atoms: C_10  and  N_11
REMARK    4  A    between atoms: C_12  and  C_14
REMARK    5  A    between atoms: C_14  and  C_15
REMARK    6  A    between atoms: C_15  and  N_16
REMARK    7  A    between atoms: N_16  and  C_17
REMARK    8  A    between atoms: C_17  and  C_18
REMARK    9  A    between atoms: C_17  and  C_19
REMARK                            x       y       z     vdW  Elec       q    Type
REMARK                         _______ _______ _______ _____ _____    ______ ____
ROOT
ATOM      1  C   UNL     1       3.283   5.531  18.472  0.00  0.00    +0.000 A 
ATOM      2  C   UNL     1       4.441   5.560  17.673  0.00  0.00    +0.000 A 
ATOM      3  S   UNL     1       4.841   3.975  17.240  0.00  0.00    +0.000 S 
ATOM      4  C   UNL     1       3.548   3.252  18.011  0.00  0.00    +0.000 A 
ATOM      5  C   UNL     1       2.796   4.216  18.669  0.00  0.00    +0.000 A 
ATOM      6  C   UNL     1       1.555   3.815  19.427  0.00  0.00    +0.000 C 
ATOM      7  C   UNL     1       1.516   2.287  19.643  0.00  0.00    +0.000 C 
ATOM      8  N   UNL     1       1.809   1.561  18.400  0.00  0.00    +0.000 NA
ATOM      9  C   UNL     1       3.196   1.796  17.953  0.00  0.00    +0.000 C 
ATOM     10  H   UNL     1       1.145   1.883  17.657  0.00  0.00    +0.000 HD
ENDROOT
BRANCH   1  18
ATOM     11  C   UNL     1       1.564  10.723  17.806  0.00  0.00    +0.000 C 
ATOM     12  C   UNL     1       1.386   9.990  19.104  0.00  0.00    +0.000 A 
ATOM     13  C   UNL     1       0.722  10.583  20.203  0.00  0.00    +0.000 A 
ATOM     14  C   UNL     1       0.540   9.862  21.406  0.00  0.00    +0.000 A 
ATOM     15  C   UNL     1       0.999   8.538  21.521  0.00  0.00    +0.000 A 
ATOM     16  C   UNL     1       1.646   7.984  20.421  0.00  0.00    +0.000 A 
ATOM     17  O   UNL     1       2.129   6.778  20.277  0.00  0.00    +0.000 OA
ATOM     18  C   UNL     1       2.664   6.739  19.066  0.00  0.00    +0.000 A 
ATOM     19  N   UNL     1       2.528   7.914  18.401  0.00  0.00    +0.000 NA
ATOM     20  C   UNL     1       1.854   8.683  19.270  0.00  0.00    +0.000 A 
ENDBRANCH   1  18
BRANCH   2  21
ATOM     21  N   UNL     1       5.193   6.731  17.327  0.00  0.00    +0.000 N 
ATOM     22  C   UNL     1       6.482   6.963  17.717  0.00  0.00    +0.000 C 
ATOM     23  O   UNL     1       7.078   6.173  18.433  0.00  0.00    +0.000 OA
ATOM     24  H   UNL     1       4.740   7.452  16.753  0.00  0.00    +0.000 HD
BRANCH  22  25
ATOM     25  C   UNL     1       7.211   8.208  17.269  0.00  0.00    +0.000 C 
BRANCH  25  26
ATOM     26  C   UNL     1       8.308   8.582  18.276  0.00  0.00    +0.000 C 
BRANCH  26  27
ATOM     27  N   UNL     1       8.574  10.028  18.234  0.00  0.00    +0.000 NA
ATOM     28  H   UNL     1       7.741  10.512  18.646  0.00  0.00    +0.000 HD
BRANCH  27  29
ATOM     29  C   UNL     1       9.768  10.435  19.003  0.00  0.00    +0.000 C 
ATOM     30  C   UNL     1      10.579  11.525  18.280  0.00  0.00    +0.000 C 
ATOM     31  C   UNL     1       9.320  10.979  20.366  0.00  0.00    +0.000 C 
ENDBRANCH  27  29
ENDBRANCH  26  27
ENDBRANCH  25  26
ENDBRANCH  22  25
ENDBRANCH   2  21
TORSDOF 6
ENDMDL
MODEL 5
REMARK VINA RESULT:      -7.5      3.015      6.101
REMARK  Name = 
REMARK  9 active torsions:
REMARK  status: ('A' for Active; 'I' for Inactive)
REMARK    1  A    between atoms: C_1  and  C_2
REMARK    2  A    between atoms: C_8  and  C_9
REMARK    3  A    between atoms: C_10  and  N_11
REMARK    4  A    between atoms: C_12  and  C_14
REMARK    5  A    between atoms: C_14  and  C_15
REMARK    6  A    between atoms: C_15  and  N_16
REMARK    7  A    between atoms: N_16  and  C_17
REMARK    8  A    between atoms: C_17  and  C_18
REMARK    9  A    between atoms: C_17  and  C_19
REMARK                            x       y       z     vdW  Elec       q    Type
REMARK                         _______ _______ _______ _____ _____    ______ ____
ROOT
ATOM      1  C   UNL     1       1.943   7.803  19.230  0.00  0.00    +0.000 A 
ATOM      2  C   UNL     1       2.454   8.343  18.035  0.00  0.00    +0.000 A 
ATOM      3  S   UNL     1       2.142  10.005  18.012  0.00  0.00    +0.000 S 
ATOM      4  C   UNL     1       1.406  10.064  19.510  0.00  0.00    +0.000 A 
ATOM      5  C   UNL     1       1.337   8.787  20.049  0.00  0.00    +0.000 A 
ATOM      6  C   UNL     1       0.730   8.577  21.414  0.00  0.00    +0.000 C 
ATOM      7  C   UNL     1      -0.061   9.826  21.858  0.00  0.00    +0.000 C 
ATOM      8  N   UNL     1       0.714  11.056  21.648  0.00  0.00    +0.000 NA
ATOM      9  C   UNL     1       0.948  11.307  20.213  0.00  0.00    +0.000 C 
ATOM     10  H   UNL     1       1.634  10.963  22.139  0.00  0.00    +0.000 HD
ENDROOT
BRANCH   1  18
ATOM     11  C   UNL     1       2.550   2.601  17.522  0.00  0.00    +0.000 C 
ATOM     12  C   UNL     1       2.395   2.944  18.975  0.00  0.00    +0.000 A 
ATOM     13  C   UNL     1       2.450   1.950  19.979  0.00  0.00    +0.000 A 
ATOM     14  C   UNL     1       2.332   2.302  21.344  0.00  0.00    +0.000 A 
ATOM     15  C   UNL     1       2.179   3.647  21.724  0.00  0.00    +0.000 A 
ATOM     16  C   UNL     1       2.131   4.599  20.712  0.00  0.00    +0.000 A 
ATOM     17  O   UNL     1       2.026   5.898  20.813  0.00  0.00    +0.000 OA
ATOM     18  C   UNL     1       2.003   6.363  19.573  0.00  0.00    +0.000 A 
ATOM     19  N   UNL     1       2.104   5.377  18.648  0.00  0.00    +0.000 NA
ATOM     20  C   UNL     1       2.211   4.266  19.393  0.00  0.00    +0.000 A 
ENDBRANCH   1  18
BRANCH   2  21
ATOM     21  N   UNL     1       3.087   7.601  16.983  0.00  0.00    +0.000 N 
ATOM     22  C   UNL     1       4.423   7.321  16.932  0.00  0.00    +0.000 C 
ATOM     23  O   UNL     1       5.188   7.727  17.795  0.00  0.00    +0.000 OA
ATOM     24  H   UNL     1       2.506   7.259  16.208  0.00  0.00    +0.000 HD
BRANCH  22  25
ATOM     25  C   UNL     1       4.997   6.497  15.804  0.00  0.00    +0.000 C 
BRANCH  25  26
ATOM     26  C   UNL     1       5.610   5.196  16.344  0.00  0.00    +0.000 C 
BRANCH  26  27
ATOM     27  N   UNL     1       6.947   5.451  16.901  0.00  0.00    +0.000 NA
ATOM     28  H   UNL     1       7.052   6.489  17.003  0.00  0.00    +0.000 HD
BRANCH  27  29
ATOM     29  C   UNL     1       7.166   4.834  18.226  0.00  0.00    +0.000 C 
ATOM     30  C   UNL     1       7.896   5.784  19.193  0.00  0.00    +0.000 C 
ATOM     31  C   UNL     1       5.807   4.464  18.833  0.00  0.00    +0.000 C 
ENDBRANCH  27  29
ENDBRANCH  26  27
ENDBRANCH  25  26
ENDBRANCH  22  25
ENDBRANCH   2  21
TORSDOF 6
ENDMDL
MODEL 6
REMARK VINA RESULT:      -7.5      3.370      5.705
REMARK  Name = 
REMARK  9 active torsions:
REMARK  status: ('A' for Active; 'I' for Inactive)
REMARK    1  A    between atoms: C_1  and  C_2
REMARK    2  A    between atoms: C_8  and  C_9
REMARK    3  A    between atoms: C_10  and  N_11
REMARK    4  A    between atoms: C_12  and  C_14
REMARK    5  A    between atoms: C_14  and  C_15
REMARK    6  A    between atoms: C_15  and  N_16
REMARK    7  A    between atoms: N_16  and  C_17
REMARK    8  A    between atoms: C_17  and  C_18
REMARK    9  A    between atoms: C_17  and  C_19
REMARK                            x       y       z     vdW  Elec       q    Type
REMARK                         _______ _______ _______ _____ _____    ______ ____
ROOT
ATOM      1  C   UNL     1       5.106   4.868  17.059  0.00  0.00    +0.000 A 
ATOM      2  C   UNL     1       5.304   6.000  17.871  0.00  0.00    +0.000 A 
ATOM      3  S   UNL     1       4.416   5.807  19.297  0.00  0.00    +0.000 S 
ATOM      4  C   UNL     1       3.815   4.295  18.925  0.00  0.00    +0.000 A 
ATOM      5  C   UNL     1       4.247   3.917  17.661  0.00  0.00    +0.000 A 
ATOM      6  C   UNL     1       3.854   2.572  17.101  0.00  0.00    +0.000 C 
ATOM      7  C   UNL     1       2.701   1.955  17.922  0.00  0.00    +0.000 C 
ATOM      8  N   UNL     1       2.966   2.032  19.364  0.00  0.00    +0.000 NA
ATOM      9  C   UNL     1       2.992   3.430  19.833  0.00  0.00    +0.000 C 
ATOM     10  H   UNL     1       3.891   1.581  19.562  0.00  0.00    +0.000 HD
ENDROOT
BRANCH   1  18
ATOM     11  C   UNL     1       4.652   2.884  11.940  0.00  0.00    +0.000 C 
ATOM     12  C   UNL     1       5.836   3.701  12.370  0.00  0.00    +0.000 A 
ATOM     13  C   UNL     1       6.867   4.042  11.465  0.00  0.00    +0.000 A 
ATOM     14  C   UNL     1       7.958   4.838  11.886  0.00  0.00    +0.000 A 
ATOM     15  C   UNL     1       8.022   5.319  13.207  0.00  0.00    +0.000 A 
ATOM     16  C   UNL     1       6.991   4.966  14.070  0.00  0.00    +0.000 A 
ATOM     17  O   UNL     1       6.815   5.310  15.319  0.00  0.00    +0.000 OA
ATOM     18  C   UNL     1       5.703   4.708  15.713  0.00  0.00    +0.000 A 
ATOM     19  N   UNL     1       5.134   3.973  14.724  0.00  0.00    +0.000 NA
ATOM     20  C   UNL     1       5.954   4.173  13.681  0.00  0.00    +0.000 A 
ENDBRANCH   1  18
BRANCH   2  21
ATOM     21  N   UNL     1       6.085   7.153  17.528  0.00  0.00    +0.000 N 
ATOM     22  C   UNL     1       7.379   7.353  17.916  0.00  0.00    +0.000 C 
ATOM     23  O   UNL     1       7.956   6.546  18.630  0.00  0.00    +0.000 OA
ATOM     24  H   UNL     1       5.649   7.887  16.956  0.00  0.00    +0.000 HD
BRANCH  22  25
ATOM     25  C   UNL     1       8.138   8.580  17.472  0.00  0.00    +0.000 C 
BRANCH  25  26
ATOM     26  C   UNL     1       8.618   9.387  18.687  0.00  0.00    +0.000 C 
BRANCH  26  27
ATOM     27  N   UNL     1       9.269  10.633  18.252  0.00  0.00    +0.000 NA
ATOM     28  H   UNL     1       8.536  11.382  18.240  0.00  0.00    +0.000 HD
BRANCH  27  29
ATOM     29  C   UNL     1      10.362  11.075  19.144  0.00  0.00    +0.000 C 
ATOM     30  C   UNL     1      11.062  12.341  18.619  0.00  0.00    +0.000 C 
ATOM     31  C   UNL     1       9.780  11.375  20.532  0.00  0.00    +0.000 C 
ENDBRANCH  27  29
ENDBRANCH  26  27
ENDBRANCH  25  26
ENDBRANCH  22  25
ENDBRANCH   2  21
TORSDOF 6
ENDMDL
MODEL 7
REMARK VINA RESULT:      -7.4      3.353      5.752
REMARK  Name = 
REMARK  9 active torsions:
REMARK  status: ('A' for Active; 'I' for Inactive)
REMARK    1  A    between atoms: C_1  and  C_2
REMARK    2  A    between atoms: C_8  and  C_9
REMARK    3  A    between atoms: C_10  and  N_11
REMARK    4  A    between atoms: C_12  and  C_14
REMARK    5  A    between atoms: C_14  and  C_15
REMARK    6  A    between atoms: C_15  and  N_16
REMARK    7  A    between atoms: N_16  and  C_17
REMARK    8  A    between atoms: C_17  and  C_18
REMARK    9  A    between atoms: C_17  and  C_19
REMARK                            x       y       z     vdW  Elec       q    Type
REMARK                         _______ _______ _______ _____ _____    ______ ____
ROOT
ATOM      1  C   UNL     1       4.986   4.885  17.051  0.00  0.00    +0.000 A 
ATOM      2  C   UNL     1       5.312   6.001  17.844  0.00  0.00    +0.000 A 
ATOM      3  S   UNL     1       4.513   5.865  19.328  0.00  0.00    +0.000 S 
ATOM      4  C   UNL     1       3.791   4.395  19.003  0.00  0.00    +0.000 A 
ATOM      5  C   UNL     1       4.110   3.990  17.714  0.00  0.00    +0.000 A 
ATOM      6  C   UNL     1       3.593   2.675  17.187  0.00  0.00    +0.000 C 
ATOM      7  C   UNL     1       2.461   2.133  18.086  0.00  0.00    +0.000 C 
ATOM      8  N   UNL     1       2.829   2.191  19.507  0.00  0.00    +0.000 NA
ATOM      9  C   UNL     1       2.978   3.585  19.968  0.00  0.00    +0.000 C 
ATOM     10  H   UNL     1       3.734   1.681  19.642  0.00  0.00    +0.000 HD
ENDROOT
BRANCH   1  18
ATOM     11  C   UNL     1       8.817   5.964  13.243  0.00  0.00    +0.000 C 
ATOM     12  C   UNL     1       7.671   5.034  12.971  0.00  0.00    +0.000 A 
ATOM     13  C   UNL     1       7.549   4.351  11.739  0.00  0.00    +0.000 A 
ATOM     14  C   UNL     1       6.476   3.456  11.517  0.00  0.00    +0.000 A 
ATOM     15  C   UNL     1       5.526   3.218  12.526  0.00  0.00    +0.000 A 
ATOM     16  C   UNL     1       5.676   3.904  13.726  0.00  0.00    +0.000 A 
ATOM     17  O   UNL     1       4.948   3.829  14.809  0.00  0.00    +0.000 OA
ATOM     18  C   UNL     1       5.477   4.687  15.668  0.00  0.00    +0.000 A 
ATOM     19  N   UNL     1       6.563   5.325  15.161  0.00  0.00    +0.000 NA
ATOM     20  C   UNL     1       6.688   4.792  13.935  0.00  0.00    +0.000 A 
ENDBRANCH   1  18
BRANCH   2  21
ATOM     21  N   UNL     1       6.141   7.101  17.444  0.00  0.00    +0.000 N 
ATOM     22  C   UNL     1       7.412   7.315  17.897  0.00  0.00    +0.000 C 
ATOM     23  O   UNL     1       7.922   6.571  18.723  0.00  0.00    +0.000 OA
ATOM     24  H   UNL     1       5.761   7.782  16.776  0.00  0.00    +0.000 HD
BRANCH  22  25
ATOM     25  C   UNL     1       8.227   8.479  17.388  0.00  0.00    +0.000 C 
BRANCH  25  26
ATOM     26  C   UNL     1       8.668   9.379  18.552  0.00  0.00    +0.000 C 
BRANCH  26  27
ATOM     27  N   UNL     1       8.500  10.797  18.198  0.00  0.00    +0.000 NA
ATOM     28  H   UNL     1       7.590  11.117  18.609  0.00  0.00    +0.000 HD
BRANCH  27  29
ATOM     29  C   UNL     1       9.572  11.671  18.721  0.00  0.00    +0.000 C 
ATOM     30  C   UNL     1       9.940  11.328  20.175  0.00  0.00    +0.000 C 
ATOM     31  C   UNL     1      10.820  11.504  17.845  0.00  0.00    +0.000 C 
ENDBRANCH  27  29
ENDBRANCH  26  27
ENDBRANCH  25  26
ENDBRANCH  22  25
ENDBRANCH   2  21
TORSDOF 6
ENDMDL
MODEL 8
REMARK VINA RESULT:      -7.4      0.913      1.084
REMARK  Name = 
REMARK  9 active torsions:
REMARK  status: ('A' for Active; 'I' for Inactive)
REMARK    1  A    between atoms: C_1  and  C_2
REMARK    2  A    between atoms: C_8  and  C_9
REMARK    3  A    between atoms: C_10  and  N_11
REMARK    4  A    between atoms: C_12  and  C_14
REMARK    5  A    between atoms: C_14  and  C_15
REMARK    6  A    between atoms: C_15  and  N_16
REMARK    7  A    between atoms: N_16  and  C_17
REMARK    8  A    between atoms: C_17  and  C_18
REMARK    9  A    between atoms: C_17  and  C_19
REMARK                            x       y       z     vdW  Elec       q    Type
REMARK                         _______ _______ _______ _____ _____    ______ ____
ROOT
ATOM      1  C   UNL     1       3.477   5.297  18.800  0.00  0.00    +0.000 A 
ATOM      2  C   UNL     1       4.869   5.093  18.827  0.00  0.00    +0.000 A 
ATOM      3  S   UNL     1       5.176   3.432  18.726  0.00  0.00    +0.000 S 
ATOM      4  C   UNL     1       3.578   2.967  18.605  0.00  0.00    +0.000 A 
ATOM      5  C   UNL     1       2.756   4.083  18.690  0.00  0.00    +0.000 A 
ATOM      6  C   UNL     1       1.260   3.927  18.585  0.00  0.00    +0.000 C 
ATOM      7  C   UNL     1       0.851   2.447  18.754  0.00  0.00    +0.000 C 
ATOM      8  N   UNL     1       1.680   1.563  17.924  0.00  0.00    +0.000 NA
ATOM      9  C   UNL     1       3.087   1.570  18.368  0.00  0.00    +0.000 C 
ATOM     10  H   UNL     1       1.628   1.888  16.929  0.00  0.00    +0.000 HD
ENDROOT
BRANCH   1  18
ATOM     11  C   UNL     1       0.691   8.922  21.874  0.00  0.00    +0.000 C 
ATOM     12  C   UNL     1       1.144   9.248  20.480  0.00  0.00    +0.000 A 
ATOM     13  C   UNL     1       0.920  10.523  19.909  0.00  0.00    +0.000 A 
ATOM     14  C   UNL     1       1.383  10.817  18.605  0.00  0.00    +0.000 A 
ATOM     15  C   UNL     1       2.090   9.852  17.865  0.00  0.00    +0.000 A 
ATOM     16  C   UNL     1       2.295   8.610  18.456  0.00  0.00    +0.000 A 
ATOM     17  O   UNL     1       2.940   7.576  17.986  0.00  0.00    +0.000 OA
ATOM     18  C   UNL     1       2.840   6.630  18.908  0.00  0.00    +0.000 A 
ATOM     19  N   UNL     1       2.138   7.038  19.995  0.00  0.00    +0.000 NA
ATOM     20  C   UNL     1       1.824   8.309  19.699  0.00  0.00    +0.000 A 
ENDBRANCH   1  18
BRANCH   2  21
ATOM     21  N   UNL     1       5.865   6.115  18.973  0.00  0.00    +0.000 N 
ATOM     22  C   UNL     1       7.039   6.154  18.275  0.00  0.00    +0.000 C 
ATOM     23  O   UNL     1       7.331   5.272  17.481  0.00  0.00    +0.000 OA
ATOM     24  H   UNL     1       5.696   6.870  19.649  0.00  0.00    +0.000 HD
BRANCH  22  25
ATOM     25  C   UNL     1       8.011   7.293  18.464  0.00  0.00    +0.000 C 
BRANCH  25  26
ATOM     26  C   UNL     1       7.584   8.511  17.632  0.00  0.00    +0.000 C 
BRANCH  26  27
ATOM     27  N   UNL     1       8.672   9.498  17.568  0.00  0.00    +0.000 NA
ATOM     28  H   UNL     1       8.654   9.923  16.610  0.00  0.00    +0.000 HD
BRANCH  27  29
ATOM     29  C   UNL     1       8.544  10.590  18.556  0.00  0.00    +0.000 C 
ATOM     30  C   UNL     1       9.535  10.433  19.723  0.00  0.00    +0.000 C 
ATOM     31  C   UNL     1       8.815  11.928  17.857  0.00  0.00    +0.000 C 
ENDBRANCH  27  29
ENDBRANCH  26  27
ENDBRANCH  25  26
ENDBRANCH  22  25
ENDBRANCH   2  21
TORSDOF 6
ENDMDL
MODEL 9
REMARK VINA RESULT:      -7.3      7.707     11.839
REMARK  Name = 
REMARK  9 active torsions:
REMARK  status: ('A' for Active; 'I' for Inactive)
REMARK    1  A    between atoms: C_1  and  C_2
REMARK    2  A    between atoms: C_8  and  C_9
REMARK    3  A    between atoms: C_10  and  N_11
REMARK    4  A    between atoms: C_12  and  C_14
REMARK    5  A    between atoms: C_14  and  C_15
REMARK    6  A    between atoms: C_15  and  N_16
REMARK    7  A    between atoms: N_16  and  C_17
REMARK    8  A    between atoms: C_17  and  C_18
REMARK    9  A    between atoms: C_17  and  C_19
REMARK                            x       y       z     vdW  Elec       q    Type
REMARK                         _______ _______ _______ _____ _____    ______ ____
ROOT
ATOM      1  C   UNL     1      -3.294  13.290  22.918  0.00  0.00    +0.000 A 
ATOM      2  C   UNL     1      -4.614  13.330  22.431  0.00  0.00    +0.000 A 
ATOM      3  S   UNL     1      -5.423  14.623  23.164  0.00  0.00    +0.000 S 
ATOM      4  C   UNL     1      -4.119  15.161  24.057  0.00  0.00    +0.000 A 
ATOM      5  C   UNL     1      -3.032  14.323  23.851  0.00  0.00    +0.000 A 
ATOM      6  C   UNL     1      -1.718  14.611  24.534  0.00  0.00    +0.000 C 
ATOM      7  C   UNL     1      -1.908  15.639  25.671  0.00  0.00    +0.000 C 
ATOM      8  N   UNL     1      -2.702  16.791  25.226  0.00  0.00    +0.000 NA
ATOM      9  C   UNL     1      -4.087  16.399  24.903  0.00  0.00    +0.000 C 
ATOM     10  H   UNL     1      -2.250  17.205  24.377  0.00  0.00    +0.000 HD
ENDROOT
BRANCH   1  18
ATOM     11  C   UNL     1       0.190  11.361  19.111  0.00  0.00    +0.000 C 
ATOM     12  C   UNL     1       0.051  10.713  20.458  0.00  0.00    +0.000 A 
ATOM     13  C   UNL     1       0.847   9.606  20.831  0.00  0.00    +0.000 A 
ATOM     14  C   UNL     1       0.720   9.031  22.118  0.00  0.00    +0.000 A 
ATOM     15  C   UNL     1      -0.187   9.565  23.051  0.00  0.00    +0.000 A 
ATOM     16  C   UNL     1      -0.952  10.655  22.652  0.00  0.00    +0.000 A 
ATOM     17  O   UNL     1      -1.830  11.336  23.342  0.00  0.00    +0.000 OA
ATOM     18  C   UNL     1      -2.304  12.262  22.522  0.00  0.00    +0.000 A 
ATOM     19  N   UNL     1      -1.734  12.205  21.292  0.00  0.00    +0.000 NA
ATOM     20  C   UNL     1      -0.859  11.194  21.405  0.00  0.00    +0.000 A 
ENDBRANCH   1  18
BRANCH   2  21
ATOM     21  N   UNL     1      -5.197  12.399  21.509  0.00  0.00    +0.000 N 
ATOM     22  C   UNL     1      -5.517  12.693  20.214  0.00  0.00    +0.000 C 
ATOM     23  O   UNL     1      -5.347  13.815  19.760  0.00  0.00    +0.000 OA
ATOM     24  H   UNL     1      -5.397  11.446  21.837  0.00  0.00    +0.000 HD
BRANCH  22  25
ATOM     25  C   UNL     1      -6.091  11.636  19.302  0.00  0.00    +0.000 C 
BRANCH  25  26
ATOM     26  C   UNL     1      -4.968  10.891  18.566  0.00  0.00    +0.000 C 
BRANCH  26  27
ATOM     27  N   UNL     1      -4.246  11.806  17.667  0.00  0.00    +0.000 NA
ATOM     28  H   UNL     1      -3.945  12.632  18.237  0.00  0.00    +0.000 HD
BRANCH  27  29
ATOM     29  C   UNL     1      -3.042  11.208  17.053  0.00  0.00    +0.000 C 
ATOM     30  C   UNL     1      -2.724   9.819  17.635  0.00  0.00    +0.000 C 
ATOM     31  C   UNL     1      -3.272  11.067  15.542  0.00  0.00    +0.000 C 
ENDBRANCH  27  29
ENDBRANCH  26  27
ENDBRANCH  25  26
ENDBRANCH  22  25
ENDBRANCH   2  21
TORSDOF 6
ENDMDL
