MODEL 1
REMARK VINA RESULT:      -8.1      0.000      0.000
REMARK  Name = 
REMARK  6 active torsions:
REMARK  status: ('A' for Active; 'I' for Inactive)
REMARK    1  A    between atoms: C_1  and  C_2
REMARK    2  A    between atoms: C_2  and  C_3
REMARK    3  A    between atoms: C_2  and  O_4
REMARK    4  A    between atoms: O_4  and  C_5
REMARK    5  A    between atoms: C_8  and  C_9
REMARK    6  A    between atoms: C_11  and  N_12
REMARK                            x       y       z     vdW  Elec       q    Type
REMARK                         _______ _______ _______ _____ _____    ______ ____
ROOT
ATOM      1  C   UNL     1      -1.002  10.965  18.553  0.00  0.00    +0.000 A 
ATOM      2  C   UNL     1      -0.302   9.792  18.902  0.00  0.00    +0.000 A 
ATOM      3  C   UNL     1       0.366   9.714  20.145  0.00  0.00    +0.000 A 
ATOM      4  C   UNL     1       1.187   8.760  20.848  0.00  0.00    +0.000 A 
ATOM      5  N   UNL     1       1.558   9.259  22.048  0.00  0.00    +0.000 NA
ATOM      6  N   UNL     1       1.010  10.471  22.102  0.00  0.00    +0.000 N 
ATOM      7  C   UNL     1       0.290  10.813  20.998  0.00  0.00    +0.000 A 
ATOM      8  C   UNL     1      -0.417  11.978  20.690  0.00  0.00    +0.000 A 
ATOM      9  C   UNL     1      -1.070  12.024  19.460  0.00  0.00    +0.000 A 
ATOM     10  F   UNL     1      -1.788  13.123  19.190  0.00  0.00    +0.000 F 
ATOM     11  H   UNL     1       1.171  11.034  22.929  0.00  0.00    +0.000 HD
ENDROOT
BRANCH   4  12
ATOM     12  C   UNL     1       1.667   7.429  20.423  0.00  0.00    +0.000 A 
ATOM     13  C   UNL     1       2.450   7.324  19.284  0.00  0.00    +0.000 A 
ATOM     14  C   UNL     1       2.764   6.064  18.823  0.00  0.00    +0.000 A 
ATOM     15  N   UNL     1       2.394   4.978  19.527  0.00  0.00    +0.000 NA
ATOM     16  C   UNL     1       1.667   5.179  20.643  0.00  0.00    +0.000 A 
ATOM     17  N   UNL     1       1.260   6.356  21.126  0.00  0.00    +0.000 NA
BRANCH  14  18
ATOM     18  N   UNL     1       3.472   5.902  17.618  0.00  0.00    +0.000 N 
ATOM     19  C   UNL     1       4.201   7.136  17.174  0.00  0.00    +0.000 C 
ATOM     20  C   UNL     1       5.022   6.902  15.879  0.00  0.00    +0.000 C 
ATOM     21  C   UNL     1       5.939   5.798  16.216  0.00  0.00    +0.000 A 
ATOM     22  O   UNL     1       7.270   5.850  16.021  0.00  0.00    +0.000 OA
ATOM     23  N   UNL     1       7.846   4.774  16.702  0.00  0.00    +0.000 NA
ATOM     24  C   UNL     1       6.828   4.145  17.310  0.00  0.00    +0.000 A 
ATOM     25  C   UNL     1       5.598   4.740  17.011  0.00  0.00    +0.000 A 
ATOM     26  C   UNL     1       4.198   4.603  17.481  0.00  0.00    +0.000 C 
ENDBRANCH  14  18
ENDBRANCH   4  12
BRANCH   1  27
ATOM     27  O   UNL     1      -1.622  10.934  17.330  0.00  0.00    +0.000 OA
BRANCH  27  29
ATOM     28  C   UNL     1      -3.908  10.420  17.770  0.00  0.00    +0.000 C 
ATOM     29  C   UNL     1      -2.620   9.923  17.118  0.00  0.00    +0.000 C 
ATOM     30  C   UNL     1      -2.831   9.728  15.618  0.00  0.00    +0.000 C 
ENDBRANCH  27  29
ENDBRANCH   1  27
TORSDOF 4
ENDMDL
MODEL 2
REMARK VINA RESULT:      -8.1      3.886      9.388
REMARK  Name = 
REMARK  6 active torsions:
REMARK  status: ('A' for Active; 'I' for Inactive)
REMARK    1  A    between atoms: C_1  and  C_2
REMARK    2  A    between atoms: C_2  and  C_3
REMARK    3  A    between atoms: C_2  and  O_4
REMARK    4  A    between atoms: O_4  and  C_5
REMARK    5  A    between atoms: C_8  and  C_9
REMARK    6  A    between atoms: C_11  and  N_12
REMARK                            x       y       z     vdW  Elec       q    Type
REMARK                         _______ _______ _______ _____ _____    ______ ____
ROOT
ATOM      1  C   UNL     1       2.904   6.059  19.306  0.00  0.00    +0.000 A 
ATOM      2  C   UNL     1       2.104   6.993  19.994  0.00  0.00    +0.000 A 
ATOM      3  C   UNL     1       1.804   8.239  19.397  0.00  0.00    +0.000 A 
ATOM      4  C   UNL     1       1.085   9.437  19.751  0.00  0.00    +0.000 A 
ATOM      5  N   UNL     1       1.146  10.333  18.741  0.00  0.00    +0.000 NA
ATOM      6  N   UNL     1       1.875   9.740  17.798  0.00  0.00    +0.000 N 
ATOM      7  C   UNL     1       2.308   8.491  18.122  0.00  0.00    +0.000 A 
ATOM      8  C   UNL     1       3.082   7.574  17.407  0.00  0.00    +0.000 A 
ATOM      9  C   UNL     1       3.356   6.352  18.019  0.00  0.00    +0.000 A 
ATOM     10  F   UNL     1       4.056   5.458  17.309  0.00  0.00    +0.000 F 
ATOM     11  H   UNL     1       2.054  10.248  16.939  0.00  0.00    +0.000 HD
ENDROOT
BRANCH   4  12
ATOM     12  C   UNL     1       0.386   9.786  21.004  0.00  0.00    +0.000 A 
ATOM     13  C   UNL     1      -0.565  10.795  20.992  0.00  0.00    +0.000 A 
ATOM     14  C   UNL     1      -1.097  11.204  22.195  0.00  0.00    +0.000 A 
ATOM     15  N   UNL     1      -0.763  10.564  23.332  0.00  0.00    +0.000 NA
ATOM     16  C   UNL     1       0.140   9.570  23.242  0.00  0.00    +0.000 A 
ATOM     17  N   UNL     1       0.757   9.152  22.132  0.00  0.00    +0.000 NA
BRANCH  14  18
ATOM     18  N   UNL     1      -1.990  12.290  22.247  0.00  0.00    +0.000 N 
ATOM     19  C   UNL     1      -2.930  12.356  21.079  0.00  0.00    +0.000 C 
ATOM     20  C   UNL     1      -3.942  13.526  21.202  0.00  0.00    +0.000 C 
ATOM     21  C   UNL     1      -4.643  13.277  22.474  0.00  0.00    +0.000 A 
ATOM     22  O   UNL     1      -5.984  13.245  22.592  0.00  0.00    +0.000 OA
ATOM     23  N   UNL     1      -6.291  12.711  23.847  0.00  0.00    +0.000 NA
ATOM     24  C   UNL     1      -5.112  12.411  24.411  0.00  0.00    +0.000 A 
ATOM     25  C   UNL     1      -4.038  12.775  23.592  0.00  0.00    +0.000 A 
ATOM     26  C   UNL     1      -2.568  12.569  23.596  0.00  0.00    +0.000 C 
ENDBRANCH  14  18
ENDBRANCH   4  12
BRANCH   1  27
ATOM     27  O   UNL     1       3.128   4.879  19.970  0.00  0.00    +0.000 OA
BRANCH  27  29
ATOM     28  C   UNL     1       3.045   2.636  19.165  0.00  0.00    +0.000 C 
ATOM     29  C   UNL     1       2.219   3.795  19.719  0.00  0.00    +0.000 C 
ATOM     30  C   UNL     1       1.548   3.386  21.027  0.00  0.00    +0.000 C 
ENDBRANCH  27  29
ENDBRANCH   1  27
TORSDOF 4
ENDMDL
MODEL 3
REMARK VINA RESULT:      -8.1      4.002      9.428
REMARK  Name = 
REMARK  6 active torsions:
REMARK  status: ('A' for Active; 'I' for Inactive)
REMARK    1  A    between atoms: C_1  and  C_2
REMARK    2  A    between atoms: C_2  and  C_3
REMARK    3  A    between atoms: C_2  and  O_4
REMARK    4  A    between atoms: O_4  and  C_5
REMARK    5  A    between atoms: C_8  and  C_9
REMARK    6  A    between atoms: C_11  and  N_12
REMARK                            x       y       z     vdW  Elec       q    Type
REMARK                         _______ _______ _______ _____ _____    ______ ____
ROOT
ATOM      1  C   UNL     1       2.910   6.125  19.346  0.00  0.00    +0.000 A 
ATOM      2  C   UNL     1       2.107   7.043  20.052  0.00  0.00    +0.000 A 
ATOM      3  C   UNL     1       1.768   8.282  19.461  0.00  0.00    +0.000 A 
ATOM      4  C   UNL     1       1.033   9.465  19.830  0.00  0.00    +0.000 A 
ATOM      5  N   UNL     1       1.053  10.361  18.819  0.00  0.00    +0.000 NA
ATOM      6  N   UNL     1       1.774   9.783  17.861  0.00  0.00    +0.000 N 
ATOM      7  C   UNL     1       2.239   8.543  18.176  0.00  0.00    +0.000 A 
ATOM      8  C   UNL     1       3.016   7.643  17.444  0.00  0.00    +0.000 A 
ATOM      9  C   UNL     1       3.328   6.427  18.049  0.00  0.00    +0.000 A 
ATOM     10  F   UNL     1       4.031   5.547  17.325  0.00  0.00    +0.000 F 
ATOM     11  H   UNL     1       1.924  10.294  16.998  0.00  0.00    +0.000 HD
ENDROOT
BRANCH   4  12
ATOM     12  C   UNL     1       0.354   9.801  21.099  0.00  0.00    +0.000 A 
ATOM     13  C   UNL     1      -0.495  10.895  21.144  0.00  0.00    +0.000 A 
ATOM     14  C   UNL     1      -1.001  11.278  22.367  0.00  0.00    +0.000 A 
ATOM     15  N   UNL     1      -0.746  10.538  23.463  0.00  0.00    +0.000 NA
ATOM     16  C   UNL     1       0.059   9.469  23.316  0.00  0.00    +0.000 A 
ATOM     17  N   UNL     1       0.647   9.064  22.186  0.00  0.00    +0.000 NA
BRANCH  14  18
ATOM     18  N   UNL     1      -1.787  12.439  22.482  0.00  0.00    +0.000 N 
ATOM     19  C   UNL     1      -3.068  12.232  23.235  0.00  0.00    +0.000 C 
ATOM     20  C   UNL     1      -3.876  13.546  23.398  0.00  0.00    +0.000 C 
ATOM     21  C   UNL     1      -2.956  14.462  24.095  0.00  0.00    +0.000 A 
ATOM     22  O   UNL     1      -3.282  15.137  25.214  0.00  0.00    +0.000 OA
ATOM     23  N   UNL     1      -2.108  15.672  25.751  0.00  0.00    +0.000 NA
ATOM     24  C   UNL     1      -1.120  15.257  24.944  0.00  0.00    +0.000 A 
ATOM     25  C   UNL     1      -1.609  14.510  23.867  0.00  0.00    +0.000 A 
ATOM     26  C   UNL     1      -1.025  13.691  22.777  0.00  0.00    +0.000 C 
ENDBRANCH  14  18
ENDBRANCH   4  12
BRANCH   1  27
ATOM     27  O   UNL     1       3.172   4.950  20.005  0.00  0.00    +0.000 OA
BRANCH  27  29
ATOM     28  C   UNL     1       3.243   2.743  19.107  0.00  0.00    +0.000 C 
ATOM     29  C   UNL     1       2.339   3.820  19.701  0.00  0.00    +0.000 C 
ATOM     30  C   UNL     1       1.689   3.312  20.986  0.00  0.00    +0.000 C 
ENDBRANCH  27  29
ENDBRANCH   1  27
TORSDOF 4
ENDMDL
MODEL 4
REMARK VINA RESULT:      -7.9      3.466      8.304
REMARK  Name = 
REMARK  6 active torsions:
REMARK  status: ('A' for Active; 'I' for Inactive)
REMARK    1  A    between atoms: C_1  and  C_2
REMARK    2  A    between atoms: C_2  and  C_3
REMARK    3  A    between atoms: C_2  and  O_4
REMARK    4  A    between atoms: O_4  and  C_5
REMARK    5  A    between atoms: C_8  and  C_9
REMARK    6  A    between atoms: C_11  and  N_12
REMARK                            x       y       z     vdW  Elec       q    Type
REMARK                         _______ _______ _______ _____ _____    ______ ____
ROOT
ATOM      1  C   UNL     1       6.146   6.202  16.802  0.00  0.00    +0.000 A 
ATOM      2  C   UNL     1       5.049   6.678  17.547  0.00  0.00    +0.000 A 
ATOM      3  C   UNL     1       3.890   5.879  17.684  0.00  0.00    +0.000 A 
ATOM      4  C   UNL     1       2.593   5.991  18.302  0.00  0.00    +0.000 A 
ATOM      5  N   UNL     1       1.876   4.865  18.090  0.00  0.00    +0.000 NA
ATOM      6  N   UNL     1       2.672   4.082  17.366  0.00  0.00    +0.000 N 
ATOM      7  C   UNL     1       3.888   4.623  17.080  0.00  0.00    +0.000 A 
ATOM      8  C   UNL     1       4.970   4.115  16.357  0.00  0.00    +0.000 A 
ATOM      9  C   UNL     1       6.100   4.924  16.244  0.00  0.00    +0.000 A 
ATOM     10  F   UNL     1       7.153   4.412  15.593  0.00  0.00    +0.000 F 
ATOM     11  H   UNL     1       2.324   3.172  17.084  0.00  0.00    +0.000 HD
ENDROOT
BRANCH   4  12
ATOM     12  C   UNL     1       1.991   7.120  19.039  0.00  0.00    +0.000 A 
ATOM     13  C   UNL     1       1.668   8.282  18.355  0.00  0.00    +0.000 A 
ATOM     14  C   UNL     1       1.245   9.372  19.084  0.00  0.00    +0.000 A 
ATOM     15  N   UNL     1       1.063   9.264  20.413  0.00  0.00    +0.000 NA
ATOM     16  C   UNL     1       1.366   8.084  20.987  0.00  0.00    +0.000 A 
ATOM     17  N   UNL     1       1.845   6.999  20.372  0.00  0.00    +0.000 NA
BRANCH  14  18
ATOM     18  N   UNL     1       1.001  10.603  18.447  0.00  0.00    +0.000 N 
ATOM     19  C   UNL     1      -0.156  11.363  19.025  0.00  0.00    +0.000 C 
ATOM     20  C   UNL     1      -0.355  12.743  18.343  0.00  0.00    +0.000 C 
ATOM     21  C   UNL     1       0.929  13.440  18.537  0.00  0.00    +0.000 A 
ATOM     22  O   UNL     1       1.032  14.678  19.056  0.00  0.00    +0.000 OA
ATOM     23  N   UNL     1       2.378  14.906  19.357  0.00  0.00    +0.000 NA
ATOM     24  C   UNL     1       3.017  13.770  19.038  0.00  0.00    +0.000 A 
ATOM     25  C   UNL     1       2.147  12.822  18.490  0.00  0.00    +0.000 A 
ATOM     26  C   UNL     1       2.224  11.391  18.106  0.00  0.00    +0.000 C 
ENDBRANCH  14  18
ENDBRANCH   4  12
BRANCH   1  27
ATOM     27  O   UNL     1       7.222   7.051  16.738  0.00  0.00    +0.000 OA
BRANCH  27  29
ATOM     28  C   UNL     1       8.336   6.930  18.843  0.00  0.00    +0.000 C 
ATOM     29  C   UNL     1       7.525   7.826  17.909  0.00  0.00    +0.000 C 
ATOM     30  C   UNL     1       8.347   9.048  17.508  0.00  0.00    +0.000 C 
ENDBRANCH  27  29
ENDBRANCH   1  27
TORSDOF 4
ENDMDL
MODEL 5
REMARK VINA RESULT:      -7.8      3.582      8.893
REMARK  Name = 
REMARK  6 active torsions:
REMARK  status: ('A' for Active; 'I' for Inactive)
REMARK    1  A    between atoms: C_1  and  C_2
REMARK    2  A    between atoms: C_2  and  C_3
REMARK    3  A    between atoms: C_2  and  O_4
REMARK    4  A    between atoms: O_4  and  C_5
REMARK    5  A    between atoms: C_8  and  C_9
REMARK    6  A    between atoms: C_11  and  N_12
REMARK                            x       y       z     vdW  Elec       q    Type
REMARK                         _______ _______ _______ _____ _____    ______ ____
ROOT
ATOM      1  C   UNL     1       2.921   5.245  19.978  0.00  0.00    +0.000 A 
ATOM      2  C   UNL     1       2.135   6.414  20.006  0.00  0.00    +0.000 A 
ATOM      3  C   UNL     1       2.329   7.417  19.028  0.00  0.00    +0.000 A 
ATOM      4  C   UNL     1       1.790   8.719  18.726  0.00  0.00    +0.000 A 
ATOM      5  N   UNL     1       2.389   9.228  17.627  0.00  0.00    +0.000 NA
ATOM      6  N   UNL     1       3.271   8.303  17.256  0.00  0.00    +0.000 N 
ATOM      7  C   UNL     1       3.296   7.197  18.049  0.00  0.00    +0.000 A 
ATOM      8  C   UNL     1       4.072   6.038  17.982  0.00  0.00    +0.000 A 
ATOM      9  C   UNL     1       3.855   5.065  18.956  0.00  0.00    +0.000 A 
ATOM     10  F   UNL     1       4.566   3.934  18.858  0.00  0.00    +0.000 F 
ATOM     11  H   UNL     1       3.846   8.486  16.441  0.00  0.00    +0.000 HD
ENDROOT
BRANCH   4  12
ATOM     12  C   UNL     1       0.774   9.514  19.446  0.00  0.00    +0.000 A 
ATOM     13  C   UNL     1      -0.293  10.049  18.741  0.00  0.00    +0.000 A 
ATOM     14  C   UNL     1      -1.146  10.906  19.401  0.00  0.00    +0.000 A 
ATOM     15  N   UNL     1      -0.989  11.130  20.719  0.00  0.00    +0.000 NA
ATOM     16  C   UNL     1       0.054  10.536  21.330  0.00  0.00    +0.000 A 
ATOM     17  N   UNL     1       0.968   9.747  20.757  0.00  0.00    +0.000 NA
BRANCH  14  18
ATOM     18  N   UNL     1      -2.184  11.553  18.706  0.00  0.00    +0.000 N 
ATOM     19  C   UNL     1      -2.813  10.710  17.636  0.00  0.00    +0.000 C 
ATOM     20  C   UNL     1      -3.995  11.430  16.936  0.00  0.00    +0.000 C 
ATOM     21  C   UNL     1      -4.935  11.746  18.027  0.00  0.00    +0.000 A 
ATOM     22  O   UNL     1      -6.242  11.425  18.000  0.00  0.00    +0.000 OA
ATOM     23  N   UNL     1      -6.756  11.611  19.286  0.00  0.00    +0.000 NA
ATOM     24  C   UNL     1      -5.716  12.002  20.038  0.00  0.00    +0.000 A 
ATOM     25  C   UNL     1      -4.547  12.127  19.280  0.00  0.00    +0.000 A 
ATOM     26  C   UNL     1      -3.108  12.361  19.559  0.00  0.00    +0.000 C 
ENDBRANCH  14  18
ENDBRANCH   4  12
BRANCH   1  27
ATOM     27  O   UNL     1       2.648   4.332  20.965  0.00  0.00    +0.000 OA
BRANCH  27  29
ATOM     28  C   UNL     1       1.414   2.493  21.848  0.00  0.00    +0.000 C 
ATOM     29  C   UNL     1       1.990   3.116  20.578  0.00  0.00    +0.000 C 
ATOM     30  C   UNL     1       0.867   3.439  19.596  0.00  0.00    +0.000 C 
ENDBRANCH  27  29
ENDBRANCH   1  27
TORSDOF 4
ENDMDL
MODEL 6
REMARK VINA RESULT:      -7.8      3.647      8.751
REMARK  Name = 
REMARK  6 active torsions:
REMARK  status: ('A' for Active; 'I' for Inactive)
REMARK    1  A    between atoms: C_1  and  C_2
REMARK    2  A    between atoms: C_2  and  C_3
REMARK    3  A    between atoms: C_2  and  O_4
REMARK    4  A    between atoms: O_4  and  C_5
REMARK    5  A    between atoms: C_8  and  C_9
REMARK    6  A    between atoms: C_11  and  N_12
REMARK                            x       y       z     vdW  Elec       q    Type
REMARK                         _______ _______ _______ _____ _____    ______ ____
ROOT
ATOM      1  C   UNL     1       4.009   4.213  17.445  0.00  0.00    +0.000 A 
ATOM      2  C   UNL     1       3.488   5.465  17.831  0.00  0.00    +0.000 A 
ATOM      3  C   UNL     1       2.806   5.595  19.063  0.00  0.00    +0.000 A 
ATOM      4  C   UNL     1       2.123   6.635  19.790  0.00  0.00    +0.000 A 
ATOM      5  N   UNL     1       1.646   6.151  20.958  0.00  0.00    +0.000 NA
ATOM      6  N   UNL     1       1.998   4.867  20.969  0.00  0.00    +0.000 N 
ATOM      7  C   UNL     1       2.688   4.463  19.867  0.00  0.00    +0.000 A 
ATOM      8  C   UNL     1       3.214   3.216  19.522  0.00  0.00    +0.000 A 
ATOM      9  C   UNL     1       3.887   3.120  18.305  0.00  0.00    +0.000 A 
ATOM     10  F   UNL     1       4.433   1.935  18.001  0.00  0.00    +0.000 F 
ATOM     11  H   UNL     1       1.730   4.302  21.766  0.00  0.00    +0.000 HD
ENDROOT
BRANCH   4  12
ATOM     12  C   UNL     1       1.866   8.040  19.415  0.00  0.00    +0.000 A 
ATOM     13  C   UNL     1       1.047   8.817  20.219  0.00  0.00    +0.000 A 
ATOM     14  C   UNL     1       0.702  10.075  19.776  0.00  0.00    +0.000 A 
ATOM     15  N   UNL     1       1.234  10.558  18.637  0.00  0.00    +0.000 NA
ATOM     16  C   UNL     1       2.051   9.744  17.941  0.00  0.00    +0.000 A 
ATOM     17  N   UNL     1       2.385   8.490  18.258  0.00  0.00    +0.000 NA
BRANCH  14  18
ATOM     18  N   UNL     1      -0.205  10.864  20.507  0.00  0.00    +0.000 N 
ATOM     19  C   UNL     1      -0.246  10.541  21.971  0.00  0.00    +0.000 C 
ATOM     20  C   UNL     1      -1.207  11.473  22.755  0.00  0.00    +0.000 C 
ATOM     21  C   UNL     1      -0.701  12.832  22.493  0.00  0.00    +0.000 A 
ATOM     22  O   UNL     1      -0.430  13.725  23.464  0.00  0.00    +0.000 OA
ATOM     23  N   UNL     1       0.287  14.779  22.889  0.00  0.00    +0.000 NA
ATOM     24  C   UNL     1       0.448  14.445  21.599  0.00  0.00    +0.000 A 
ATOM     25  C   UNL     1      -0.183  13.235  21.295  0.00  0.00    +0.000 A 
ATOM     26  C   UNL     1      -0.227  12.311  20.134  0.00  0.00    +0.000 C 
ENDBRANCH  14  18
ENDBRANCH   4  12
BRANCH   1  27
ATOM     27  O   UNL     1       4.659   4.197  16.238  0.00  0.00    +0.000 OA
BRANCH  27  29
ATOM     28  C   UNL     1       6.914   4.500  16.952  0.00  0.00    +0.000 C 
ATOM     29  C   UNL     1       5.792   5.067  16.085  0.00  0.00    +0.000 C 
ATOM     30  C   UNL     1       6.219   5.086  14.619  0.00  0.00    +0.000 C 
ENDBRANCH  27  29
ENDBRANCH   1  27
TORSDOF 4
ENDMDL
MODEL 7
REMARK VINA RESULT:      -7.8      2.278      3.467
REMARK  Name = 
REMARK  6 active torsions:
REMARK  status: ('A' for Active; 'I' for Inactive)
REMARK    1  A    between atoms: C_1  and  C_2
REMARK    2  A    between atoms: C_2  and  C_3
REMARK    3  A    between atoms: C_2  and  O_4
REMARK    4  A    between atoms: O_4  and  C_5
REMARK    5  A    between atoms: C_8  and  C_9
REMARK    6  A    between atoms: C_11  and  N_12
REMARK                            x       y       z     vdW  Elec       q    Type
REMARK                         _______ _______ _______ _____ _____    ______ ____
ROOT
ATOM      1  C   UNL     1      -1.852  11.421  18.453  0.00  0.00    +0.000 A 
ATOM      2  C   UNL     1      -0.789  10.500  18.361  0.00  0.00    +0.000 A 
ATOM      3  C   UNL     1      -0.078  10.126  19.525  0.00  0.00    +0.000 A 
ATOM      4  C   UNL     1       1.042   9.282  19.855  0.00  0.00    +0.000 A 
ATOM      5  N   UNL     1       1.280   9.322  21.185  0.00  0.00    +0.000 NA
ATOM      6  N   UNL     1       0.366  10.157  21.674  0.00  0.00    +0.000 N 
ATOM      7  C   UNL     1      -0.476  10.680  20.740  0.00  0.00    +0.000 A 
ATOM      8  C   UNL     1      -1.541  11.576  20.865  0.00  0.00    +0.000 A 
ATOM      9  C   UNL     1      -2.226  11.921  19.702  0.00  0.00    +0.000 A 
ATOM     10  F   UNL     1      -3.278  12.740  19.834  0.00  0.00    +0.000 F 
ATOM     11  H   UNL     1       0.367  10.341  22.670  0.00  0.00    +0.000 HD
ENDROOT
BRANCH   4  12
ATOM     12  C   UNL     1       1.916   8.480  18.974  0.00  0.00    +0.000 A 
ATOM     13  C   UNL     1       1.936   7.101  19.112  0.00  0.00    +0.000 A 
ATOM     14  C   UNL     1       2.863   6.386  18.385  0.00  0.00    +0.000 A 
ATOM     15  N   UNL     1       3.653   7.017  17.497  0.00  0.00    +0.000 NA
ATOM     16  C   UNL     1       3.537   8.356  17.403  0.00  0.00    +0.000 A 
ATOM     17  N   UNL     1       2.718   9.135  18.114  0.00  0.00    +0.000 NA
BRANCH  14  18
ATOM     18  N   UNL     1       2.990   4.997  18.564  0.00  0.00    +0.000 N 
ATOM     19  C   UNL     1       4.347   4.570  19.040  0.00  0.00    +0.000 C 
ATOM     20  C   UNL     1       4.431   3.041  19.288  0.00  0.00    +0.000 C 
ATOM     21  C   UNL     1       3.376   2.768  20.280  0.00  0.00    +0.000 A 
ATOM     22  O   UNL     1       3.587   2.094  21.427  0.00  0.00    +0.000 OA
ATOM     23  N   UNL     1       2.464   2.268  22.240  0.00  0.00    +0.000 NA
ATOM     24  C   UNL     1       1.642   3.076  21.554  0.00  0.00    +0.000 A 
ATOM     25  C   UNL     1       2.163   3.398  20.296  0.00  0.00    +0.000 A 
ATOM     26  C   UNL     1       1.812   4.330  19.196  0.00  0.00    +0.000 C 
ENDBRANCH  14  18
ENDBRANCH   4  12
BRANCH   1  27
ATOM     27  O   UNL     1      -2.480  11.710  17.269  0.00  0.00    +0.000 OA
BRANCH  27  29
ATOM     28  C   UNL     1      -4.826  11.624  16.848  0.00  0.00    +0.000 C 
ATOM     29  C   UNL     1      -3.526  10.823  16.840  0.00  0.00    +0.000 C 
ATOM     30  C   UNL     1      -3.222  10.328  15.428  0.00  0.00    +0.000 C 
ENDBRANCH  27  29
ENDBRANCH   1  27
TORSDOF 4
ENDMDL
MODEL 8
REMARK VINA RESULT:      -7.7      3.911      8.941
REMARK  Name = 
REMARK  6 active torsions:
REMARK  status: ('A' for Active; 'I' for Inactive)
REMARK    1  A    between atoms: C_1  and  C_2
REMARK    2  A    between atoms: C_2  and  C_3
REMARK    3  A    between atoms: C_2  and  O_4
REMARK    4  A    between atoms: O_4  and  C_5
REMARK    5  A    between atoms: C_8  and  C_9
REMARK    6  A    between atoms: C_11  and  N_12
REMARK                            x       y       z     vdW  Elec       q    Type
REMARK                         _______ _______ _______ _____ _____    ______ ____
ROOT
ATOM      1  C   UNL     1       2.819   5.890  19.540  0.00  0.00    +0.000 A 
ATOM      2  C   UNL     1       2.032   6.877  20.165  0.00  0.00    +0.000 A 
ATOM      3  C   UNL     1       1.815   8.118  19.522  0.00  0.00    +0.000 A 
ATOM      4  C   UNL     1       1.135   9.355  19.810  0.00  0.00    +0.000 A 
ATOM      5  N   UNL     1       1.281  10.218  18.780  0.00  0.00    +0.000 NA
ATOM      6  N   UNL     1       2.024   9.568  17.888  0.00  0.00    +0.000 N 
ATOM      7  C   UNL     1       2.386   8.310  18.265  0.00  0.00    +0.000 A 
ATOM      8  C   UNL     1       3.149   7.341  17.611  0.00  0.00    +0.000 A 
ATOM      9  C   UNL     1       3.340   6.126  18.267  0.00  0.00    +0.000 A 
ATOM     10  F   UNL     1       4.031   5.182  17.614  0.00  0.00    +0.000 F 
ATOM     11  H   UNL     1       2.265  10.042  17.025  0.00  0.00    +0.000 HD
ENDROOT
BRANCH   4  12
ATOM     12  C   UNL     1       0.398   9.771  21.021  0.00  0.00    +0.000 A 
ATOM     13  C   UNL     1      -0.437  10.876  20.960  0.00  0.00    +0.000 A 
ATOM     14  C   UNL     1      -0.999  11.334  22.132  0.00  0.00    +0.000 A 
ATOM     15  N   UNL     1      -0.811  10.655  23.279  0.00  0.00    +0.000 NA
ATOM     16  C   UNL     1      -0.015   9.570  23.235  0.00  0.00    +0.000 A 
ATOM     17  N   UNL     1       0.625   9.094  22.162  0.00  0.00    +0.000 NA
BRANCH  14  18
ATOM     18  N   UNL     1      -1.773  12.509  22.139  0.00  0.00    +0.000 N 
ATOM     19  C   UNL     1      -1.515  13.394  23.323  0.00  0.00    +0.000 C 
ATOM     20  C   UNL     1      -2.336  14.710  23.264  0.00  0.00    +0.000 C 
ATOM     21  C   UNL     1      -1.937  15.340  21.993  0.00  0.00    +0.000 A 
ATOM     22  O   UNL     1      -1.512  16.614  21.895  0.00  0.00    +0.000 OA
ATOM     23  N   UNL     1      -0.957  16.784  20.623  0.00  0.00    +0.000 NA
ATOM     24  C   UNL     1      -1.040  15.584  20.029  0.00  0.00    +0.000 A 
ATOM     25  C   UNL     1      -1.676  14.644  20.846  0.00  0.00    +0.000 A 
ATOM     26  C   UNL     1      -1.916  13.180  20.812  0.00  0.00    +0.000 C 
ENDBRANCH  14  18
ENDBRANCH   4  12
BRANCH   1  27
ATOM     27  O   UNL     1       2.959   4.721  20.244  0.00  0.00    +0.000 OA
BRANCH  27  29
ATOM     28  C   UNL     1       1.134   3.404  19.458  0.00  0.00    +0.000 C 
ATOM     29  C   UNL     1       1.760   4.065  20.684  0.00  0.00    +0.000 C 
ATOM     30  C   UNL     1       2.116   3.008  21.727  0.00  0.00    +0.000 C 
ENDBRANCH  27  29
ENDBRANCH   1  27
TORSDOF 4
ENDMDL
MODEL 9
REMARK VINA RESULT:      -7.7      4.014      8.630
REMARK  Name = 
REMARK  6 active torsions:
REMARK  status: ('A' for Active; 'I' for Inactive)
REMARK    1  A    between atoms: C_1  and  C_2
REMARK    2  A    between atoms: C_2  and  C_3
REMARK    3  A    between atoms: C_2  and  O_4
REMARK    4  A    between atoms: O_4  and  C_5
REMARK    5  A    between atoms: C_8  and  C_9
REMARK    6  A    between atoms: C_11  and  N_12
REMARK                            x       y       z     vdW  Elec       q    Type
REMARK                         _______ _______ _______ _____ _____    ______ ____
ROOT
ATOM      1  C   UNL     1       5.528   4.060  13.749  0.00  0.00    +0.000 A 
ATOM      2  C   UNL     1       4.965   4.560  14.941  0.00  0.00    +0.000 A 
ATOM      3  C   UNL     1       5.733   5.390  15.789  0.00  0.00    +0.000 A 
ATOM      4  C   UNL     1       5.564   6.057  17.056  0.00  0.00    +0.000 A 
ATOM      5  N   UNL     1       6.689   6.730  17.383  0.00  0.00    +0.000 NA
ATOM      6  N   UNL     1       7.534   6.496  16.382  0.00  0.00    +0.000 N 
ATOM      7  C   UNL     1       7.035   5.699  15.397  0.00  0.00    +0.000 A 
ATOM      8  C   UNL     1       7.610   5.238  14.211  0.00  0.00    +0.000 A 
ATOM      9  C   UNL     1       6.826   4.427  13.392  0.00  0.00    +0.000 A 
ATOM     10  F   UNL     1       7.365   4.029  12.232  0.00  0.00    +0.000 F 
ATOM     11  H   UNL     1       8.459   6.908  16.427  0.00  0.00    +0.000 HD
ENDROOT
BRANCH   4  12
ATOM     12  C   UNL     1       4.413   6.050  17.982  0.00  0.00    +0.000 A 
ATOM     13  C   UNL     1       3.478   7.071  17.908  0.00  0.00    +0.000 A 
ATOM     14  C   UNL     1       2.497   7.127  18.874  0.00  0.00    +0.000 A 
ATOM     15  N   UNL     1       2.406   6.153  19.799  0.00  0.00    +0.000 NA
ATOM     16  C   UNL     1       3.336   5.180  19.769  0.00  0.00    +0.000 A 
ATOM     17  N   UNL     1       4.360   5.083  18.916  0.00  0.00    +0.000 NA
BRANCH  14  18
ATOM     18  N   UNL     1       1.585   8.198  18.901  0.00  0.00    +0.000 N 
ATOM     19  C   UNL     1       1.296   8.711  20.281  0.00  0.00    +0.000 C 
ATOM     20  C   UNL     1       0.338   9.932  20.268  0.00  0.00    +0.000 C 
ATOM     21  C   UNL     1       1.024  10.931  19.429  0.00  0.00    +0.000 A 
ATOM     22  O   UNL     1       1.247  12.202  19.816  0.00  0.00    +0.000 OA
ATOM     23  N   UNL     1       2.152  12.772  18.916  0.00  0.00    +0.000 NA
ATOM     24  C   UNL     1       2.462  11.797  18.049  0.00  0.00    +0.000 A 
ATOM     25  C   UNL     1       1.753  10.621  18.316  0.00  0.00    +0.000 A 
ATOM     26  C   UNL     1       1.777   9.220  17.828  0.00  0.00    +0.000 C 
ENDBRANCH  14  18
ENDBRANCH   4  12
BRANCH   1  27
ATOM     27  O   UNL     1       4.695   3.273  12.995  0.00  0.00    +0.000 OA
BRANCH  27  29
ATOM     28  C   UNL     1       5.535   1.734  11.378  0.00  0.00    +0.000 C 
ATOM     29  C   UNL     1       4.993   3.146  11.596  0.00  0.00    +0.000 C 
ATOM     30  C   UNL     1       3.714   3.348  10.787  0.00  0.00    +0.000 C 
ENDBRANCH  27  29
ENDBRANCH   1  27
TORSDOF 4
ENDMDL
