MODEL 1
REMARK VINA RESULT:      -8.3      0.000      0.000
REMARK  Name = 
REMARK  3 active torsions:
REMARK  status: ('A' for Active; 'I' for Inactive)
REMARK    1  A    between atoms: N_3  and  C_4
REMARK    2  A    between atoms: C_4  and  C_5
REMARK    3  A    between atoms: C_18  and  C_19
REMARK                            x       y       z     vdW  Elec       q    Type
REMARK                         _______ _______ _______ _____ _____    ______ ____
ROOT
ATOM      1  O   UNL     1       0.492   9.631  23.760  0.00  0.00    +0.000 OA
ATOM      2  C   UNL     1       0.028   9.988  22.678  0.00  0.00    +0.000 C 
ATOM      3  N   UNL     1       0.206   9.292  21.524  0.00  0.00    +0.000 N 
ATOM      4  N   UNL     1      -0.609  11.187  22.589  0.00  0.00    +0.000 N 
ATOM      5  C   UNL     1      -1.190  11.695  21.466  0.00  0.00    +0.000 A 
ATOM      6  N   UNL     1      -1.508  11.062  20.363  0.00  0.00    +0.000 NA
ATOM      7  C   UNL     1      -2.105  11.956  19.481  0.00  0.00    +0.000 A 
ATOM      8  C   UNL     1      -2.098  13.272  19.909  0.00  0.00    +0.000 A 
ATOM      9  S   UNL     1      -1.518  13.363  21.523  0.00  0.00    +0.000 S 
ATOM     10  H   UNL     1      -0.381   9.543  20.734  0.00  0.00    +0.000 HD
ATOM     11  H   UNL     1      -0.564  11.770  23.410  0.00  0.00    +0.000 HD
ENDROOT
BRANCH   7  12
ATOM     12  C   UNL     1      -2.681  11.503  18.221  0.00  0.00    +0.000 A 
ATOM     13  C   UNL     1      -4.012  11.772  17.892  0.00  0.00    +0.000 A 
ATOM     14  C   UNL     1      -4.515  11.276  16.699  0.00  0.00    +0.000 A 
ATOM     15  N   UNL     1      -3.792  10.542  15.829  0.00  0.00    +0.000 NA
ATOM     16  C   UNL     1      -2.511  10.285  16.171  0.00  0.00    +0.000 A 
ATOM     17  C   UNL     1      -1.918  10.734  17.340  0.00  0.00    +0.000 A 
ENDBRANCH   7  12
BRANCH   3  18
ATOM     18  C   UNL     1       0.992   8.087  21.460  0.00  0.00    +0.000 C 
BRANCH  18  19
ATOM     19  C   UNL     1       1.602   7.907  20.088  0.00  0.00    +0.000 A 
ATOM     20  C   UNL     1       1.542   9.005  19.206  0.00  0.00    +0.000 A 
ATOM     21  C   UNL     1       2.102   8.936  17.936  0.00  0.00    +0.000 A 
ATOM     22  C   UNL     1       2.725   7.764  17.519  0.00  0.00    +0.000 A 
ATOM     23  C   UNL     1       2.783   6.641  18.359  0.00  0.00    +0.000 A 
ATOM     24  C   UNL     1       3.417   5.471  17.914  0.00  0.00    +0.000 A 
ATOM     25  C   UNL     1       3.490   4.342  18.727  0.00  0.00    +0.000 A 
ATOM     26  C   UNL     1       2.920   4.367  19.992  0.00  0.00    +0.000 A 
ATOM     27  C   UNL     1       2.283   5.523  20.448  0.00  0.00    +0.000 A 
ATOM     28  C   UNL     1       2.208   6.693  19.657  0.00  0.00    +0.000 A 
ENDBRANCH  18  19
ENDBRANCH   3  18
TORSDOF 3
ENDMDL
MODEL 2
REMARK VINA RESULT:      -8.0      3.106      7.636
REMARK  Name = 
REMARK  3 active torsions:
REMARK  status: ('A' for Active; 'I' for Inactive)
REMARK    1  A    between atoms: N_3  and  C_4
REMARK    2  A    between atoms: C_4  and  C_5
REMARK    3  A    between atoms: C_18  and  C_19
REMARK                            x       y       z     vdW  Elec       q    Type
REMARK                         _______ _______ _______ _____ _____    ______ ____
ROOT
ATOM      1  O   UNL     1       0.735   9.359  21.740  0.00  0.00    +0.000 OA
ATOM      2  C   UNL     1       1.212   8.644  20.859  0.00  0.00    +0.000 C 
ATOM      3  N   UNL     1       1.458   9.083  19.597  0.00  0.00    +0.000 N 
ATOM      4  N   UNL     1       1.413   7.321  21.109  0.00  0.00    +0.000 N 
ATOM      5  C   UNL     1       1.953   6.424  20.239  0.00  0.00    +0.000 A 
ATOM      6  N   UNL     1       2.631   6.666  19.144  0.00  0.00    +0.000 NA
ATOM      7  C   UNL     1       3.019   5.460  18.571  0.00  0.00    +0.000 A 
ATOM      8  C   UNL     1       2.503   4.338  19.197  0.00  0.00    +0.000 A 
ATOM      9  S   UNL     1       1.686   4.792  20.638  0.00  0.00    +0.000 S 
ATOM     10  H   UNL     1       2.040   8.495  19.005  0.00  0.00    +0.000 HD
ATOM     11  H   UNL     1       1.048   6.980  21.985  0.00  0.00    +0.000 HD
ENDROOT
BRANCH   7  12
ATOM     12  C   UNL     1       3.900   5.422  17.412  0.00  0.00    +0.000 A 
ATOM     13  C   UNL     1       4.294   4.212  16.835  0.00  0.00    +0.000 A 
ATOM     14  C   UNL     1       5.170   4.240  15.761  0.00  0.00    +0.000 A 
ATOM     15  N   UNL     1       5.671   5.376  15.233  0.00  0.00    +0.000 NA
ATOM     16  C   UNL     1       5.285   6.534  15.811  0.00  0.00    +0.000 A 
ATOM     17  C   UNL     1       4.417   6.610  16.888  0.00  0.00    +0.000 A 
ENDBRANCH   7  12
BRANCH   3  18
ATOM     18  C   UNL     1       1.145  10.420  19.166  0.00  0.00    +0.000 C 
BRANCH  18  19
ATOM     19  C   UNL     1      -0.281  10.513  18.670  0.00  0.00    +0.000 A 
ATOM     20  C   UNL     1      -0.623   9.742  17.541  0.00  0.00    +0.000 A 
ATOM     21  C   UNL     1      -1.918   9.745  17.035  0.00  0.00    +0.000 A 
ATOM     22  C   UNL     1      -2.894  10.528  17.643  0.00  0.00    +0.000 A 
ATOM     23  C   UNL     1      -2.586  11.328  18.754  0.00  0.00    +0.000 A 
ATOM     24  C   UNL     1      -3.590  12.108  19.349  0.00  0.00    +0.000 A 
ATOM     25  C   UNL     1      -3.313  12.911  20.453  0.00  0.00    +0.000 A 
ATOM     26  C   UNL     1      -2.026  12.952  20.970  0.00  0.00    +0.000 A 
ATOM     27  C   UNL     1      -1.015  12.182  20.388  0.00  0.00    +0.000 A 
ATOM     28  C   UNL     1      -1.266  11.342  19.278  0.00  0.00    +0.000 A 
ENDBRANCH  18  19
ENDBRANCH   3  18
TORSDOF 3
ENDMDL
MODEL 3
REMARK VINA RESULT:      -8.0      1.079      1.514
REMARK  Name = 
REMARK  3 active torsions:
REMARK  status: ('A' for Active; 'I' for Inactive)
REMARK    1  A    between atoms: N_3  and  C_4
REMARK    2  A    between atoms: C_4  and  C_5
REMARK    3  A    between atoms: C_18  and  C_19
REMARK                            x       y       z     vdW  Elec       q    Type
REMARK                         _______ _______ _______ _____ _____    ______ ____
ROOT
ATOM      1  O   UNL     1       1.587   9.467  22.940  0.00  0.00    +0.000 OA
ATOM      2  C   UNL     1       0.984   9.735  21.902  0.00  0.00    +0.000 C 
ATOM      3  N   UNL     1       0.686   8.809  20.954  0.00  0.00    +0.000 N 
ATOM      4  N   UNL     1       0.684  11.032  21.621  0.00  0.00    +0.000 N 
ATOM      5  C   UNL     1       0.002  11.469  20.526  0.00  0.00    +0.000 A 
ATOM      6  N   UNL     1      -0.731  10.767  19.696  0.00  0.00    +0.000 NA
ATOM      7  C   UNL     1      -1.267  11.614  18.733  0.00  0.00    +0.000 A 
ATOM      8  C   UNL     1      -0.810  12.918  18.800  0.00  0.00    +0.000 A 
ATOM      9  S   UNL     1       0.149  13.133  20.209  0.00  0.00    +0.000 S 
ATOM     10  H   UNL     1       0.011   9.073  20.241  0.00  0.00    +0.000 HD
ATOM     11  H   UNL     1       1.080  11.719  22.244  0.00  0.00    +0.000 HD
ENDROOT
BRANCH   7  12
ATOM     12  C   UNL     1      -2.232  11.129  17.754  0.00  0.00    +0.000 A 
ATOM     13  C   UNL     1      -1.884  10.166  16.804  0.00  0.00    +0.000 A 
ATOM     14  C   UNL     1      -2.833   9.778  15.871  0.00  0.00    +0.000 A 
ATOM     15  N   UNL     1      -4.084  10.279  15.823  0.00  0.00    +0.000 NA
ATOM     16  C   UNL     1      -4.397  11.216  16.743  0.00  0.00    +0.000 A 
ATOM     17  C   UNL     1      -3.519  11.671  17.714  0.00  0.00    +0.000 A 
ENDBRANCH   7  12
BRANCH   3  18
ATOM     18  C   UNL     1       1.085   7.430  21.064  0.00  0.00    +0.000 C 
BRANCH  18  19
ATOM     19  C   UNL     1       1.972   7.026  19.908  0.00  0.00    +0.000 A 
ATOM     20  C   UNL     1       2.245   8.004  18.931  0.00  0.00    +0.000 A 
ATOM     21  C   UNL     1       3.073   7.727  17.849  0.00  0.00    +0.000 A 
ATOM     22  C   UNL     1       3.636   6.461  17.718  0.00  0.00    +0.000 A 
ATOM     23  C   UNL     1       3.369   5.453  18.657  0.00  0.00    +0.000 A 
ATOM     24  C   UNL     1       3.949   4.185  18.502  0.00  0.00    +0.000 A 
ATOM     25  C   UNL     1       3.701   3.166  19.418  0.00  0.00    +0.000 A 
ATOM     26  C   UNL     1       2.860   3.399  20.496  0.00  0.00    +0.000 A 
ATOM     27  C   UNL     1       2.272   4.656  20.664  0.00  0.00    +0.000 A 
ATOM     28  C   UNL     1       2.518   5.718  19.763  0.00  0.00    +0.000 A 
ENDBRANCH  18  19
ENDBRANCH   3  18
TORSDOF 3
ENDMDL
MODEL 4
REMARK VINA RESULT:      -8.0      1.379      1.630
REMARK  Name = 
REMARK  3 active torsions:
REMARK  status: ('A' for Active; 'I' for Inactive)
REMARK    1  A    between atoms: N_3  and  C_4
REMARK    2  A    between atoms: C_4  and  C_5
REMARK    3  A    between atoms: C_18  and  C_19
REMARK                            x       y       z     vdW  Elec       q    Type
REMARK                         _______ _______ _______ _____ _____    ______ ____
ROOT
ATOM      1  O   UNL     1       1.801   9.365  22.890  0.00  0.00    +0.000 OA
ATOM      2  C   UNL     1       1.188   9.632  21.857  0.00  0.00    +0.000 C 
ATOM      3  N   UNL     1       0.747   8.685  20.987  0.00  0.00    +0.000 N 
ATOM      4  N   UNL     1       1.022  10.934  21.497  0.00  0.00    +0.000 N 
ATOM      5  C   UNL     1       0.346  11.373  20.399  0.00  0.00    +0.000 A 
ATOM      6  N   UNL     1      -0.495  10.706  19.647  0.00  0.00    +0.000 NA
ATOM      7  C   UNL     1      -0.975  11.544  18.646  0.00  0.00    +0.000 A 
ATOM      8  C   UNL     1      -0.372  12.789  18.606  0.00  0.00    +0.000 A 
ATOM      9  S   UNL     1       0.665  12.985  19.961  0.00  0.00    +0.000 S 
ATOM     10  H   UNL     1       0.076   8.978  20.282  0.00  0.00    +0.000 HD
ATOM     11  H   UNL     1       1.519  11.610  22.056  0.00  0.00    +0.000 HD
ENDROOT
BRANCH   7  12
ATOM     12  C   UNL     1      -2.028  11.110  17.738  0.00  0.00    +0.000 A 
ATOM     13  C   UNL     1      -3.312  11.660  17.796  0.00  0.00    +0.000 A 
ATOM     14  C   UNL     1      -4.284  11.173  16.936  0.00  0.00    +0.000 A 
ATOM     15  N   UNL     1      -4.065  10.192  16.037  0.00  0.00    +0.000 NA
ATOM     16  C   UNL     1      -2.821   9.667  16.003  0.00  0.00    +0.000 A 
ATOM     17  C   UNL     1      -1.784  10.083  16.823  0.00  0.00    +0.000 A 
ENDBRANCH   7  12
BRANCH   3  18
ATOM     18  C   UNL     1       0.995   7.280  21.179  0.00  0.00    +0.000 C 
BRANCH  18  19
ATOM     19  C   UNL     1       1.730   6.690  19.997  0.00  0.00    +0.000 A 
ATOM     20  C   UNL     1       2.367   7.589  19.118  0.00  0.00    +0.000 A 
ATOM     21  C   UNL     1       3.088   7.132  18.022  0.00  0.00    +0.000 A 
ATOM     22  C   UNL     1       3.179   5.765  17.777  0.00  0.00    +0.000 A 
ATOM     23  C   UNL     1       2.539   4.840  18.615  0.00  0.00    +0.000 A 
ATOM     24  C   UNL     1       2.645   3.466  18.345  0.00  0.00    +0.000 A 
ATOM     25  C   UNL     1       2.020   2.525  19.160  0.00  0.00    +0.000 A 
ATOM     26  C   UNL     1       1.271   2.947  20.249  0.00  0.00    +0.000 A 
ATOM     27  C   UNL     1       1.153   4.311  20.530  0.00  0.00    +0.000 A 
ATOM     28  C   UNL     1       1.790   5.291  19.734  0.00  0.00    +0.000 A 
ENDBRANCH  18  19
ENDBRANCH   3  18
TORSDOF 3
ENDMDL
MODEL 5
REMARK VINA RESULT:      -7.8      4.642      8.468
REMARK  Name = 
REMARK  3 active torsions:
REMARK  status: ('A' for Active; 'I' for Inactive)
REMARK    1  A    between atoms: N_3  and  C_4
REMARK    2  A    between atoms: C_4  and  C_5
REMARK    3  A    between atoms: C_18  and  C_19
REMARK                            x       y       z     vdW  Elec       q    Type
REMARK                         _______ _______ _______ _____ _____    ______ ____
ROOT
ATOM      1  O   UNL     1       1.574   3.659  22.114  0.00  0.00    +0.000 OA
ATOM      2  C   UNL     1       2.209   3.836  21.075  0.00  0.00    +0.000 C 
ATOM      3  N   UNL     1       2.455   5.067  20.554  0.00  0.00    +0.000 N 
ATOM      4  N   UNL     1       2.604   2.760  20.343  0.00  0.00    +0.000 N 
ATOM      5  C   UNL     1       3.331   2.808  19.192  0.00  0.00    +0.000 A 
ATOM      6  N   UNL     1       4.024   3.813  18.714  0.00  0.00    +0.000 NA
ATOM      7  C   UNL     1       4.633   3.424  17.526  0.00  0.00    +0.000 A 
ATOM      8  C   UNL     1       4.267   2.164  17.083  0.00  0.00    +0.000 A 
ATOM      9  S   UNL     1       3.306   1.379  18.270  0.00  0.00    +0.000 S 
ATOM     10  H   UNL     1       3.156   5.131  19.822  0.00  0.00    +0.000 HD
ATOM     11  H   UNL     1       2.249   1.867  20.647  0.00  0.00    +0.000 HD
ENDROOT
BRANCH   7  12
ATOM     12  C   UNL     1       5.574   4.297  16.838  0.00  0.00    +0.000 A 
ATOM     13  C   UNL     1       5.993   4.031  15.532  0.00  0.00    +0.000 A 
ATOM     14  C   UNL     1       6.925   4.874  14.947  0.00  0.00    +0.000 A 
ATOM     15  N   UNL     1       7.458   5.946  15.568  0.00  0.00    +0.000 NA
ATOM     16  C   UNL     1       7.048   6.180  16.833  0.00  0.00    +0.000 A 
ATOM     17  C   UNL     1       6.124   5.395  17.504  0.00  0.00    +0.000 A 
ENDBRANCH   7  12
BRANCH   3  18
ATOM     18  C   UNL     1       1.957   6.277  21.155  0.00  0.00    +0.000 C 
BRANCH  18  19
ATOM     19  C   UNL     1       1.851   7.388  20.136  0.00  0.00    +0.000 A 
ATOM     20  C   UNL     1       2.528   7.209  18.912  0.00  0.00    +0.000 A 
ATOM     21  C   UNL     1       2.461   8.168  17.908  0.00  0.00    +0.000 A 
ATOM     22  C   UNL     1       1.723   9.330  18.111  0.00  0.00    +0.000 A 
ATOM     23  C   UNL     1       1.056   9.556  19.325  0.00  0.00    +0.000 A 
ATOM     24  C   UNL     1       0.319  10.737  19.504  0.00  0.00    +0.000 A 
ATOM     25  C   UNL     1      -0.354  10.987  20.697  0.00  0.00    +0.000 A 
ATOM     26  C   UNL     1      -0.289  10.064  21.731  0.00  0.00    +0.000 A 
ATOM     27  C   UNL     1       0.442   8.885  21.569  0.00  0.00    +0.000 A 
ATOM     28  C   UNL     1       1.121   8.590  20.364  0.00  0.00    +0.000 A 
ENDBRANCH  18  19
ENDBRANCH   3  18
TORSDOF 3
ENDMDL
MODEL 6
REMARK VINA RESULT:      -7.7      4.450      8.370
REMARK  Name = 
REMARK  3 active torsions:
REMARK  status: ('A' for Active; 'I' for Inactive)
REMARK    1  A    between atoms: N_3  and  C_4
REMARK    2  A    between atoms: C_4  and  C_5
REMARK    3  A    between atoms: C_18  and  C_19
REMARK                            x       y       z     vdW  Elec       q    Type
REMARK                         _______ _______ _______ _____ _____    ______ ____
ROOT
ATOM      1  O   UNL     1       0.707   3.959  20.677  0.00  0.00    +0.000 OA
ATOM      2  C   UNL     1       1.690   4.449  20.123  0.00  0.00    +0.000 C 
ATOM      3  N   UNL     1       2.086   5.736  20.310  0.00  0.00    +0.000 N 
ATOM      4  N   UNL     1       2.366   3.719  19.195  0.00  0.00    +0.000 N 
ATOM      5  C   UNL     1       3.480   4.124  18.525  0.00  0.00    +0.000 A 
ATOM      6  N   UNL     1       4.278   5.124  18.812  0.00  0.00    +0.000 NA
ATOM      7  C   UNL     1       5.309   5.167  17.880  0.00  0.00    +0.000 A 
ATOM      8  C   UNL     1       5.176   4.264  16.840  0.00  0.00    +0.000 A 
ATOM      9  S   UNL     1       3.851   3.213  17.138  0.00  0.00    +0.000 S 
ATOM     10  H   UNL     1       3.015   5.989  19.983  0.00  0.00    +0.000 HD
ATOM     11  H   UNL     1       1.944   2.841  18.935  0.00  0.00    +0.000 HD
ENDROOT
BRANCH   7  12
ATOM     12  C   UNL     1       6.420   6.098  18.025  0.00  0.00    +0.000 A 
ATOM     13  C   UNL     1       7.417   5.897  18.983  0.00  0.00    +0.000 A 
ATOM     14  C   UNL     1       8.425   6.841  19.103  0.00  0.00    +0.000 A 
ATOM     15  N   UNL     1       8.502   7.954  18.344  0.00  0.00    +0.000 NA
ATOM     16  C   UNL     1       7.524   8.134  17.431  0.00  0.00    +0.000 A 
ATOM     17  C   UNL     1       6.474   7.250  17.238  0.00  0.00    +0.000 A 
ENDBRANCH   7  12
BRANCH   3  18
ATOM     18  C   UNL     1       1.363   6.656  21.149  0.00  0.00    +0.000 C 
BRANCH  18  19
ATOM     19  C   UNL     1       1.239   8.012  20.491  0.00  0.00    +0.000 A 
ATOM     20  C   UNL     1       1.807   8.162  19.210  0.00  0.00    +0.000 A 
ATOM     21  C   UNL     1       1.715   9.366  18.521  0.00  0.00    +0.000 A 
ATOM     22  C   UNL     1       1.062  10.447  19.105  0.00  0.00    +0.000 A 
ATOM     23  C   UNL     1       0.505  10.344  20.389  0.00  0.00    +0.000 A 
ATOM     24  C   UNL     1      -0.149  11.449  20.955  0.00  0.00    +0.000 A 
ATOM     25  C   UNL     1      -0.711  11.376  22.227  0.00  0.00    +0.000 A 
ATOM     26  C   UNL     1      -0.616  10.197  22.954  0.00  0.00    +0.000 A 
ATOM     27  C   UNL     1       0.033   9.088  22.406  0.00  0.00    +0.000 A 
ATOM     28  C   UNL     1       0.598   9.123  21.110  0.00  0.00    +0.000 A 
ENDBRANCH  18  19
ENDBRANCH   3  18
TORSDOF 3
ENDMDL
MODEL 7
REMARK VINA RESULT:      -7.6      3.896      5.949
REMARK  Name = 
REMARK  3 active torsions:
REMARK  status: ('A' for Active; 'I' for Inactive)
REMARK    1  A    between atoms: N_3  and  C_4
REMARK    2  A    between atoms: C_4  and  C_5
REMARK    3  A    between atoms: C_18  and  C_19
REMARK                            x       y       z     vdW  Elec       q    Type
REMARK                         _______ _______ _______ _____ _____    ______ ____
ROOT
ATOM      1  O   UNL     1      -2.193  11.438  17.329  0.00  0.00    +0.000 OA
ATOM      2  C   UNL     1      -2.991  11.642  18.242  0.00  0.00    +0.000 C 
ATOM      3  N   UNL     1      -2.615  12.071  19.476  0.00  0.00    +0.000 N 
ATOM      4  N   UNL     1      -4.304  11.333  18.064  0.00  0.00    +0.000 N 
ATOM      5  C   UNL     1      -5.296  11.529  18.977  0.00  0.00    +0.000 A 
ATOM      6  N   UNL     1      -5.271  12.281  20.050  0.00  0.00    +0.000 NA
ATOM      7  C   UNL     1      -6.506  12.213  20.684  0.00  0.00    +0.000 A 
ATOM      8  C   UNL     1      -7.385  11.300  20.126  0.00  0.00    +0.000 A 
ATOM      9  S   UNL     1      -6.729  10.666  18.671  0.00  0.00    +0.000 S 
ATOM     10  H   UNL     1      -3.348  12.412  20.094  0.00  0.00    +0.000 HD
ATOM     11  H   UNL     1      -4.527  10.842  17.212  0.00  0.00    +0.000 HD
ENDROOT
BRANCH   7  12
ATOM     12  C   UNL     1      -6.812  13.052  21.835  0.00  0.00    +0.000 A 
ATOM     13  C   UNL     1      -6.491  14.412  21.850  0.00  0.00    +0.000 A 
ATOM     14  C   UNL     1      -6.767  15.148  22.992  0.00  0.00    +0.000 A 
ATOM     15  N   UNL     1      -7.332  14.627  24.100  0.00  0.00    +0.000 NA
ATOM     16  C   UNL     1      -7.625  13.309  24.069  0.00  0.00    +0.000 A 
ATOM     17  C   UNL     1      -7.386  12.489  22.977  0.00  0.00    +0.000 A 
ENDBRANCH   7  12
BRANCH   3  18
ATOM     18  C   UNL     1      -1.238  12.287  19.836  0.00  0.00    +0.000 C 
BRANCH  18  19
ATOM     19  C   UNL     1      -0.765  11.249  20.829  0.00  0.00    +0.000 A 
ATOM     20  C   UNL     1      -1.224  11.369  22.156  0.00  0.00    +0.000 A 
ATOM     21  C   UNL     1      -0.862  10.443  23.127  0.00  0.00    +0.000 A 
ATOM     22  C   UNL     1      -0.025   9.383  22.792  0.00  0.00    +0.000 A 
ATOM     23  C   UNL     1       0.472   9.243  21.487  0.00  0.00    +0.000 A 
ATOM     24  C   UNL     1       1.315   8.165  21.175  0.00  0.00    +0.000 A 
ATOM     25  C   UNL     1       1.823   8.002  19.888  0.00  0.00    +0.000 A 
ATOM     26  C   UNL     1       1.502   8.921  18.899  0.00  0.00    +0.000 A 
ATOM     27  C   UNL     1       0.666  10.001  19.195  0.00  0.00    +0.000 A 
ATOM     28  C   UNL     1       0.118  10.186  20.485  0.00  0.00    +0.000 A 
ENDBRANCH  18  19
ENDBRANCH   3  18
TORSDOF 3
ENDMDL
MODEL 8
REMARK VINA RESULT:      -7.5      3.501      5.514
REMARK  Name = 
REMARK  3 active torsions:
REMARK  status: ('A' for Active; 'I' for Inactive)
REMARK    1  A    between atoms: N_3  and  C_4
REMARK    2  A    between atoms: C_4  and  C_5
REMARK    3  A    between atoms: C_18  and  C_19
REMARK                            x       y       z     vdW  Elec       q    Type
REMARK                         _______ _______ _______ _____ _____    ______ ____
ROOT
ATOM      1  O   UNL     1      -2.446  11.094  16.240  0.00  0.00    +0.000 OA
ATOM      2  C   UNL     1      -2.993  11.376  17.305  0.00  0.00    +0.000 C 
ATOM      3  N   UNL     1      -2.306  11.721  18.426  0.00  0.00    +0.000 N 
ATOM      4  N   UNL     1      -4.342  11.241  17.419  0.00  0.00    +0.000 N 
ATOM      5  C   UNL     1      -5.078  11.538  18.527  0.00  0.00    +0.000 A 
ATOM      6  N   UNL     1      -4.722  12.254  19.566  0.00  0.00    +0.000 NA
ATOM      7  C   UNL     1      -5.789  12.327  20.455  0.00  0.00    +0.000 A 
ATOM      8  C   UNL     1      -6.878  11.549  20.106  0.00  0.00    +0.000 A 
ATOM      9  S   UNL     1      -6.643  10.873  18.544  0.00  0.00    +0.000 S 
ATOM     10  H   UNL     1      -2.836  12.137  19.187  0.00  0.00    +0.000 HD
ATOM     11  H   UNL     1      -4.807  10.804  16.639  0.00  0.00    +0.000 HD
ENDROOT
BRANCH   7  12
ATOM     12  C   UNL     1      -5.726  13.169  21.642  0.00  0.00    +0.000 A 
ATOM     13  C   UNL     1      -6.713  14.119  21.914  0.00  0.00    +0.000 A 
ATOM     14  C   UNL     1      -6.574  14.922  23.036  0.00  0.00    +0.000 A 
ATOM     15  N   UNL     1      -5.534  14.841  23.890  0.00  0.00    +0.000 NA
ATOM     16  C   UNL     1      -4.585  13.923  23.604  0.00  0.00    +0.000 A 
ATOM     17  C   UNL     1      -4.633  13.078  22.507  0.00  0.00    +0.000 A 
ENDBRANCH   7  12
BRANCH   3  18
ATOM     18  C   UNL     1      -0.867  11.751  18.475  0.00  0.00    +0.000 C 
BRANCH  18  19
ATOM     19  C   UNL     1      -0.340  10.826  19.549  0.00  0.00    +0.000 A 
ATOM     20  C   UNL     1      -0.788  11.045  20.867  0.00  0.00    +0.000 A 
ATOM     21  C   UNL     1      -0.376  10.225  21.911  0.00  0.00    +0.000 A 
ATOM     22  C   UNL     1       0.501   9.175  21.659  0.00  0.00    +0.000 A 
ATOM     23  C   UNL     1       0.989   8.940  20.364  0.00  0.00    +0.000 A 
ATOM     24  C   UNL     1       1.873   7.874  20.136  0.00  0.00    +0.000 A 
ATOM     25  C   UNL     1       2.373   7.617  18.862  0.00  0.00    +0.000 A 
ATOM     26  C   UNL     1       2.003   8.431  17.800  0.00  0.00    +0.000 A 
ATOM     27  C   UNL     1       1.125   9.497  18.011  0.00  0.00    +0.000 A 
ATOM     28  C   UNL     1       0.584   9.774  19.288  0.00  0.00    +0.000 A 
ENDBRANCH  18  19
ENDBRANCH   3  18
TORSDOF 3
ENDMDL
MODEL 9
REMARK VINA RESULT:      -7.5      3.269      4.726
REMARK  Name = 
REMARK  3 active torsions:
REMARK  status: ('A' for Active; 'I' for Inactive)
REMARK    1  A    between atoms: N_3  and  C_4
REMARK    2  A    between atoms: C_4  and  C_5
REMARK    3  A    between atoms: C_18  and  C_19
REMARK                            x       y       z     vdW  Elec       q    Type
REMARK                         _______ _______ _______ _____ _____    ______ ____
ROOT
ATOM      1  O   UNL     1      -4.325  12.741  24.048  0.00  0.00    +0.000 OA
ATOM      2  C   UNL     1      -4.192  12.589  22.834  0.00  0.00    +0.000 C 
ATOM      3  N   UNL     1      -2.989  12.373  22.238  0.00  0.00    +0.000 N 
ATOM      4  N   UNL     1      -5.271  12.742  22.020  0.00  0.00    +0.000 N 
ATOM      5  C   UNL     1      -5.274  12.580  20.668  0.00  0.00    +0.000 A 
ATOM      6  N   UNL     1      -4.372  11.989  19.922  0.00  0.00    +0.000 NA
ATOM      7  C   UNL     1      -4.783  12.025  18.595  0.00  0.00    +0.000 A 
ATOM      8  C   UNL     1      -5.933  12.762  18.373  0.00  0.00    +0.000 A 
ATOM      9  S   UNL     1      -6.619  13.249  19.870  0.00  0.00    +0.000 S 
ATOM     10  H   UNL     1      -2.999  12.052  21.274  0.00  0.00    +0.000 HD
ATOM     11  H   UNL     1      -6.109  13.086  22.463  0.00  0.00    +0.000 HD
ENDROOT
BRANCH   7  12
ATOM     12  C   UNL     1      -4.039  11.328  17.554  0.00  0.00    +0.000 A 
ATOM     13  C   UNL     1      -4.444  11.369  16.218  0.00  0.00    +0.000 A 
ATOM     14  C   UNL     1      -3.721  10.648  15.280  0.00  0.00    +0.000 A 
ATOM     15  N   UNL     1      -2.638   9.902  15.582  0.00  0.00    +0.000 NA
ATOM     16  C   UNL     1      -2.269   9.868  16.881  0.00  0.00    +0.000 A 
ATOM     17  C   UNL     1      -2.928  10.551  17.891  0.00  0.00    +0.000 A 
ENDBRANCH   7  12
BRANCH   3  18
ATOM     18  C   UNL     1      -1.753  12.344  22.975  0.00  0.00    +0.000 C 
BRANCH  18  19
ATOM     19  C   UNL     1      -0.843  11.247  22.470  0.00  0.00    +0.000 A 
ATOM     20  C   UNL     1      -0.575  10.175  23.345  0.00  0.00    +0.000 A 
ATOM     21  C   UNL     1       0.228   9.111  22.952  0.00  0.00    +0.000 A 
ATOM     22  C   UNL     1       0.786   9.102  21.678  0.00  0.00    +0.000 A 
ATOM     23  C   UNL     1       0.562  10.162  20.786  0.00  0.00    +0.000 A 
ATOM     24  C   UNL     1       1.137  10.128  19.506  0.00  0.00    +0.000 A 
ATOM     25  C   UNL     1       0.932  11.166  18.600  0.00  0.00    +0.000 A 
ATOM     26  C   UNL     1       0.156  12.257  18.967  0.00  0.00    +0.000 A 
ATOM     27  C   UNL     1      -0.422  12.306  20.238  0.00  0.00    +0.000 A 
ATOM     28  C   UNL     1      -0.249  11.261  21.175  0.00  0.00    +0.000 A 
ENDBRANCH  18  19
ENDBRANCH   3  18
TORSDOF 3
ENDMDL
