MODEL 1
REMARK VINA RESULT:      -7.8      0.000      0.000
REMARK  Name = 
REMARK  6 active torsions:
REMARK  status: ('A' for Active; 'I' for Inactive)
REMARK    1  A    between atoms: N_4  and  C_5
REMARK    2  A    between atoms: C_5  and  C_6
REMARK    3  A    between atoms: C_6  and  C_7
REMARK    4  A    between atoms: C_7  and  N_8
REMARK    5  A    between atoms: C_9  and  C_11
REMARK    6  A    between atoms: C_19  and  O_20
REMARK                            x       y       z     vdW  Elec       q    Type
REMARK                         _______ _______ _______ _____ _____    ______ ____
ROOT
ATOM      1  N   UNL     1       5.858   4.584  16.968  0.00  0.00    +0.000 N 
ATOM      2  C   UNL     1       5.455   5.758  17.556  0.00  0.00    +0.000 C 
ATOM      3  O   UNL     1       6.068   6.812  17.409  0.00  0.00    +0.000 OA
ATOM      4  H   UNL     1       5.331   3.738  17.157  0.00  0.00    +0.000 HD
ENDROOT
BRANCH   2   5
ATOM      5  C   UNL     1       4.239   5.677  18.371  0.00  0.00    +0.000 A 
ATOM      6  C   UNL     1       3.289   6.692  18.419  0.00  0.00    +0.000 A 
ATOM      7  N   UNL     1       2.280   6.320  19.268  0.00  0.00    +0.000 N 
ATOM      8  C   UNL     1       2.558   5.089  19.789  0.00  0.00    +0.000 A 
ATOM      9  N   UNL     1       1.786   4.445  20.678  0.00  0.00    +0.000 NA
ATOM     10  C   UNL     1       2.306   3.273  21.064  0.00  0.00    +0.000 A 
ATOM     11  N   UNL     1       1.610   2.558  22.016  0.00  0.00    +0.000 N 
ATOM     12  N   UNL     1       3.433   2.711  20.607  0.00  0.00    +0.000 NA
ATOM     13  C   UNL     1       4.152   3.403  19.714  0.00  0.00    +0.000 A 
ATOM     14  C   UNL     1       3.756   4.651  19.253  0.00  0.00    +0.000 A 
ATOM     15  H   UNL     1       1.463   6.864  19.504  0.00  0.00    +0.000 HD
ATOM     16  H   UNL     1       0.635   2.820  22.022  0.00  0.00    +0.000 HD
ATOM     17  H   UNL     1       1.837   1.576  21.967  0.00  0.00    +0.000 HD
BRANCH  13  18
ATOM     18  O   UNL     1       5.304   2.786  19.319  0.00  0.00    +0.000 OA
ATOM     19  H   UNL     1       5.260   2.941  18.355  0.00  0.00    +0.000 HD
ENDBRANCH  13  18
ENDBRANCH   2   5
BRANCH   1  20
ATOM     20  C   UNL     1       7.029   4.466  16.129  0.00  0.00    +0.000 C 
BRANCH  20  21
ATOM     21  C   UNL     1       6.779   4.912  14.691  0.00  0.00    +0.000 C 
BRANCH  21  22
ATOM     22  C   UNL     1       5.675   4.104  14.008  0.00  0.00    +0.000 C 
BRANCH  22  26
ATOM     23  N   UNL     1       4.458   3.277  11.573  0.00  0.00    +0.000 NA
ATOM     24  C   UNL     1       5.539   2.735  11.994  0.00  0.00    +0.000 C 
ATOM     25  N   UNL     1       6.091   1.648  11.418  0.00  0.00    +0.000 N 
ATOM     26  N   UNL     1       6.261   3.167  13.056  0.00  0.00    +0.000 N 
ATOM     27  H   UNL     1       4.094   2.744  10.781  0.00  0.00    +0.000 HD
ATOM     28  H   UNL     1       5.773   1.458  10.476  0.00  0.00    +0.000 HD
ATOM     29  H   UNL     1       7.100   1.611  11.480  0.00  0.00    +0.000 HD
ATOM     30  H   UNL     1       6.815   2.443  13.493  0.00  0.00    +0.000 HD
ENDBRANCH  22  26
ENDBRANCH  21  22
ENDBRANCH  20  21
ENDBRANCH   1  20
TORSDOF 6
ENDMDL
MODEL 2
REMARK VINA RESULT:      -7.7      2.526      6.173
REMARK  Name = 
REMARK  6 active torsions:
REMARK  status: ('A' for Active; 'I' for Inactive)
REMARK    1  A    between atoms: N_4  and  C_5
REMARK    2  A    between atoms: C_5  and  C_6
REMARK    3  A    between atoms: C_6  and  C_7
REMARK    4  A    between atoms: C_7  and  N_8
REMARK    5  A    between atoms: C_9  and  C_11
REMARK    6  A    between atoms: C_19  and  O_20
REMARK                            x       y       z     vdW  Elec       q    Type
REMARK                         _______ _______ _______ _____ _____    ______ ____
ROOT
ATOM      1  N   UNL     1       1.826   4.640  19.517  0.00  0.00    +0.000 N 
ATOM      2  C   UNL     1       2.153   4.483  18.193  0.00  0.00    +0.000 C 
ATOM      3  O   UNL     1       1.612   3.645  17.477  0.00  0.00    +0.000 OA
ATOM      4  H   UNL     1       2.334   5.326  20.067  0.00  0.00    +0.000 HD
ENDROOT
BRANCH   2   5
ATOM      5  C   UNL     1       3.190   5.384  17.682  0.00  0.00    +0.000 A 
ATOM      6  C   UNL     1       3.160   6.762  17.874  0.00  0.00    +0.000 A 
ATOM      7  N   UNL     1       4.258   7.321  17.277  0.00  0.00    +0.000 N 
ATOM      8  C   UNL     1       5.000   6.339  16.684  0.00  0.00    +0.000 A 
ATOM      9  N   UNL     1       6.128   6.550  15.989  0.00  0.00    +0.000 NA
ATOM     10  C   UNL     1       6.637   5.424  15.472  0.00  0.00    +0.000 A 
ATOM     11  N   UNL     1       7.771   5.543  14.696  0.00  0.00    +0.000 N 
ATOM     12  N   UNL     1       6.164   4.182  15.645  0.00  0.00    +0.000 NA
ATOM     13  C   UNL     1       5.040   4.042  16.358  0.00  0.00    +0.000 A 
ATOM     14  C   UNL     1       4.379   5.125  16.920  0.00  0.00    +0.000 A 
ATOM     15  H   UNL     1       4.491   8.303  17.246  0.00  0.00    +0.000 HD
ATOM     16  H   UNL     1       8.274   6.389  14.922  0.00  0.00    +0.000 HD
ATOM     17  H   UNL     1       8.285   4.676  14.675  0.00  0.00    +0.000 HD
BRANCH  13  18
ATOM     18  O   UNL     1       4.598   2.754  16.464  0.00  0.00    +0.000 OA
ATOM     19  H   UNL     1       4.624   2.485  15.526  0.00  0.00    +0.000 HD
ENDBRANCH  13  18
ENDBRANCH   2   5
BRANCH   1  20
ATOM     20  C   UNL     1       0.827   3.848  20.198  0.00  0.00    +0.000 C 
BRANCH  20  21
ATOM     21  C   UNL     1       1.355   3.187  21.469  0.00  0.00    +0.000 C 
BRANCH  21  22
ATOM     22  C   UNL     1       2.836   2.820  21.370  0.00  0.00    +0.000 C 
BRANCH  22  26
ATOM     23  N   UNL     1       5.068   2.568  19.624  0.00  0.00    +0.000 NA
ATOM     24  C   UNL     1       4.050   1.798  19.518  0.00  0.00    +0.000 C 
ATOM     25  N   UNL     1       3.885   0.932  18.498  0.00  0.00    +0.000 N 
ATOM     26  N   UNL     1       3.019   1.751  20.395  0.00  0.00    +0.000 N 
ATOM     27  H   UNL     1       5.683   2.434  18.820  0.00  0.00    +0.000 HD
ATOM     28  H   UNL     1       4.729   0.716  17.983  0.00  0.00    +0.000 HD
ATOM     29  H   UNL     1       3.377   0.092  18.743  0.00  0.00    +0.000 HD
ATOM     30  H   UNL     1       2.152   1.425  19.987  0.00  0.00    +0.000 HD
ENDBRANCH  22  26
ENDBRANCH  21  22
ENDBRANCH  20  21
ENDBRANCH   1  20
TORSDOF 6
ENDMDL
MODEL 3
REMARK VINA RESULT:      -7.6      2.441      3.595
REMARK  Name = 
REMARK  6 active torsions:
REMARK  status: ('A' for Active; 'I' for Inactive)
REMARK    1  A    between atoms: N_4  and  C_5
REMARK    2  A    between atoms: C_5  and  C_6
REMARK    3  A    between atoms: C_6  and  C_7
REMARK    4  A    between atoms: C_7  and  N_8
REMARK    5  A    between atoms: C_9  and  C_11
REMARK    6  A    between atoms: C_19  and  O_20
REMARK                            x       y       z     vdW  Elec       q    Type
REMARK                         _______ _______ _______ _____ _____    ______ ____
ROOT
ATOM      1  N   UNL     1       4.462   5.062  16.655  0.00  0.00    +0.000 N 
ATOM      2  C   UNL     1       4.212   6.173  17.423  0.00  0.00    +0.000 C 
ATOM      3  O   UNL     1       4.658   7.282  17.139  0.00  0.00    +0.000 OA
ATOM      4  H   UNL     1       4.096   4.166  16.962  0.00  0.00    +0.000 HD
ENDROOT
BRANCH   2   5
ATOM      5  C   UNL     1       3.374   5.955  18.606  0.00  0.00    +0.000 A 
ATOM      6  C   UNL     1       2.645   6.971  19.217  0.00  0.00    +0.000 A 
ATOM      7  N   UNL     1       1.973   6.454  20.292  0.00  0.00    +0.000 N 
ATOM      8  C   UNL     1       2.258   5.123  20.407  0.00  0.00    +0.000 A 
ATOM      9  N   UNL     1       1.783   4.322  21.374  0.00  0.00    +0.000 NA
ATOM     10  C   UNL     1       2.252   3.071  21.287  0.00  0.00    +0.000 A 
ATOM     11  N   UNL     1       1.861   2.182  22.266  0.00  0.00    +0.000 N 
ATOM     12  N   UNL     1       3.054   2.584  20.330  0.00  0.00    +0.000 NA
ATOM     13  C   UNL     1       3.484   3.435  19.391  0.00  0.00    +0.000 A 
ATOM     14  C   UNL     1       3.114   4.772  19.378  0.00  0.00    +0.000 A 
ATOM     15  H   UNL     1       1.374   6.962  20.927  0.00  0.00    +0.000 HD
ATOM     16  H   UNL     1       0.996   2.478  22.697  0.00  0.00    +0.000 HD
ATOM     17  H   UNL     1       1.925   1.231  21.937  0.00  0.00    +0.000 HD
BRANCH  13  18
ATOM     18  O   UNL     1       4.325   2.879  18.470  0.00  0.00    +0.000 OA
ATOM     19  H   UNL     1       5.182   3.221  18.789  0.00  0.00    +0.000 HD
ENDBRANCH  13  18
ENDBRANCH   2   5
BRANCH   1  20
ATOM     20  C   UNL     1       5.263   5.079  15.453  0.00  0.00    +0.000 C 
BRANCH  20  21
ATOM     21  C   UNL     1       6.566   4.297  15.593  0.00  0.00    +0.000 C 
BRANCH  21  22
ATOM     22  C   UNL     1       7.433   4.802  16.747  0.00  0.00    +0.000 C 
BRANCH  22  26
ATOM     23  N   UNL     1       8.053   6.543  18.910  0.00  0.00    +0.000 NA
ATOM     24  C   UNL     1       7.783   6.999  17.744  0.00  0.00    +0.000 C 
ATOM     25  N   UNL     1       7.616   8.313  17.488  0.00  0.00    +0.000 N 
ATOM     26  N   UNL     1       7.626   6.243  16.632  0.00  0.00    +0.000 N 
ATOM     27  H   UNL     1       8.088   7.314  19.579  0.00  0.00    +0.000 HD
ATOM     28  H   UNL     1       7.997   8.934  18.190  0.00  0.00    +0.000 HD
ATOM     29  H   UNL     1       7.896   8.594  16.557  0.00  0.00    +0.000 HD
ATOM     30  H   UNL     1       7.041   6.672  15.927  0.00  0.00    +0.000 HD
ENDBRANCH  22  26
ENDBRANCH  21  22
ENDBRANCH  20  21
ENDBRANCH   1  20
TORSDOF 6
ENDMDL
MODEL 4
REMARK VINA RESULT:      -7.5      3.215      4.388
REMARK  Name = 
REMARK  6 active torsions:
REMARK  status: ('A' for Active; 'I' for Inactive)
REMARK    1  A    between atoms: N_4  and  C_5
REMARK    2  A    between atoms: C_5  and  C_6
REMARK    3  A    between atoms: C_6  and  C_7
REMARK    4  A    between atoms: C_7  and  N_8
REMARK    5  A    between atoms: C_9  and  C_11
REMARK    6  A    between atoms: C_19  and  O_20
REMARK                            x       y       z     vdW  Elec       q    Type
REMARK                         _______ _______ _______ _____ _____    ______ ____
ROOT
ATOM      1  N   UNL     1       4.262   5.601  16.974  0.00  0.00    +0.000 N 
ATOM      2  C   UNL     1       4.572   4.267  16.872  0.00  0.00    +0.000 C 
ATOM      3  O   UNL     1       5.514   3.861  16.197  0.00  0.00    +0.000 OA
ATOM      4  H   UNL     1       3.449   5.872  17.518  0.00  0.00    +0.000 HD
ENDROOT
BRANCH   2   5
ATOM      5  C   UNL     1       3.708   3.353  17.624  0.00  0.00    +0.000 A 
ATOM      6  C   UNL     1       3.238   2.151  17.102  0.00  0.00    +0.000 A 
ATOM      7  N   UNL     1       2.458   1.531  18.041  0.00  0.00    +0.000 N 
ATOM      8  C   UNL     1       2.394   2.308  19.161  0.00  0.00    +0.000 A 
ATOM      9  N   UNL     1       1.687   2.005  20.262  0.00  0.00    +0.000 NA
ATOM     10  C   UNL     1       1.756   2.956  21.201  0.00  0.00    +0.000 A 
ATOM     11  N   UNL     1       1.021   2.760  22.352  0.00  0.00    +0.000 N 
ATOM     12  N   UNL     1       2.482   4.081  21.146  0.00  0.00    +0.000 NA
ATOM     13  C   UNL     1       3.171   4.318  20.023  0.00  0.00    +0.000 A 
ATOM     14  C   UNL     1       3.162   3.440  18.949  0.00  0.00    +0.000 A 
ATOM     15  H   UNL     1       1.976   0.649  17.935  0.00  0.00    +0.000 HD
ATOM     16  H   UNL     1       0.832   1.778  22.494  0.00  0.00    +0.000 HD
ATOM     17  H   UNL     1       1.408   3.285  23.120  0.00  0.00    +0.000 HD
BRANCH  13  18
ATOM     18  O   UNL     1       3.860   5.498  20.024  0.00  0.00    +0.000 OA
ATOM     19  H   UNL     1       4.593   5.269  19.422  0.00  0.00    +0.000 HD
ENDBRANCH  13  18
ENDBRANCH   2   5
BRANCH   1  20
ATOM     20  C   UNL     1       4.999   6.651  16.309  0.00  0.00    +0.000 C 
BRANCH  20  21
ATOM     21  C   UNL     1       5.904   7.437  17.254  0.00  0.00    +0.000 C 
BRANCH  21  22
ATOM     22  C   UNL     1       7.372   7.024  17.142  0.00  0.00    +0.000 C 
BRANCH  22  26
ATOM     23  N   UNL     1       7.747   4.409  18.198  0.00  0.00    +0.000 NA
ATOM     24  C   UNL     1       7.918   5.451  18.923  0.00  0.00    +0.000 C 
ATOM     25  N   UNL     1       8.128   5.395  20.254  0.00  0.00    +0.000 N 
ATOM     26  N   UNL     1       7.907   6.725  18.465  0.00  0.00    +0.000 N 
ATOM     27  H   UNL     1       7.768   3.575  18.787  0.00  0.00    +0.000 HD
ATOM     28  H   UNL     1       8.430   4.492  20.599  0.00  0.00    +0.000 HD
ATOM     29  H   UNL     1       8.710   6.140  20.615  0.00  0.00    +0.000 HD
ATOM     30  H   UNL     1       7.652   7.408  19.166  0.00  0.00    +0.000 HD
ENDBRANCH  22  26
ENDBRANCH  21  22
ENDBRANCH  20  21
ENDBRANCH   1  20
TORSDOF 6
ENDMDL
MODEL 5
REMARK VINA RESULT:      -7.5      2.331      3.527
REMARK  Name = 
REMARK  6 active torsions:
REMARK  status: ('A' for Active; 'I' for Inactive)
REMARK    1  A    between atoms: N_4  and  C_5
REMARK    2  A    between atoms: C_5  and  C_6
REMARK    3  A    between atoms: C_6  and  C_7
REMARK    4  A    between atoms: C_7  and  N_8
REMARK    5  A    between atoms: C_9  and  C_11
REMARK    6  A    between atoms: C_19  and  O_20
REMARK                            x       y       z     vdW  Elec       q    Type
REMARK                         _______ _______ _______ _____ _____    ______ ____
ROOT
ATOM      1  N   UNL     1       4.510   4.942  16.495  0.00  0.00    +0.000 N 
ATOM      2  C   UNL     1       4.366   6.052  17.291  0.00  0.00    +0.000 C 
ATOM      3  O   UNL     1       4.951   7.108  17.060  0.00  0.00    +0.000 OA
ATOM      4  H   UNL     1       4.029   4.088  16.758  0.00  0.00    +0.000 HD
ENDROOT
BRANCH   2   5
ATOM      5  C   UNL     1       3.463   5.902  18.436  0.00  0.00    +0.000 A 
ATOM      6  C   UNL     1       2.682   6.943  18.928  0.00  0.00    +0.000 A 
ATOM      7  N   UNL     1       1.956   6.491  19.997  0.00  0.00    +0.000 N 
ATOM      8  C   UNL     1       2.257   5.178  20.226  0.00  0.00    +0.000 A 
ATOM      9  N   UNL     1       1.739   4.438  21.219  0.00  0.00    +0.000 NA
ATOM     10  C   UNL     1       2.233   3.194  21.250  0.00  0.00    +0.000 A 
ATOM     11  N   UNL     1       1.800   2.370  22.268  0.00  0.00    +0.000 N 
ATOM     12  N   UNL     1       3.099   2.657  20.380  0.00  0.00    +0.000 NA
ATOM     13  C   UNL     1       3.570   3.448  19.408  0.00  0.00    +0.000 A 
ATOM     14  C   UNL     1       3.178   4.772  19.276  0.00  0.00    +0.000 A 
ATOM     15  H   UNL     1       1.312   7.030  20.558  0.00  0.00    +0.000 HD
ATOM     16  H   UNL     1       0.907   2.678  22.625  0.00  0.00    +0.000 HD
ATOM     17  H   UNL     1       1.901   1.399  22.013  0.00  0.00    +0.000 HD
BRANCH  13  18
ATOM     18  O   UNL     1       4.473   2.845  18.580  0.00  0.00    +0.000 OA
ATOM     19  H   UNL     1       5.303   3.229  18.922  0.00  0.00    +0.000 HD
ENDBRANCH  13  18
ENDBRANCH   2   5
BRANCH   1  20
ATOM     20  C   UNL     1       5.353   4.898  15.322  0.00  0.00    +0.000 C 
BRANCH  20  21
ATOM     21  C   UNL     1       6.625   4.080  15.531  0.00  0.00    +0.000 C 
BRANCH  21  22
ATOM     22  C   UNL     1       7.738   4.884  16.204  0.00  0.00    +0.000 C 
BRANCH  22  26
ATOM     23  N   UNL     1       7.735   6.954  18.156  0.00  0.00    +0.000 NA
ATOM     24  C   UNL     1       7.843   5.722  18.491  0.00  0.00    +0.000 C 
ATOM     25  N   UNL     1       8.117   5.323  19.750  0.00  0.00    +0.000 N 
ATOM     26  N   UNL     1       7.703   4.673  17.646  0.00  0.00    +0.000 N 
ATOM     27  H   UNL     1       7.915   7.546  18.968  0.00  0.00    +0.000 HD
ATOM     28  H   UNL     1       7.948   6.021  20.463  0.00  0.00    +0.000 HD
ATOM     29  H   UNL     1       7.709   4.433  20.002  0.00  0.00    +0.000 HD
ATOM     30  H   UNL     1       8.198   3.842  17.943  0.00  0.00    +0.000 HD
ENDBRANCH  22  26
ENDBRANCH  21  22
ENDBRANCH  20  21
ENDBRANCH   1  20
TORSDOF 6
ENDMDL
MODEL 6
REMARK VINA RESULT:      -7.4      2.000      6.197
REMARK  Name = 
REMARK  6 active torsions:
REMARK  status: ('A' for Active; 'I' for Inactive)
REMARK    1  A    between atoms: N_4  and  C_5
REMARK    2  A    between atoms: C_5  and  C_6
REMARK    3  A    between atoms: C_6  and  C_7
REMARK    4  A    between atoms: C_7  and  N_8
REMARK    5  A    between atoms: C_9  and  C_11
REMARK    6  A    between atoms: C_19  and  O_20
REMARK                            x       y       z     vdW  Elec       q    Type
REMARK                         _______ _______ _______ _____ _____    ______ ____
ROOT
ATOM      1  N   UNL     1       4.012   5.778  18.933  0.00  0.00    +0.000 N 
ATOM      2  C   UNL     1       5.300   5.306  18.979  0.00  0.00    +0.000 C 
ATOM      3  O   UNL     1       5.736   4.675  19.939  0.00  0.00    +0.000 OA
ATOM      4  H   UNL     1       3.721   6.324  18.129  0.00  0.00    +0.000 HD
ENDROOT
BRANCH   2   5
ATOM      5  C   UNL     1       6.128   5.598  17.805  0.00  0.00    +0.000 A 
ATOM      6  C   UNL     1       7.074   6.618  17.778  0.00  0.00    +0.000 A 
ATOM      7  N   UNL     1       7.674   6.639  16.548  0.00  0.00    +0.000 N 
ATOM      8  C   UNL     1       7.131   5.663  15.763  0.00  0.00    +0.000 A 
ATOM      9  N   UNL     1       7.475   5.430  14.487  0.00  0.00    +0.000 NA
ATOM     10  C   UNL     1       6.760   4.446  13.927  0.00  0.00    +0.000 A 
ATOM     11  N   UNL     1       7.006   4.165  12.599  0.00  0.00    +0.000 N 
ATOM     12  N   UNL     1       5.834   3.690  14.532  0.00  0.00    +0.000 NA
ATOM     13  C   UNL     1       5.544   3.970  15.809  0.00  0.00    +0.000 A 
ATOM     14  C   UNL     1       6.177   4.989  16.506  0.00  0.00    +0.000 A 
ATOM     15  H   UNL     1       8.391   7.280  16.240  0.00  0.00    +0.000 HD
ATOM     16  H   UNL     1       7.930   4.471  12.332  0.00  0.00    +0.000 HD
ATOM     17  H   UNL     1       6.735   3.219  12.375  0.00  0.00    +0.000 HD
BRANCH  13  18
ATOM     18  O   UNL     1       4.569   3.182  16.350  0.00  0.00    +0.000 OA
ATOM     19  H   UNL     1       4.786   2.327  15.932  0.00  0.00    +0.000 HD
ENDBRANCH  13  18
ENDBRANCH   2   5
BRANCH   1  20
ATOM     20  C   UNL     1       3.047   5.588  19.992  0.00  0.00    +0.000 C 
BRANCH  20  21
ATOM     21  C   UNL     1       2.014   4.510  19.673  0.00  0.00    +0.000 C 
BRANCH  21  22
ATOM     22  C   UNL     1       2.270   3.207  20.431  0.00  0.00    +0.000 C 
BRANCH  22  26
ATOM     23  N   UNL     1       2.170   1.741  17.996  0.00  0.00    +0.000 NA
ATOM     24  C   UNL     1       3.209   1.717  18.745  0.00  0.00    +0.000 C 
ATOM     25  N   UNL     1       4.253   0.892  18.529  0.00  0.00    +0.000 N 
ATOM     26  N   UNL     1       3.396   2.498  19.836  0.00  0.00    +0.000 N 
ATOM     27  H   UNL     1       2.261   1.036  17.262  0.00  0.00    +0.000 HD
ATOM     28  H   UNL     1       4.303   0.505  17.595  0.00  0.00    +0.000 HD
ATOM     29  H   UNL     1       5.146   1.266  18.821  0.00  0.00    +0.000 HD
ATOM     30  H   UNL     1       4.027   2.098  20.518  0.00  0.00    +0.000 HD
ENDBRANCH  22  26
ENDBRANCH  21  22
ENDBRANCH  20  21
ENDBRANCH   1  20
TORSDOF 6
ENDMDL
MODEL 7
REMARK VINA RESULT:      -7.4      0.765      1.032
REMARK  Name = 
REMARK  6 active torsions:
REMARK  status: ('A' for Active; 'I' for Inactive)
REMARK    1  A    between atoms: N_4  and  C_5
REMARK    2  A    between atoms: C_5  and  C_6
REMARK    3  A    between atoms: C_6  and  C_7
REMARK    4  A    between atoms: C_7  and  N_8
REMARK    5  A    between atoms: C_9  and  C_11
REMARK    6  A    between atoms: C_19  and  O_20
REMARK                            x       y       z     vdW  Elec       q    Type
REMARK                         _______ _______ _______ _____ _____    ______ ____
ROOT
ATOM      1  N   UNL     1       5.924   4.936  17.519  0.00  0.00    +0.000 N 
ATOM      2  C   UNL     1       4.840   5.768  17.384  0.00  0.00    +0.000 C 
ATOM      3  O   UNL     1       4.685   6.494  16.405  0.00  0.00    +0.000 OA
ATOM      4  H   UNL     1       6.015   4.388  18.368  0.00  0.00    +0.000 HD
ENDROOT
BRANCH   2   5
ATOM      5  C   UNL     1       3.871   5.735  18.484  0.00  0.00    +0.000 A 
ATOM      6  C   UNL     1       3.187   6.864  18.927  0.00  0.00    +0.000 A 
ATOM      7  N   UNL     1       2.364   6.510  19.962  0.00  0.00    +0.000 N 
ATOM      8  C   UNL     1       2.506   5.176  20.217  0.00  0.00    +0.000 A 
ATOM      9  N   UNL     1       1.861   4.512  21.189  0.00  0.00    +0.000 NA
ATOM     10  C   UNL     1       2.212   3.221  21.257  0.00  0.00    +0.000 A 
ATOM     11  N   UNL     1       1.640   2.465  22.259  0.00  0.00    +0.000 N 
ATOM     12  N   UNL     1       3.054   2.579  20.436  0.00  0.00    +0.000 NA
ATOM     13  C   UNL     1       3.656   3.299  19.482  0.00  0.00    +0.000 A 
ATOM     14  C   UNL     1       3.421   4.657  19.318  0.00  0.00    +0.000 A 
ATOM     15  H   UNL     1       1.757   7.125  20.485  0.00  0.00    +0.000 HD
ATOM     16  H   UNL     1       0.770   2.874  22.567  0.00  0.00    +0.000 HD
ATOM     17  H   UNL     1       1.645   1.485  22.018  0.00  0.00    +0.000 HD
BRANCH  13  18
ATOM     18  O   UNL     1       4.527   2.588  18.706  0.00  0.00    +0.000 OA
ATOM     19  H   UNL     1       5.002   2.087  19.395  0.00  0.00    +0.000 HD
ENDBRANCH  13  18
ENDBRANCH   2   5
BRANCH   1  20
ATOM     20  C   UNL     1       6.981   4.829  16.540  0.00  0.00    +0.000 C 
BRANCH  20  21
ATOM     21  C   UNL     1       6.662   3.837  15.423  0.00  0.00    +0.000 C 
BRANCH  21  22
ATOM     22  C   UNL     1       6.610   4.500  14.046  0.00  0.00    +0.000 C 
BRANCH  22  26
ATOM     23  N   UNL     1       6.612   2.569  11.957  0.00  0.00    +0.000 NA
ATOM     24  C   UNL     1       5.554   3.228  12.253  0.00  0.00    +0.000 C 
ATOM     25  N   UNL     1       4.426   3.181  11.516  0.00  0.00    +0.000 N 
ATOM     26  N   UNL     1       5.427   4.050  13.322  0.00  0.00    +0.000 N 
ATOM     27  H   UNL     1       6.460   2.051  11.089  0.00  0.00    +0.000 HD
ATOM     28  H   UNL     1       4.359   2.387  10.892  0.00  0.00    +0.000 HD
ATOM     29  H   UNL     1       3.575   3.302  12.050  0.00  0.00    +0.000 HD
ATOM     30  H   UNL     1       4.732   4.774  13.198  0.00  0.00    +0.000 HD
ENDBRANCH  22  26
ENDBRANCH  21  22
ENDBRANCH  20  21
ENDBRANCH   1  20
TORSDOF 6
ENDMDL
MODEL 8
REMARK VINA RESULT:      -7.3      1.726      6.236
REMARK  Name = 
REMARK  6 active torsions:
REMARK  status: ('A' for Active; 'I' for Inactive)
REMARK    1  A    between atoms: N_4  and  C_5
REMARK    2  A    between atoms: C_5  and  C_6
REMARK    3  A    between atoms: C_6  and  C_7
REMARK    4  A    between atoms: C_7  and  N_8
REMARK    5  A    between atoms: C_9  and  C_11
REMARK    6  A    between atoms: C_19  and  O_20
REMARK                            x       y       z     vdW  Elec       q    Type
REMARK                         _______ _______ _______ _____ _____    ______ ____
ROOT
ATOM      1  N   UNL     1       2.595   5.676  19.109  0.00  0.00    +0.000 N 
ATOM      2  C   UNL     1       3.959   5.586  18.978  0.00  0.00    +0.000 C 
ATOM      3  O   UNL     1       4.689   5.247  19.906  0.00  0.00    +0.000 OA
ATOM      4  H   UNL     1       2.049   5.997  18.316  0.00  0.00    +0.000 HD
ENDROOT
BRANCH   2   5
ATOM      5  C   UNL     1       4.495   5.917  17.654  0.00  0.00    +0.000 A 
ATOM      6  C   UNL     1       4.557   7.218  17.164  0.00  0.00    +0.000 A 
ATOM      7  N   UNL     1       5.100   7.197  15.907  0.00  0.00    +0.000 N 
ATOM      8  C   UNL     1       5.380   5.908  15.557  0.00  0.00    +0.000 A 
ATOM      9  N   UNL     1       5.896   5.532  14.376  0.00  0.00    +0.000 NA
ATOM     10  C   UNL     1       6.032   4.205  14.267  0.00  0.00    +0.000 A 
ATOM     11  N   UNL     1       6.508   3.716  13.068  0.00  0.00    +0.000 N 
ATOM     12  N   UNL     1       5.768   3.296  15.216  0.00  0.00    +0.000 NA
ATOM     13  C   UNL     1       5.264   3.738  16.374  0.00  0.00    +0.000 A 
ATOM     14  C   UNL     1       5.030   5.085  16.614  0.00  0.00    +0.000 A 
ATOM     15  H   UNL     1       5.255   7.994  15.306  0.00  0.00    +0.000 HD
ATOM     16  H   UNL     1       7.035   4.423  12.575  0.00  0.00    +0.000 HD
ATOM     17  H   UNL     1       6.931   2.809  13.192  0.00  0.00    +0.000 HD
BRANCH  13  18
ATOM     18  O   UNL     1       4.987   2.754  17.280  0.00  0.00    +0.000 OA
ATOM     19  H   UNL     1       5.819   2.245  17.240  0.00  0.00    +0.000 HD
ENDBRANCH  13  18
ENDBRANCH   2   5
BRANCH   1  20
ATOM     20  C   UNL     1       1.885   5.387  20.334  0.00  0.00    +0.000 C 
BRANCH  20  21
ATOM     21  C   UNL     1       0.958   4.179  20.216  0.00  0.00    +0.000 C 
BRANCH  21  22
ATOM     22  C   UNL     1       1.497   2.951  20.951  0.00  0.00    +0.000 C 
BRANCH  22  26
ATOM     23  N   UNL     1       2.885   1.597  18.869  0.00  0.00    +0.000 NA
ATOM     24  C   UNL     1       3.510   2.103  19.867  0.00  0.00    +0.000 C 
ATOM     25  N   UNL     1       4.824   1.903  20.090  0.00  0.00    +0.000 N 
ATOM     26  N   UNL     1       2.948   2.887  20.817  0.00  0.00    +0.000 N 
ATOM     27  H   UNL     1       3.526   1.022  18.321  0.00  0.00    +0.000 HD
ATOM     28  H   UNL     1       5.348   1.580  19.286  0.00  0.00    +0.000 HD
ATOM     29  H   UNL     1       5.291   2.676  20.547  0.00  0.00    +0.000 HD
ATOM     30  H   UNL     1       3.433   2.864  21.704  0.00  0.00    +0.000 HD
ENDBRANCH  22  26
ENDBRANCH  21  22
ENDBRANCH  20  21
ENDBRANCH   1  20
TORSDOF 6
ENDMDL
MODEL 9
REMARK VINA RESULT:      -7.3      0.910      1.148
REMARK  Name = 
REMARK  6 active torsions:
REMARK  status: ('A' for Active; 'I' for Inactive)
REMARK    1  A    between atoms: N_4  and  C_5
REMARK    2  A    between atoms: C_5  and  C_6
REMARK    3  A    between atoms: C_6  and  C_7
REMARK    4  A    between atoms: C_7  and  N_8
REMARK    5  A    between atoms: C_9  and  C_11
REMARK    6  A    between atoms: C_19  and  O_20
REMARK                            x       y       z     vdW  Elec       q    Type
REMARK                         _______ _______ _______ _____ _____    ______ ____
ROOT
ATOM      1  N   UNL     1       5.894   5.303  16.650  0.00  0.00    +0.000 N 
ATOM      2  C   UNL     1       5.872   4.848  17.946  0.00  0.00    +0.000 C 
ATOM      3  O   UNL     1       6.856   4.349  18.485  0.00  0.00    +0.000 OA
ATOM      4  H   UNL     1       5.038   5.672  16.249  0.00  0.00    +0.000 HD
ENDROOT
BRANCH   2   5
ATOM      5  C   UNL     1       4.597   4.999  18.653  0.00  0.00    +0.000 A 
ATOM      6  C   UNL     1       3.799   6.135  18.544  0.00  0.00    +0.000 A 
ATOM      7  N   UNL     1       2.684   5.973  19.322  0.00  0.00    +0.000 N 
ATOM      8  C   UNL     1       2.742   4.763  19.951  0.00  0.00    +0.000 A 
ATOM      9  N   UNL     1       1.818   4.304  20.810  0.00  0.00    +0.000 NA
ATOM     10  C   UNL     1       2.135   3.108  21.323  0.00  0.00    +0.000 A 
ATOM     11  N   UNL     1       1.272   2.573  22.256  0.00  0.00    +0.000 N 
ATOM     12  N   UNL     1       3.204   2.363  21.008  0.00  0.00    +0.000 NA
ATOM     13  C   UNL     1       4.081   2.876  20.138  0.00  0.00    +0.000 A 
ATOM     14  C   UNL     1       3.905   4.124  19.556  0.00  0.00    +0.000 A 
ATOM     15  H   UNL     1       1.936   6.640  19.446  0.00  0.00    +0.000 HD
ATOM     16  H   UNL     1       0.346   2.965  22.156  0.00  0.00    +0.000 HD
ATOM     17  H   UNL     1       1.361   1.570  22.296  0.00  0.00    +0.000 HD
BRANCH  13  18
ATOM     18  O   UNL     1       5.162   2.078  19.891  0.00  0.00    +0.000 OA
ATOM     19  H   UNL     1       5.878   2.650  20.228  0.00  0.00    +0.000 HD
ENDBRANCH  13  18
ENDBRANCH   2   5
BRANCH   1  20
ATOM     20  C   UNL     1       7.058   5.242  15.797  0.00  0.00    +0.000 C 
BRANCH  20  21
ATOM     21  C   UNL     1       6.708   5.089  14.319  0.00  0.00    +0.000 C 
BRANCH  21  22
ATOM     22  C   UNL     1       6.258   3.671  13.965  0.00  0.00    +0.000 C 
BRANCH  22  26
ATOM     23  N   UNL     1       5.883   2.008  11.687  0.00  0.00    +0.000 NA
ATOM     24  C   UNL     1       5.089   2.982  11.939  0.00  0.00    +0.000 C 
ATOM     25  N   UNL     1       4.129   3.389  11.084  0.00  0.00    +0.000 N 
ATOM     26  N   UNL     1       5.106   3.723  13.072  0.00  0.00    +0.000 N 
ATOM     27  H   UNL     1       5.685   1.637  10.756  0.00  0.00    +0.000 HD
ATOM     28  H   UNL     1       3.880   2.714  10.372  0.00  0.00    +0.000 HD
ATOM     29  H   UNL     1       3.307   3.770  11.533  0.00  0.00    +0.000 HD
ATOM     30  H   UNL     1       4.729   4.654  12.955  0.00  0.00    +0.000 HD
ENDBRANCH  22  26
ENDBRANCH  21  22
ENDBRANCH  20  21
ENDBRANCH   1  20
TORSDOF 6
ENDMDL
