MODEL 1
REMARK VINA RESULT:      -9.3      0.000      0.000
REMARK  Name = 
REMARK  9 active torsions:
REMARK  status: ('A' for Active; 'I' for Inactive)
REMARK    1  A    between atoms: C_1  and  O_2
REMARK    2  A    between atoms: O_2  and  C_3
REMARK    3  A    between atoms: C_6  and  N_7
REMARK    4  A    between atoms: C_8  and  C_10
REMARK    5  A    between atoms: C_18  and  N_19
REMARK    6  A    between atoms: C_20  and  C_22
REMARK    7  A    between atoms: C_22  and  C_23
REMARK    8  A    between atoms: C_27  and  C_28
REMARK    9  A    between atoms: C_29  and  C_30
REMARK                            x       y       z     vdW  Elec       q    Type
REMARK                         _______ _______ _______ _____ _____    ______ ____
ROOT
ATOM      1  C   UNL     1       3.995   5.330  18.146  0.00  0.00    +0.000 A 
ATOM      2  O   UNL     1       4.376   4.248  18.872  0.00  0.00    +0.000 OA
ATOM      3  C   UNL     1       3.407   3.995  19.772  0.00  0.00    +0.000 A 
ATOM      4  C   UNL     1       3.439   2.845  20.571  0.00  0.00    +0.000 A 
ATOM      5  C   UNL     1       2.321   2.610  21.347  0.00  0.00    +0.000 A 
ATOM      6  C   UNL     1       1.267   3.523  21.322  0.00  0.00    +0.000 A 
ATOM      7  C   UNL     1       1.306   4.721  20.549  0.00  0.00    +0.000 A 
ATOM      8  C   UNL     1       2.416   4.977  19.711  0.00  0.00    +0.000 A 
ATOM      9  C   UNL     1       2.887   5.973  18.718  0.00  0.00    +0.000 A 
ENDROOT
BRANCH   1  11
ATOM     10  N   UNL     1       4.973   4.393  16.216  0.00  0.00    +0.000 N 
ATOM     11  C   UNL     1       4.834   5.550  16.989  0.00  0.00    +0.000 C 
ATOM     12  O   UNL     1       5.273   6.672  16.752  0.00  0.00    +0.000 OA
ATOM     13  H   UNL     1       4.503   3.573  16.567  0.00  0.00    +0.000 HD
BRANCH  10  17
ATOM     14  C   UNL     1       6.936   4.012  12.493  0.00  0.00    +0.000 A 
ATOM     15  C   UNL     1       5.693   3.419  12.699  0.00  0.00    +0.000 A 
ATOM     16  C   UNL     1       5.026   3.549  13.915  0.00  0.00    +0.000 A 
ATOM     17  C   UNL     1       5.605   4.257  14.962  0.00  0.00    +0.000 A 
ATOM     18  C   UNL     1       6.854   4.862  14.759  0.00  0.00    +0.000 A 
ATOM     19  C   UNL     1       7.523   4.737  13.528  0.00  0.00    +0.000 A 
BRANCH  14  21
ATOM     20  C   UNL     1       7.515   2.398  10.857  0.00  0.00    +0.000 C 
ATOM     21  O   UNL     1       7.487   3.757  11.268  0.00  0.00    +0.000 OA
ENDBRANCH  14  21
ENDBRANCH  10  17
ENDBRANCH   1  11
BRANCH   9  22
ATOM     22  N   UNL     1       2.430   7.263  18.246  0.00  0.00    +0.000 N 
ATOM     23  C   UNL     1       1.865   8.365  18.931  0.00  0.00    +0.000 C 
ATOM     24  O   UNL     1       1.591   8.339  20.130  0.00  0.00    +0.000 OA
ATOM     25  H   UNL     1       2.588   7.379  17.246  0.00  0.00    +0.000 HD
BRANCH  23  26
ATOM     26  C   UNL     1       1.664   9.723  18.095  0.00  0.00    +0.000 C 
BRANCH  26  27
ATOM     27  C   UNL     1       0.399  10.580  18.336  0.00  0.00    +0.000 A 
ATOM     28  C   UNL     1       0.481  11.673  19.175  0.00  0.00    +0.000 A 
ATOM     29  O   UNL     1      -0.722  12.107  19.582  0.00  0.00    +0.000 OA
ATOM     30  C   UNL     1      -1.668  11.441  18.876  0.00  0.00    +0.000 A 
ATOM     31  C   UNL     1      -3.046  11.729  19.019  0.00  0.00    +0.000 A 
ATOM     32  C   UNL     1      -3.542  12.630  20.116  0.00  0.00    +0.000 C 
ATOM     33  C   UNL     1      -3.898  11.215  18.029  0.00  0.00    +0.000 A 
ATOM     34  C   UNL     1      -5.322  11.724  17.891  0.00  0.00    +0.000 C 
ATOM     35  C   UNL     1      -3.355  10.320  17.085  0.00  0.00    +0.000 A 
ATOM     36  C   UNL     1      -1.973   9.913  17.099  0.00  0.00    +0.000 A 
ATOM     37  C   UNL     1      -1.057  10.540  17.994  0.00  0.00    +0.000 A 
ENDBRANCH  26  27
ENDBRANCH  23  26
ENDBRANCH   9  22
TORSDOF 6
ENDMDL
MODEL 2
REMARK VINA RESULT:      -9.1      3.605      6.962
REMARK  Name = 
REMARK  9 active torsions:
REMARK  status: ('A' for Active; 'I' for Inactive)
REMARK    1  A    between atoms: C_1  and  O_2
REMARK    2  A    between atoms: O_2  and  C_3
REMARK    3  A    between atoms: C_6  and  N_7
REMARK    4  A    between atoms: C_8  and  C_10
REMARK    5  A    between atoms: C_18  and  N_19
REMARK    6  A    between atoms: C_20  and  C_22
REMARK    7  A    between atoms: C_22  and  C_23
REMARK    8  A    between atoms: C_27  and  C_28
REMARK    9  A    between atoms: C_29  and  C_30
REMARK                            x       y       z     vdW  Elec       q    Type
REMARK                         _______ _______ _______ _____ _____    ______ ____
ROOT
ATOM      1  C   UNL     1       6.425   6.023  16.337  0.00  0.00    +0.000 A 
ATOM      2  O   UNL     1       7.458   5.920  15.462  0.00  0.00    +0.000 OA
ATOM      3  C   UNL     1       7.063   5.120  14.452  0.00  0.00    +0.000 A 
ATOM      4  C   UNL     1       7.857   4.941  13.313  0.00  0.00    +0.000 A 
ATOM      5  C   UNL     1       7.287   4.225  12.279  0.00  0.00    +0.000 A 
ATOM      6  C   UNL     1       6.004   3.702  12.434  0.00  0.00    +0.000 A 
ATOM      7  C   UNL     1       5.257   3.845  13.641  0.00  0.00    +0.000 A 
ATOM      8  C   UNL     1       5.789   4.606  14.707  0.00  0.00    +0.000 A 
ATOM      9  C   UNL     1       5.416   5.089  16.059  0.00  0.00    +0.000 A 
ENDROOT
BRANCH   1  11
ATOM     10  N   UNL     1       7.764   7.828  17.050  0.00  0.00    +0.000 N 
ATOM     11  C   UNL     1       6.639   7.047  17.335  0.00  0.00    +0.000 C 
ATOM     12  O   UNL     1       5.836   7.190  18.252  0.00  0.00    +0.000 OA
ATOM     13  H   UNL     1       8.280   7.567  16.223  0.00  0.00    +0.000 HD
BRANCH  10  17
ATOM     14  C   UNL     1       9.146  11.255  19.100  0.00  0.00    +0.000 A 
ATOM     15  C   UNL     1       8.448  11.384  17.902  0.00  0.00    +0.000 A 
ATOM     16  C   UNL     1       7.972  10.264  17.222  0.00  0.00    +0.000 A 
ATOM     17  C   UNL     1       8.209   8.987  17.718  0.00  0.00    +0.000 A 
ATOM     18  C   UNL     1       8.906   8.851  18.928  0.00  0.00    +0.000 A 
ATOM     19  C   UNL     1       9.380   9.982  19.617  0.00  0.00    +0.000 A 
BRANCH  14  21
ATOM     20  C   UNL     1      10.202  12.371  20.904  0.00  0.00    +0.000 C 
ATOM     21  O   UNL     1       9.590  12.437  19.624  0.00  0.00    +0.000 OA
ENDBRANCH  14  21
ENDBRANCH  10  17
ENDBRANCH   1  11
BRANCH   9  22
ATOM     22  N   UNL     1       4.316   4.863  16.974  0.00  0.00    +0.000 N 
ATOM     23  C   UNL     1       4.265   4.235  18.241  0.00  0.00    +0.000 C 
ATOM     24  O   UNL     1       5.234   3.674  18.749  0.00  0.00    +0.000 OA
ATOM     25  H   UNL     1       3.447   5.270  16.630  0.00  0.00    +0.000 HD
BRANCH  23  26
ATOM     26  C   UNL     1       2.888   4.352  19.061  0.00  0.00    +0.000 C 
BRANCH  26  27
ATOM     27  C   UNL     1       2.436   5.735  19.587  0.00  0.00    +0.000 A 
ATOM     28  C   UNL     1       2.004   5.846  20.893  0.00  0.00    +0.000 A 
ATOM     29  O   UNL     1       1.316   6.976  21.119  0.00  0.00    +0.000 OA
ATOM     30  C   UNL     1       1.427   7.760  20.019  0.00  0.00    +0.000 A 
ATOM     31  C   UNL     1       0.873   9.061  19.971  0.00  0.00    +0.000 A 
ATOM     32  C   UNL     1      -0.051   9.552  21.051  0.00  0.00    +0.000 C 
ATOM     33  C   UNL     1       1.312   9.890  18.926  0.00  0.00    +0.000 A 
ATOM     34  C   UNL     1       1.050  11.385  18.961  0.00  0.00    +0.000 C 
ATOM     35  C   UNL     1       2.118   9.320  17.920  0.00  0.00    +0.000 A 
ATOM     36  C   UNL     1       2.502   7.931  17.921  0.00  0.00    +0.000 A 
ATOM     37  C   UNL     1       2.201   7.111  19.047  0.00  0.00    +0.000 A 
ENDBRANCH  26  27
ENDBRANCH  23  26
ENDBRANCH   9  22
TORSDOF 6
ENDMDL
MODEL 3
REMARK VINA RESULT:      -9.1      3.768      6.866
REMARK  Name = 
REMARK  9 active torsions:
REMARK  status: ('A' for Active; 'I' for Inactive)
REMARK    1  A    between atoms: C_1  and  O_2
REMARK    2  A    between atoms: O_2  and  C_3
REMARK    3  A    between atoms: C_6  and  N_7
REMARK    4  A    between atoms: C_8  and  C_10
REMARK    5  A    between atoms: C_18  and  N_19
REMARK    6  A    between atoms: C_20  and  C_22
REMARK    7  A    between atoms: C_22  and  C_23
REMARK    8  A    between atoms: C_27  and  C_28
REMARK    9  A    between atoms: C_29  and  C_30
REMARK                            x       y       z     vdW  Elec       q    Type
REMARK                         _______ _______ _______ _____ _____    ______ ____
ROOT
ATOM      1  C   UNL     1       6.848   5.926  16.735  0.00  0.00    +0.000 A 
ATOM      2  O   UNL     1       7.716   5.608  15.742  0.00  0.00    +0.000 OA
ATOM      3  C   UNL     1       7.020   4.986  14.771  0.00  0.00    +0.000 A 
ATOM      4  C   UNL     1       7.610   4.667  13.542  0.00  0.00    +0.000 A 
ATOM      5  C   UNL     1       6.764   4.171  12.569  0.00  0.00    +0.000 A 
ATOM      6  C   UNL     1       5.415   3.983  12.867  0.00  0.00    +0.000 A 
ATOM      7  C   UNL     1       4.868   4.252  14.156  0.00  0.00    +0.000 A 
ATOM      8  C   UNL     1       5.693   4.799  15.166  0.00  0.00    +0.000 A 
ATOM      9  C   UNL     1       5.608   5.293  16.562  0.00  0.00    +0.000 A 
ENDROOT
BRANCH   1  11
ATOM     10  N   UNL     1       7.781   8.048  17.168  0.00  0.00    +0.000 N 
ATOM     11  C   UNL     1       7.427   6.813  17.720  0.00  0.00    +0.000 C 
ATOM     12  O   UNL     1       7.496   6.466  18.896  0.00  0.00    +0.000 OA
ATOM     13  H   UNL     1       7.613   8.149  16.178  0.00  0.00    +0.000 HD
BRANCH  10  17
ATOM     14  C   UNL     1       9.137  11.538  19.128  0.00  0.00    +0.000 A 
ATOM     15  C   UNL     1       9.394  10.280  19.669  0.00  0.00    +0.000 A 
ATOM     16  C   UNL     1       8.967   9.119  19.026  0.00  0.00    +0.000 A 
ATOM     17  C   UNL     1       8.250   9.197  17.838  0.00  0.00    +0.000 A 
ATOM     18  C   UNL     1       7.994  10.461  17.285  0.00  0.00    +0.000 A 
ATOM     19  C   UNL     1       8.432  11.631  17.930  0.00  0.00    +0.000 A 
BRANCH  14  21
ATOM     20  C   UNL     1      10.793  12.382  20.598  0.00  0.00    +0.000 C 
ATOM     21  O   UNL     1       9.575  12.581  19.895  0.00  0.00    +0.000 OA
ENDBRANCH  14  21
ENDBRANCH  10  17
ENDBRANCH   1  11
BRANCH   9  22
ATOM     22  N   UNL     1       4.595   5.309  17.596  0.00  0.00    +0.000 N 
ATOM     23  C   UNL     1       3.468   4.483  17.817  0.00  0.00    +0.000 C 
ATOM     24  O   UNL     1       3.123   3.599  17.035  0.00  0.00    +0.000 OA
ATOM     25  H   UNL     1       4.774   6.033  18.291  0.00  0.00    +0.000 HD
BRANCH  23  26
ATOM     26  C   UNL     1       2.675   4.679  19.202  0.00  0.00    +0.000 C 
BRANCH  26  27
ATOM     27  C   UNL     1       2.297   6.107  19.660  0.00  0.00    +0.000 A 
ATOM     28  C   UNL     1       1.896   6.308  20.965  0.00  0.00    +0.000 A 
ATOM     29  O   UNL     1       1.265   7.478  21.142  0.00  0.00    +0.000 OA
ATOM     30  C   UNL     1       1.388   8.197  19.999  0.00  0.00    +0.000 A 
ATOM     31  C   UNL     1       0.892   9.517  19.891  0.00  0.00    +0.000 A 
ATOM     32  C   UNL     1       0.012  10.107  20.960  0.00  0.00    +0.000 C 
ATOM     33  C   UNL     1       1.347  10.269  18.796  0.00  0.00    +0.000 A 
ATOM     34  C   UNL     1       1.153  11.775  18.755  0.00  0.00    +0.000 C 
ATOM     35  C   UNL     1       2.106   9.610  17.808  0.00  0.00    +0.000 A 
ATOM     36  C   UNL     1       2.427   8.207  17.877  0.00  0.00    +0.000 A 
ATOM     37  C   UNL     1       2.112   7.462  19.051  0.00  0.00    +0.000 A 
ENDBRANCH  26  27
ENDBRANCH  23  26
ENDBRANCH   9  22
TORSDOF 6
ENDMDL
MODEL 4
REMARK VINA RESULT:      -8.8      1.412      2.151
REMARK  Name = 
REMARK  9 active torsions:
REMARK  status: ('A' for Active; 'I' for Inactive)
REMARK    1  A    between atoms: C_1  and  O_2
REMARK    2  A    between atoms: O_2  and  C_3
REMARK    3  A    between atoms: C_6  and  N_7
REMARK    4  A    between atoms: C_8  and  C_10
REMARK    5  A    between atoms: C_18  and  N_19
REMARK    6  A    between atoms: C_20  and  C_22
REMARK    7  A    between atoms: C_22  and  C_23
REMARK    8  A    between atoms: C_27  and  C_28
REMARK    9  A    between atoms: C_29  and  C_30
REMARK                            x       y       z     vdW  Elec       q    Type
REMARK                         _______ _______ _______ _____ _____    ______ ____
ROOT
ATOM      1  C   UNL     1       3.863   5.189  18.357  0.00  0.00    +0.000 A 
ATOM      2  O   UNL     1       4.373   4.075  18.941  0.00  0.00    +0.000 OA
ATOM      3  C   UNL     1       3.544   3.717  19.940  0.00  0.00    +0.000 A 
ATOM      4  C   UNL     1       3.719   2.515  20.637  0.00  0.00    +0.000 A 
ATOM      5  C   UNL     1       2.724   2.180  21.534  0.00  0.00    +0.000 A 
ATOM      6  C   UNL     1       1.649   3.048  21.721  0.00  0.00    +0.000 A 
ATOM      7  C   UNL     1       1.546   4.299  21.043  0.00  0.00    +0.000 A 
ATOM      8  C   UNL     1       2.524   4.660  20.087  0.00  0.00    +0.000 A 
ATOM      9  C   UNL     1       2.824   5.743  19.120  0.00  0.00    +0.000 A 
ENDROOT
BRANCH   1  11
ATOM     10  N   UNL     1       5.067   4.398  16.490  0.00  0.00    +0.000 N 
ATOM     11  C   UNL     1       4.531   5.526  17.119  0.00  0.00    +0.000 C 
ATOM     12  O   UNL     1       4.517   6.683  16.708  0.00  0.00    +0.000 OA
ATOM     13  H   UNL     1       4.943   3.524  16.979  0.00  0.00    +0.000 HD
BRANCH  10  17
ATOM     14  C   UNL     1       6.945   4.184  12.711  0.00  0.00    +0.000 A 
ATOM     15  C   UNL     1       5.725   3.549  12.929  0.00  0.00    +0.000 A 
ATOM     16  C   UNL     1       5.085   3.624  14.164  0.00  0.00    +0.000 A 
ATOM     17  C   UNL     1       5.670   4.317  15.218  0.00  0.00    +0.000 A 
ATOM     18  C   UNL     1       6.896   4.965  15.002  0.00  0.00    +0.000 A 
ATOM     19  C   UNL     1       7.537   4.896  13.752  0.00  0.00    +0.000 A 
BRANCH  14  21
ATOM     20  C   UNL     1       7.453   2.647  10.980  0.00  0.00    +0.000 C 
ATOM     21  O   UNL     1       7.472   3.982  11.466  0.00  0.00    +0.000 OA
ENDBRANCH  14  21
ENDBRANCH  10  17
ENDBRANCH   1  11
BRANCH   9  22
ATOM     22  N   UNL     1       2.268   7.045  18.814  0.00  0.00    +0.000 N 
ATOM     23  C   UNL     1       1.758   8.066  19.650  0.00  0.00    +0.000 C 
ATOM     24  O   UNL     1       1.641   7.938  20.867  0.00  0.00    +0.000 OA
ATOM     25  H   UNL     1       2.294   7.243  17.814  0.00  0.00    +0.000 HD
BRANCH  23  26
ATOM     26  C   UNL     1       1.408   9.474  18.957  0.00  0.00    +0.000 C 
BRANCH  26  27
ATOM     27  C   UNL     1       0.182  10.277  19.454  0.00  0.00    +0.000 A 
ATOM     28  C   UNL     1      -0.611  10.927  18.531  0.00  0.00    +0.000 A 
ATOM     29  O   UNL     1      -1.401  11.858  19.089  0.00  0.00    +0.000 OA
ATOM     30  C   UNL     1      -1.308  11.734  20.435  0.00  0.00    +0.000 A 
ATOM     31  C   UNL     1      -2.084  12.527  21.313  0.00  0.00    +0.000 A 
ATOM     32  C   UNL     1      -2.885  13.694  20.803  0.00  0.00    +0.000 C 
ATOM     33  C   UNL     1      -2.145  12.104  22.650  0.00  0.00    +0.000 A 
ATOM     34  C   UNL     1      -3.191  12.667  23.595  0.00  0.00    +0.000 C 
ATOM     35  C   UNL     1      -1.302  11.047  23.050  0.00  0.00    +0.000 A 
ATOM     36  C   UNL     1      -0.387  10.392  22.150  0.00  0.00    +0.000 A 
ATOM     37  C   UNL     1      -0.421  10.698  20.757  0.00  0.00    +0.000 A 
ENDBRANCH  26  27
ENDBRANCH  23  26
ENDBRANCH   9  22
TORSDOF 6
ENDMDL
MODEL 5
REMARK VINA RESULT:      -8.7      4.081      6.696
REMARK  Name = 
REMARK  9 active torsions:
REMARK  status: ('A' for Active; 'I' for Inactive)
REMARK    1  A    between atoms: C_1  and  O_2
REMARK    2  A    between atoms: O_2  and  C_3
REMARK    3  A    between atoms: C_6  and  N_7
REMARK    4  A    between atoms: C_8  and  C_10
REMARK    5  A    between atoms: C_18  and  N_19
REMARK    6  A    between atoms: C_20  and  C_22
REMARK    7  A    between atoms: C_22  and  C_23
REMARK    8  A    between atoms: C_27  and  C_28
REMARK    9  A    between atoms: C_29  and  C_30
REMARK                            x       y       z     vdW  Elec       q    Type
REMARK                         _______ _______ _______ _____ _____    ______ ____
ROOT
ATOM      1  C   UNL     1       6.999   6.346  17.065  0.00  0.00    +0.000 A 
ATOM      2  O   UNL     1       7.772   5.734  16.132  0.00  0.00    +0.000 OA
ATOM      3  C   UNL     1       6.953   5.103  15.269  0.00  0.00    +0.000 A 
ATOM      4  C   UNL     1       7.446   4.504  14.103  0.00  0.00    +0.000 A 
ATOM      5  C   UNL     1       6.502   4.022  13.219  0.00  0.00    +0.000 A 
ATOM      6  C   UNL     1       5.149   4.120  13.541  0.00  0.00    +0.000 A 
ATOM      7  C   UNL     1       4.691   4.673  14.774  0.00  0.00    +0.000 A 
ATOM      8  C   UNL     1       5.625   5.214  15.688  0.00  0.00    +0.000 A 
ATOM      9  C   UNL     1       5.664   5.921  16.990  0.00  0.00    +0.000 A 
ENDROOT
BRANCH   1  11
ATOM     10  N   UNL     1       7.802   8.544  17.359  0.00  0.00    +0.000 N 
ATOM     11  C   UNL     1       7.749   7.256  17.902  0.00  0.00    +0.000 C 
ATOM     12  O   UNL     1       8.192   6.876  18.982  0.00  0.00    +0.000 OA
ATOM     13  H   UNL     1       7.344   8.661  16.468  0.00  0.00    +0.000 HD
BRANCH  10  17
ATOM     14  C   UNL     1       9.433  12.001  19.160  0.00  0.00    +0.000 A 
ATOM     15  C   UNL     1       8.651  12.106  18.012  0.00  0.00    +0.000 A 
ATOM     16  C   UNL     1       8.093  10.977  17.416  0.00  0.00    +0.000 A 
ATOM     17  C   UNL     1       8.329   9.713  17.945  0.00  0.00    +0.000 A 
ATOM     18  C   UNL     1       9.111   9.601  19.104  0.00  0.00    +0.000 A 
ATOM     19  C   UNL     1       9.668  10.742  19.710  0.00  0.00    +0.000 A 
BRANCH  14  21
ATOM     20  C   UNL     1       9.573  14.349  18.876  0.00  0.00    +0.000 C 
ATOM     21  O   UNL     1       9.950  13.187  19.601  0.00  0.00    +0.000 OA
ENDBRANCH  14  21
ENDBRANCH  10  17
ENDBRANCH   1  11
BRANCH   9  22
ATOM     22  N   UNL     1       4.697   6.270  18.010  0.00  0.00    +0.000 N 
ATOM     23  C   UNL     1       3.462   5.682  18.371  0.00  0.00    +0.000 C 
ATOM     24  O   UNL     1       2.960   4.746  17.752  0.00  0.00    +0.000 OA
ATOM     25  H   UNL     1       5.007   7.063  18.572  0.00  0.00    +0.000 HD
BRANCH  23  26
ATOM     26  C   UNL     1       2.751   6.231  19.704  0.00  0.00    +0.000 C 
BRANCH  26  27
ATOM     27  C   UNL     1       1.988   7.576  19.656  0.00  0.00    +0.000 A 
ATOM     28  C   UNL     1       1.932   8.271  18.465  0.00  0.00    +0.000 A 
ATOM     29  O   UNL     1       1.570   9.553  18.628  0.00  0.00    +0.000 OA
ATOM     30  C   UNL     1       1.181   9.718  19.916  0.00  0.00    +0.000 A 
ATOM     31  C   UNL     1       0.667  10.949  20.388  0.00  0.00    +0.000 A 
ATOM     32  C   UNL     1       0.732  12.193  19.545  0.00  0.00    +0.000 C 
ATOM     33  C   UNL     1       0.009  10.917  21.628  0.00  0.00    +0.000 A 
ATOM     34  C   UNL     1      -0.858  12.080  22.076  0.00  0.00    +0.000 C 
ATOM     35  C   UNL     1       0.065   9.725  22.379  0.00  0.00    +0.000 A 
ATOM     36  C   UNL     1       0.767   8.550  21.929  0.00  0.00    +0.000 A 
ATOM     37  C   UNL     1       1.306   8.507  20.609  0.00  0.00    +0.000 A 
ENDBRANCH  26  27
ENDBRANCH  23  26
ENDBRANCH   9  22
TORSDOF 6
ENDMDL
MODEL 6
REMARK VINA RESULT:      -8.7      3.313     10.049
REMARK  Name = 
REMARK  9 active torsions:
REMARK  status: ('A' for Active; 'I' for Inactive)
REMARK    1  A    between atoms: C_1  and  O_2
REMARK    2  A    between atoms: O_2  and  C_3
REMARK    3  A    between atoms: C_6  and  N_7
REMARK    4  A    between atoms: C_8  and  C_10
REMARK    5  A    between atoms: C_18  and  N_19
REMARK    6  A    between atoms: C_20  and  C_22
REMARK    7  A    between atoms: C_22  and  C_23
REMARK    8  A    between atoms: C_27  and  C_28
REMARK    9  A    between atoms: C_29  and  C_30
REMARK                            x       y       z     vdW  Elec       q    Type
REMARK                         _______ _______ _______ _____ _____    ______ ____
ROOT
ATOM      1  C   UNL     1      -0.653  11.970  18.855  0.00  0.00    +0.000 A 
ATOM      2  O   UNL     1      -1.871  12.563  18.935  0.00  0.00    +0.000 OA
ATOM      3  C   UNL     1      -2.789  11.678  18.500  0.00  0.00    +0.000 A 
ATOM      4  C   UNL     1      -4.160  11.943  18.602  0.00  0.00    +0.000 A 
ATOM      5  C   UNL     1      -5.008  10.905  18.267  0.00  0.00    +0.000 A 
ATOM      6  C   UNL     1      -4.470   9.699  17.820  0.00  0.00    +0.000 A 
ATOM      7  C   UNL     1      -3.067   9.496  17.661  0.00  0.00    +0.000 A 
ATOM      8  C   UNL     1      -2.165  10.519  18.032  0.00  0.00    +0.000 A 
ATOM      9  C   UNL     1      -0.707  10.774  18.124  0.00  0.00    +0.000 A 
ENDROOT
BRANCH   1  11
ATOM     10  N   UNL     1       1.049  13.589  18.645  0.00  0.00    +0.000 N 
ATOM     11  C   UNL     1       0.382  12.728  19.523  0.00  0.00    +0.000 C 
ATOM     12  O   UNL     1       0.539  12.619  20.736  0.00  0.00    +0.000 OA
ATOM     13  H   UNL     1       0.747  13.552  17.683  0.00  0.00    +0.000 HD
BRANCH  10  17
ATOM     14  C   UNL     1       4.013  16.453  19.575  0.00  0.00    +0.000 A 
ATOM     15  C   UNL     1       2.766  16.856  19.104  0.00  0.00    +0.000 A 
ATOM     16  C   UNL     1       1.773  15.925  18.809  0.00  0.00    +0.000 A 
ATOM     17  C   UNL     1       2.019  14.565  18.955  0.00  0.00    +0.000 A 
ATOM     18  C   UNL     1       3.271  14.152  19.435  0.00  0.00    +0.000 A 
ATOM     19  C   UNL     1       4.270  15.094  19.741  0.00  0.00    +0.000 A 
BRANCH  14  21
ATOM     20  C   UNL     1       6.166  17.348  19.148  0.00  0.00    +0.000 C 
ATOM     21  O   UNL     1       4.898  17.476  19.776  0.00  0.00    +0.000 OA
ENDBRANCH  14  21
ENDBRANCH  10  17
ENDBRANCH   1  11
BRANCH   9  22
ATOM     22  N   UNL     1       0.496  10.072  17.725  0.00  0.00    +0.000 N 
ATOM     23  C   UNL     1       1.427   9.309  18.469  0.00  0.00    +0.000 C 
ATOM     24  O   UNL     1       1.371   9.193  19.692  0.00  0.00    +0.000 OA
ATOM     25  H   UNL     1       0.651  10.129  16.719  0.00  0.00    +0.000 HD
BRANCH  23  26
ATOM     26  C   UNL     1       2.543   8.503  17.639  0.00  0.00    +0.000 C 
BRANCH  26  27
ATOM     27  C   UNL     1       2.987   7.105  18.130  0.00  0.00    +0.000 A 
ATOM     28  C   UNL     1       3.954   6.422  17.421  0.00  0.00    +0.000 A 
ATOM     29  O   UNL     1       3.992   5.115  17.721  0.00  0.00    +0.000 OA
ATOM     30  C   UNL     1       3.180   4.905  18.786  0.00  0.00    +0.000 A 
ATOM     31  C   UNL     1       3.062   3.633  19.394  0.00  0.00    +0.000 A 
ATOM     32  C   UNL     1       3.658   2.408  18.757  0.00  0.00    +0.000 C 
ATOM     33  C   UNL     1       2.455   3.600  20.660  0.00  0.00    +0.000 A 
ATOM     34  C   UNL     1       2.568   2.369  21.542  0.00  0.00    +0.000 C 
ATOM     35  C   UNL     1       1.859   4.783  21.142  0.00  0.00    +0.000 A 
ATOM     36  C   UNL     1       1.847   6.014  20.392  0.00  0.00    +0.000 A 
ATOM     37  C   UNL     1       2.590   6.114  19.179  0.00  0.00    +0.000 A 
ENDBRANCH  26  27
ENDBRANCH  23  26
ENDBRANCH   9  22
TORSDOF 6
ENDMDL
MODEL 7
REMARK VINA RESULT:      -8.6      0.562      1.044
REMARK  Name = 
REMARK  9 active torsions:
REMARK  status: ('A' for Active; 'I' for Inactive)
REMARK    1  A    between atoms: C_1  and  O_2
REMARK    2  A    between atoms: O_2  and  C_3
REMARK    3  A    between atoms: C_6  and  N_7
REMARK    4  A    between atoms: C_8  and  C_10
REMARK    5  A    between atoms: C_18  and  N_19
REMARK    6  A    between atoms: C_20  and  C_22
REMARK    7  A    between atoms: C_22  and  C_23
REMARK    8  A    between atoms: C_27  and  C_28
REMARK    9  A    between atoms: C_29  and  C_30
REMARK                            x       y       z     vdW  Elec       q    Type
REMARK                         _______ _______ _______ _____ _____    ______ ____
ROOT
ATOM      1  C   UNL     1       4.035   5.188  18.458  0.00  0.00    +0.000 A 
ATOM      2  O   UNL     1       4.373   4.114  19.216  0.00  0.00    +0.000 OA
ATOM      3  C   UNL     1       3.323   3.821  20.006  0.00  0.00    +0.000 A 
ATOM      4  C   UNL     1       3.308   2.666  20.799  0.00  0.00    +0.000 A 
ATOM      5  C   UNL     1       2.122   2.388  21.449  0.00  0.00    +0.000 A 
ATOM      6  C   UNL     1       1.047   3.265  21.317  0.00  0.00    +0.000 A 
ATOM      7  C   UNL     1       1.127   4.470  20.557  0.00  0.00    +0.000 A 
ATOM      8  C   UNL     1       2.311   4.770  19.844  0.00  0.00    +0.000 A 
ATOM      9  C   UNL     1       2.851   5.789  18.912  0.00  0.00    +0.000 A 
ENDROOT
BRANCH   1  11
ATOM     10  N   UNL     1       4.946   4.459  16.410  0.00  0.00    +0.000 N 
ATOM     11  C   UNL     1       4.985   5.446  17.399  0.00  0.00    +0.000 C 
ATOM     12  O   UNL     1       5.657   6.474  17.411  0.00  0.00    +0.000 OA
ATOM     13  H   UNL     1       4.296   3.704  16.570  0.00  0.00    +0.000 HD
BRANCH  10  17
ATOM     14  C   UNL     1       6.921   4.371  12.675  0.00  0.00    +0.000 A 
ATOM     15  C   UNL     1       7.507   5.005  13.768  0.00  0.00    +0.000 A 
ATOM     16  C   UNL     1       6.876   5.028  15.010  0.00  0.00    +0.000 A 
ATOM     17  C   UNL     1       5.629   4.437  15.175  0.00  0.00    +0.000 A 
ATOM     18  C   UNL     1       5.036   3.791  14.080  0.00  0.00    +0.000 A 
ATOM     19  C   UNL     1       5.678   3.761  12.829  0.00  0.00    +0.000 A 
BRANCH  14  21
ATOM     20  C   UNL     1       7.838   5.784  11.008  0.00  0.00    +0.000 C 
ATOM     21  O   UNL     1       7.636   4.472  11.514  0.00  0.00    +0.000 OA
ENDBRANCH  14  21
ENDBRANCH  10  17
ENDBRANCH   1  11
BRANCH   9  22
ATOM     22  N   UNL     1       2.403   7.067  18.400  0.00  0.00    +0.000 N 
ATOM     23  C   UNL     1       1.888   8.211  19.055  0.00  0.00    +0.000 C 
ATOM     24  O   UNL     1       1.659   8.244  20.263  0.00  0.00    +0.000 OA
ATOM     25  H   UNL     1       2.525   7.136  17.390  0.00  0.00    +0.000 HD
BRANCH  23  26
ATOM     26  C   UNL     1       1.683   9.535  18.167  0.00  0.00    +0.000 C 
BRANCH  26  27
ATOM     27  C   UNL     1       0.449  10.432  18.420  0.00  0.00    +0.000 A 
ATOM     28  C   UNL     1       0.550  11.470  19.324  0.00  0.00    +0.000 A 
ATOM     29  O   UNL     1      -0.646  11.934  19.718  0.00  0.00    +0.000 OA
ATOM     30  C   UNL     1      -1.596  11.353  18.945  0.00  0.00    +0.000 A 
ATOM     31  C   UNL     1      -2.964  11.693  19.063  0.00  0.00    +0.000 A 
ATOM     32  C   UNL     1      -3.457  12.551  20.196  0.00  0.00    +0.000 C 
ATOM     33  C   UNL     1      -3.805  11.277  18.018  0.00  0.00    +0.000 A 
ATOM     34  C   UNL     1      -5.200  11.856  17.867  0.00  0.00    +0.000 C 
ATOM     35  C   UNL     1      -3.269  10.414  17.040  0.00  0.00    +0.000 A 
ATOM     36  C   UNL     1      -1.907   9.945  17.072  0.00  0.00    +0.000 A 
ATOM     37  C   UNL     1      -0.995  10.477  18.031  0.00  0.00    +0.000 A 
ENDBRANCH  26  27
ENDBRANCH  23  26
ENDBRANCH   9  22
TORSDOF 6
ENDMDL
MODEL 8
REMARK VINA RESULT:      -8.6      1.970      2.459
REMARK  Name = 
REMARK  9 active torsions:
REMARK  status: ('A' for Active; 'I' for Inactive)
REMARK    1  A    between atoms: C_1  and  O_2
REMARK    2  A    between atoms: O_2  and  C_3
REMARK    3  A    between atoms: C_6  and  N_7
REMARK    4  A    between atoms: C_8  and  C_10
REMARK    5  A    between atoms: C_18  and  N_19
REMARK    6  A    between atoms: C_20  and  C_22
REMARK    7  A    between atoms: C_22  and  C_23
REMARK    8  A    between atoms: C_27  and  C_28
REMARK    9  A    between atoms: C_29  and  C_30
REMARK                            x       y       z     vdW  Elec       q    Type
REMARK                         _______ _______ _______ _____ _____    ______ ____
ROOT
ATOM      1  C   UNL     1       3.841   5.343  18.047  0.00  0.00    +0.000 A 
ATOM      2  O   UNL     1       4.290   4.252  18.719  0.00  0.00    +0.000 OA
ATOM      3  C   UNL     1       3.398   3.972  19.689  0.00  0.00    +0.000 A 
ATOM      4  C   UNL     1       3.505   2.808  20.460  0.00  0.00    +0.000 A 
ATOM      5  C   UNL     1       2.455   2.546  21.318  0.00  0.00    +0.000 A 
ATOM      6  C   UNL     1       1.394   3.448  21.397  0.00  0.00    +0.000 A 
ATOM      7  C   UNL     1       1.360   4.661  20.646  0.00  0.00    +0.000 A 
ATOM      8  C   UNL     1       2.397   4.944  19.727  0.00  0.00    +0.000 A 
ATOM      9  C   UNL     1       2.777   5.964  18.719  0.00  0.00    +0.000 A 
ENDROOT
BRANCH   1  11
ATOM     10  N   UNL     1       4.978   4.407  16.205  0.00  0.00    +0.000 N 
ATOM     11  C   UNL     1       4.583   5.594  16.832  0.00  0.00    +0.000 C 
ATOM     12  O   UNL     1       4.738   6.744  16.432  0.00  0.00    +0.000 OA
ATOM     13  H   UNL     1       4.723   3.556  16.682  0.00  0.00    +0.000 HD
BRANCH  10  17
ATOM     14  C   UNL     1       6.915   3.969  12.475  0.00  0.00    +0.000 A 
ATOM     15  C   UNL     1       5.645   3.432  12.678  0.00  0.00    +0.000 A 
ATOM     16  C   UNL     1       4.987   3.582  13.897  0.00  0.00    +0.000 A 
ATOM     17  C   UNL     1       5.600   4.253  14.949  0.00  0.00    +0.000 A 
ATOM     18  C   UNL     1       6.876   4.802  14.749  0.00  0.00    +0.000 A 
ATOM     19  C   UNL     1       7.536   4.657  13.516  0.00  0.00    +0.000 A 
BRANCH  14  21
ATOM     20  C   UNL     1       7.615   2.329  10.915  0.00  0.00    +0.000 C 
ATOM     21  O   UNL     1       7.451   3.700  11.247  0.00  0.00    +0.000 OA
ENDBRANCH  14  21
ENDBRANCH  10  17
ENDBRANCH   1  11
BRANCH   9  22
ATOM     22  N   UNL     1       2.272   7.258  18.311  0.00  0.00    +0.000 N 
ATOM     23  C   UNL     1       1.825   8.369  19.064  0.00  0.00    +0.000 C 
ATOM     24  O   UNL     1       1.728   8.351  20.290  0.00  0.00    +0.000 OA
ATOM     25  H   UNL     1       2.285   7.368  17.298  0.00  0.00    +0.000 HD
BRANCH  23  26
ATOM     26  C   UNL     1       1.522   9.726  18.258  0.00  0.00    +0.000 C 
BRANCH  26  27
ATOM     27  C   UNL     1       1.101  10.993  19.040  0.00  0.00    +0.000 A 
ATOM     28  C   UNL     1       1.597  12.219  18.646  0.00  0.00    +0.000 A 
ATOM     29  O   UNL     1       1.459  13.163  19.589  0.00  0.00    +0.000 OA
ATOM     30  C   UNL     1       0.690  12.655  20.582  0.00  0.00    +0.000 A 
ATOM     31  C   UNL     1       0.296  13.434  21.694  0.00  0.00    +0.000 A 
ATOM     32  C   UNL     1       0.890  14.794  21.939  0.00  0.00    +0.000 C 
ATOM     33  C   UNL     1      -0.742  12.916  22.485  0.00  0.00    +0.000 A 
ATOM     34  C   UNL     1      -1.466  13.797  23.489  0.00  0.00    +0.000 C 
ATOM     35  C   UNL     1      -1.183  11.603  22.224  0.00  0.00    +0.000 A 
ATOM     36  C   UNL     1      -0.614  10.779  21.189  0.00  0.00    +0.000 A 
ATOM     37  C   UNL     1       0.329  11.336  20.275  0.00  0.00    +0.000 A 
ENDBRANCH  26  27
ENDBRANCH  23  26
ENDBRANCH   9  22
TORSDOF 6
ENDMDL
MODEL 9
REMARK VINA RESULT:      -8.6      3.844      6.834
REMARK  Name = 
REMARK  9 active torsions:
REMARK  status: ('A' for Active; 'I' for Inactive)
REMARK    1  A    between atoms: C_1  and  O_2
REMARK    2  A    between atoms: O_2  and  C_3
REMARK    3  A    between atoms: C_6  and  N_7
REMARK    4  A    between atoms: C_8  and  C_10
REMARK    5  A    between atoms: C_18  and  N_19
REMARK    6  A    between atoms: C_20  and  C_22
REMARK    7  A    between atoms: C_22  and  C_23
REMARK    8  A    between atoms: C_27  and  C_28
REMARK    9  A    between atoms: C_29  and  C_30
REMARK                            x       y       z     vdW  Elec       q    Type
REMARK                         _______ _______ _______ _____ _____    ______ ____
ROOT
ATOM      1  C   UNL     1       6.869   5.948  16.784  0.00  0.00    +0.000 A 
ATOM      2  O   UNL     1       7.727   5.588  15.796  0.00  0.00    +0.000 OA
ATOM      3  C   UNL     1       7.014   4.960  14.840  0.00  0.00    +0.000 A 
ATOM      4  C   UNL     1       7.594   4.601  13.618  0.00  0.00    +0.000 A 
ATOM      5  C   UNL     1       6.735   4.103  12.658  0.00  0.00    +0.000 A 
ATOM      6  C   UNL     1       5.382   3.953  12.962  0.00  0.00    +0.000 A 
ATOM      7  C   UNL     1       4.844   4.263  14.246  0.00  0.00    +0.000 A 
ATOM      8  C   UNL     1       5.684   4.813  15.242  0.00  0.00    +0.000 A 
ATOM      9  C   UNL     1       5.614   5.340  16.626  0.00  0.00    +0.000 A 
ENDROOT
BRANCH   1  11
ATOM     10  N   UNL     1       7.771   8.088  17.189  0.00  0.00    +0.000 N 
ATOM     11  C   UNL     1       7.471   6.842  17.748  0.00  0.00    +0.000 C 
ATOM     12  O   UNL     1       7.600   6.490  18.917  0.00  0.00    +0.000 OA
ATOM     13  H   UNL     1       7.557   8.191  16.208  0.00  0.00    +0.000 HD
BRANCH  10  17
ATOM     14  C   UNL     1       9.134  11.597  19.108  0.00  0.00    +0.000 A 
ATOM     15  C   UNL     1       9.414  10.344  19.648  0.00  0.00    +0.000 A 
ATOM     16  C   UNL     1       8.985   9.177  19.018  0.00  0.00    +0.000 A 
ATOM     17  C   UNL     1       8.243   9.244  17.845  0.00  0.00    +0.000 A 
ATOM     18  C   UNL     1       7.963  10.503  17.293  0.00  0.00    +0.000 A 
ATOM     19  C   UNL     1       8.403  11.680  17.925  0.00  0.00    +0.000 A 
BRANCH  14  21
ATOM     20  C   UNL     1      10.721  12.408  20.671  0.00  0.00    +0.000 C 
ATOM     21  O   UNL     1       9.578  12.648  19.862  0.00  0.00    +0.000 OA
ENDBRANCH  14  21
ENDBRANCH  10  17
ENDBRANCH   1  11
BRANCH   9  22
ATOM     22  N   UNL     1       4.604   5.402  17.662  0.00  0.00    +0.000 N 
ATOM     23  C   UNL     1       4.555   4.836  18.959  0.00  0.00    +0.000 C 
ATOM     24  O   UNL     1       5.421   4.077  19.390  0.00  0.00    +0.000 OA
ATOM     25  H   UNL     1       3.819   5.993  17.392  0.00  0.00    +0.000 HD
BRANCH  23  26
ATOM     26  C   UNL     1       3.345   5.294  19.913  0.00  0.00    +0.000 C 
BRANCH  26  27
ATOM     27  C   UNL     1       2.536   6.563  19.552  0.00  0.00    +0.000 A 
ATOM     28  C   UNL     1       2.574   7.035  18.257  0.00  0.00    +0.000 A 
ATOM     29  O   UNL     1       2.145   8.302  18.152  0.00  0.00    +0.000 OA
ATOM     30  C   UNL     1       1.619   8.666  19.347  0.00  0.00    +0.000 A 
ATOM     31  C   UNL     1       1.010   9.928  19.541  0.00  0.00    +0.000 A 
ATOM     32  C   UNL     1       1.110  11.007  18.498  0.00  0.00    +0.000 C 
ATOM     33  C   UNL     1       0.230  10.075  20.699  0.00  0.00    +0.000 A 
ATOM     34  C   UNL     1      -0.727  11.245  20.847  0.00  0.00    +0.000 C 
ATOM     35  C   UNL     1       0.257   9.037  21.653  0.00  0.00    +0.000 A 
ATOM     36  C   UNL     1       1.049   7.845  21.489  0.00  0.00    +0.000 A 
ATOM     37  C   UNL     1       1.723   7.604  20.256  0.00  0.00    +0.000 A 
ENDBRANCH  26  27
ENDBRANCH  23  26
ENDBRANCH   9  22
TORSDOF 6
ENDMDL
