MODEL 1
REMARK VINA RESULT:      -7.9      0.000      0.000
REMARK  Name = 
REMARK  7 active torsions:
REMARK  status: ('A' for Active; 'I' for Inactive)
REMARK    1  A    between atoms: C_1  and  C_2
REMARK    2  A    between atoms: C_2  and  C_3
REMARK    3  A    between atoms: C_3  and  C_4
REMARK    4  A    between atoms: C_4  and  N_5
REMARK    5  A    between atoms: N_8  and  C_9
REMARK    6  A    between atoms: C_19  and  C_20
REMARK    7  A    between atoms: C_19  and  C_21
REMARK                            x       y       z     vdW  Elec       q    Type
REMARK                         _______ _______ _______ _____ _____    ______ ____
ROOT
ATOM      1  N   UNL     1       5.705   4.783  16.009  0.00  0.00    +0.000 N 
ATOM      2  C   UNL     1       6.732   5.566  16.565  0.00  0.00    +0.000 A 
ATOM      3  O   UNL     1       7.514   6.205  15.851  0.00  0.00    +0.000 OA
ATOM      4  N   UNL     1       6.844   5.609  17.954  0.00  0.00    +0.000 N 
ATOM      5  C   UNL     1       7.923   6.386  18.539  0.00  0.00    +0.000 C 
ATOM      6  C   UNL     1       5.958   5.027  18.857  0.00  0.00    +0.000 A 
ATOM      7  O   UNL     1       6.054   5.158  20.081  0.00  0.00    +0.000 OA
ATOM      8  C   UNL     1       4.896   4.261  18.257  0.00  0.00    +0.000 A 
ATOM      9  C   UNL     1       3.805   3.572  18.871  0.00  0.00    +0.000 A 
ATOM     10  C   UNL     1       3.009   2.937  17.938  0.00  0.00    +0.000 A 
ATOM     11  S   UNL     1       3.555   3.182  16.354  0.00  0.00    +0.000 S 
ATOM     12  C   UNL     1       4.835   4.160  16.889  0.00  0.00    +0.000 A 
ATOM     13  C   UNL     1       1.759   2.178  18.244  0.00  0.00    +0.000 C 
ATOM     14  O   UNL     1       1.662   1.958  19.664  0.00  0.00    +0.000 OA
ATOM     15  C   UNL     1       1.974   3.100  20.496  0.00  0.00    +0.000 C 
ATOM     16  C   UNL     1       1.024   4.276  20.202  0.00  0.00    +0.000 C 
ATOM     17  C   UNL     1       1.755   2.650  21.946  0.00  0.00    +0.000 C 
ATOM     18  C   UNL     1       3.463   3.493  20.320  0.00  0.00    +0.000 C 
ENDROOT
BRANCH   1  19
ATOM     19  C   UNL     1       5.552   4.769  14.549  0.00  0.00    +0.000 C 
BRANCH  19  20
ATOM     20  C   UNL     1       6.393   3.680  13.882  0.00  0.00    +0.000 C 
BRANCH  20  22
ATOM     21  C   UNL     1       4.810   3.380  11.966  0.00  0.00    +0.000 C 
ATOM     22  C   UNL     1       6.241   3.694  12.368  0.00  0.00    +0.000 C 
ENDBRANCH  20  22
ENDBRANCH  19  20
ENDBRANCH   1  19
TORSDOF 3
ENDMDL
MODEL 2
REMARK VINA RESULT:      -6.8      5.109      7.043
REMARK  Name = 
REMARK  7 active torsions:
REMARK  status: ('A' for Active; 'I' for Inactive)
REMARK    1  A    between atoms: C_1  and  C_2
REMARK    2  A    between atoms: C_2  and  C_3
REMARK    3  A    between atoms: C_3  and  C_4
REMARK    4  A    between atoms: C_4  and  N_5
REMARK    5  A    between atoms: N_8  and  C_9
REMARK    6  A    between atoms: C_19  and  C_20
REMARK    7  A    between atoms: C_19  and  C_21
REMARK                            x       y       z     vdW  Elec       q    Type
REMARK                         _______ _______ _______ _____ _____    ______ ____
ROOT
ATOM      1  N   UNL     1       2.527   6.017  19.970  0.00  0.00    +0.000 N 
ATOM      2  C   UNL     1       3.332   5.745  18.850  0.00  0.00    +0.000 A 
ATOM      3  O   UNL     1       3.862   4.639  18.690  0.00  0.00    +0.000 OA
ATOM      4  N   UNL     1       3.516   6.761  17.913  0.00  0.00    +0.000 N 
ATOM      5  C   UNL     1       4.374   6.503  16.769  0.00  0.00    +0.000 C 
ATOM      6  C   UNL     1       2.882   8.001  17.927  0.00  0.00    +0.000 A 
ATOM      7  O   UNL     1       3.016   8.841  17.032  0.00  0.00    +0.000 OA
ATOM      8  C   UNL     1       2.037   8.237  19.069  0.00  0.00    +0.000 A 
ATOM      9  C   UNL     1       1.218   9.366  19.383  0.00  0.00    +0.000 A 
ATOM     10  C   UNL     1       0.570   9.208  20.592  0.00  0.00    +0.000 A 
ATOM     11  S   UNL     1       0.926   7.722  21.324  0.00  0.00    +0.000 S 
ATOM     12  C   UNL     1       1.920   7.261  20.027  0.00  0.00    +0.000 A 
ATOM     13  C   UNL     1      -0.401  10.176  21.184  0.00  0.00    +0.000 C 
ATOM     14  O   UNL     1      -0.344  11.421  20.461  0.00  0.00    +0.000 OA
ATOM     15  C   UNL     1      -0.306  11.305  19.019  0.00  0.00    +0.000 C 
ATOM     16  C   UNL     1      -1.560  10.584  18.488  0.00  0.00    +0.000 C 
ATOM     17  C   UNL     1      -0.301  12.737  18.470  0.00  0.00    +0.000 C 
ATOM     18  C   UNL     1       1.004  10.602  18.578  0.00  0.00    +0.000 C 
ENDROOT
BRANCH   1  19
ATOM     19  C   UNL     1       2.292   4.939  20.938  0.00  0.00    +0.000 C 
BRANCH  19  20
ATOM     20  C   UNL     1       1.037   4.126  20.618  0.00  0.00    +0.000 C 
BRANCH  20  22
ATOM     21  C   UNL     1       0.999   2.461  18.749  0.00  0.00    +0.000 C 
ATOM     22  C   UNL     1       1.376   2.702  20.201  0.00  0.00    +0.000 C 
ENDBRANCH  20  22
ENDBRANCH  19  20
ENDBRANCH   1  19
TORSDOF 3
ENDMDL
MODEL 3
REMARK VINA RESULT:      -6.7      3.755      5.250
REMARK  Name = 
REMARK  7 active torsions:
REMARK  status: ('A' for Active; 'I' for Inactive)
REMARK    1  A    between atoms: C_1  and  C_2
REMARK    2  A    between atoms: C_2  and  C_3
REMARK    3  A    between atoms: C_3  and  C_4
REMARK    4  A    between atoms: C_4  and  N_5
REMARK    5  A    between atoms: N_8  and  C_9
REMARK    6  A    between atoms: C_19  and  C_20
REMARK    7  A    between atoms: C_19  and  C_21
REMARK                            x       y       z     vdW  Elec       q    Type
REMARK                         _______ _______ _______ _____ _____    ______ ____
ROOT
ATOM      1  N   UNL     1       4.032   5.762  17.862  0.00  0.00    +0.000 N 
ATOM      2  C   UNL     1       4.260   4.493  18.423  0.00  0.00    +0.000 A 
ATOM      3  O   UNL     1       5.099   3.719  17.947  0.00  0.00    +0.000 OA
ATOM      4  N   UNL     1       3.513   4.128  19.542  0.00  0.00    +0.000 N 
ATOM      5  C   UNL     1       3.715   2.805  20.109  0.00  0.00    +0.000 C 
ATOM      6  C   UNL     1       2.628   4.953  20.231  0.00  0.00    +0.000 A 
ATOM      7  O   UNL     1       2.048   4.611  21.266  0.00  0.00    +0.000 OA
ATOM      8  C   UNL     1       2.442   6.259  19.653  0.00  0.00    +0.000 A 
ATOM      9  C   UNL     1       1.650   7.358  20.110  0.00  0.00    +0.000 A 
ATOM     10  C   UNL     1       1.728   8.437  19.253  0.00  0.00    +0.000 A 
ATOM     11  S   UNL     1       2.750   8.141  17.935  0.00  0.00    +0.000 S 
ATOM     12  C   UNL     1       3.123   6.586  18.506  0.00  0.00    +0.000 A 
ATOM     13  C   UNL     1       1.067   9.760  19.468  0.00  0.00    +0.000 C 
ATOM     14  O   UNL     1       0.109   9.652  20.538  0.00  0.00    +0.000 OA
ATOM     15  C   UNL     1       0.557   8.928  21.708  0.00  0.00    +0.000 C 
ATOM     16  C   UNL     1       1.792   9.600  22.336  0.00  0.00    +0.000 C 
ATOM     17  C   UNL     1      -0.594   8.988  22.720  0.00  0.00    +0.000 C 
ATOM     18  C   UNL     1       0.819   7.444  21.344  0.00  0.00    +0.000 C 
ENDROOT
BRANCH   1  19
ATOM     19  C   UNL     1       4.845   6.172  16.711  0.00  0.00    +0.000 C 
BRANCH  19  20
ATOM     20  C   UNL     1       6.038   7.040  17.114  0.00  0.00    +0.000 C 
BRANCH  20  22
ATOM     21  C   UNL     1       7.862   6.394  18.702  0.00  0.00    +0.000 C 
ATOM     22  C   UNL     1       7.302   6.213  17.302  0.00  0.00    +0.000 C 
ENDBRANCH  20  22
ENDBRANCH  19  20
ENDBRANCH   1  19
TORSDOF 3
ENDMDL
MODEL 4
REMARK VINA RESULT:      -6.5      3.494      4.592
REMARK  Name = 
REMARK  7 active torsions:
REMARK  status: ('A' for Active; 'I' for Inactive)
REMARK    1  A    between atoms: C_1  and  C_2
REMARK    2  A    between atoms: C_2  and  C_3
REMARK    3  A    between atoms: C_3  and  C_4
REMARK    4  A    between atoms: C_4  and  N_5
REMARK    5  A    between atoms: N_8  and  C_9
REMARK    6  A    between atoms: C_19  and  C_20
REMARK    7  A    between atoms: C_19  and  C_21
REMARK                            x       y       z     vdW  Elec       q    Type
REMARK                         _______ _______ _______ _____ _____    ______ ____
ROOT
ATOM      1  N   UNL     1       4.569   5.389  18.109  0.00  0.00    +0.000 N 
ATOM      2  C   UNL     1       4.738   4.150  18.753  0.00  0.00    +0.000 A 
ATOM      3  O   UNL     1       5.641   3.371  18.426  0.00  0.00    +0.000 OA
ATOM      4  N   UNL     1       3.856   3.822  19.783  0.00  0.00    +0.000 N 
ATOM      5  C   UNL     1       3.999   2.531  20.433  0.00  0.00    +0.000 C 
ATOM      6  C   UNL     1       2.880   4.662  20.312  0.00  0.00    +0.000 A 
ATOM      7  O   UNL     1       2.174   4.356  21.278  0.00  0.00    +0.000 OA
ATOM      8  C   UNL     1       2.754   5.937  19.654  0.00  0.00    +0.000 A 
ATOM      9  C   UNL     1       1.896   7.041  19.953  0.00  0.00    +0.000 A 
ATOM     10  C   UNL     1       2.072   8.082  19.064  0.00  0.00    +0.000 A 
ATOM     11  S   UNL     1       3.259   7.744  17.904  0.00  0.00    +0.000 S 
ATOM     12  C   UNL     1       3.574   6.224  18.591  0.00  0.00    +0.000 A 
ATOM     13  C   UNL     1       1.372   9.400  19.129  0.00  0.00    +0.000 C 
ATOM     14  O   UNL     1       0.285   9.324  20.070  0.00  0.00    +0.000 OA
ATOM     15  C   UNL     1       0.586   8.661  21.321  0.00  0.00    +0.000 C 
ATOM     16  C   UNL     1       1.721   9.383  22.071  0.00  0.00    +0.000 C 
ATOM     17  C   UNL     1      -0.687   8.745  22.172  0.00  0.00    +0.000 C 
ATOM     18  C   UNL     1       0.911   7.167  21.065  0.00  0.00    +0.000 C 
ENDROOT
BRANCH   1  19
ATOM     19  C   UNL     1       5.519   5.761  17.054  0.00  0.00    +0.000 C 
BRANCH  19  20
ATOM     20  C   UNL     1       5.162   5.148  15.699  0.00  0.00    +0.000 C 
BRANCH  20  22
ATOM     21  C   UNL     1       6.045   3.935  13.696  0.00  0.00    +0.000 C 
ATOM     22  C   UNL     1       6.289   4.282  15.155  0.00  0.00    +0.000 C 
ENDBRANCH  20  22
ENDBRANCH  19  20
ENDBRANCH   1  19
TORSDOF 3
ENDMDL
MODEL 5
REMARK VINA RESULT:      -6.3      4.030      6.056
REMARK  Name = 
REMARK  7 active torsions:
REMARK  status: ('A' for Active; 'I' for Inactive)
REMARK    1  A    between atoms: C_1  and  C_2
REMARK    2  A    between atoms: C_2  and  C_3
REMARK    3  A    between atoms: C_3  and  C_4
REMARK    4  A    between atoms: C_4  and  N_5
REMARK    5  A    between atoms: N_8  and  C_9
REMARK    6  A    between atoms: C_19  and  C_20
REMARK    7  A    between atoms: C_19  and  C_21
REMARK                            x       y       z     vdW  Elec       q    Type
REMARK                         _______ _______ _______ _____ _____    ______ ____
ROOT
ATOM      1  N   UNL     1       3.483   4.523  18.705  0.00  0.00    +0.000 N 
ATOM      2  C   UNL     1       4.255   4.363  17.540  0.00  0.00    +0.000 A 
ATOM      3  O   UNL     1       4.679   3.254  17.194  0.00  0.00    +0.000 OA
ATOM      4  N   UNL     1       4.529   5.497  16.776  0.00  0.00    +0.000 N 
ATOM      5  C   UNL     1       5.354   5.350  15.589  0.00  0.00    +0.000 C 
ATOM      6  C   UNL     1       4.014   6.771  17.002  0.00  0.00    +0.000 A 
ATOM      7  O   UNL     1       4.222   7.729  16.251  0.00  0.00    +0.000 OA
ATOM      8  C   UNL     1       3.199   6.895  18.183  0.00  0.00    +0.000 A 
ATOM      9  C   UNL     1       2.490   8.028  18.691  0.00  0.00    +0.000 A 
ATOM     10  C   UNL     1       1.836   7.736  19.871  0.00  0.00    +0.000 A 
ATOM     11  S   UNL     1       2.055   6.125  20.346  0.00  0.00    +0.000 S 
ATOM     12  C   UNL     1       2.995   5.791  18.973  0.00  0.00    +0.000 A 
ATOM     13  C   UNL     1       0.962   8.681  20.629  0.00  0.00    +0.000 C 
ATOM     14  O   UNL     1       1.132  10.015  20.115  0.00  0.00    +0.000 OA
ATOM     15  C   UNL     1       1.152  10.131  18.672  0.00  0.00    +0.000 C 
ATOM     16  C   UNL     1      -0.165   9.624  18.057  0.00  0.00    +0.000 C 
ATOM     17  C   UNL     1       1.289  11.627  18.362  0.00  0.00    +0.000 C 
ATOM     18  C   UNL     1       2.389   9.392  18.099  0.00  0.00    +0.000 C 
ENDROOT
BRANCH   1  19
ATOM     19  C   UNL     1       3.153   3.328  19.491  0.00  0.00    +0.000 C 
BRANCH  19  20
ATOM     20  C   UNL     1       1.826   2.696  19.070  0.00  0.00    +0.000 C 
BRANCH  20  22
ATOM     21  C   UNL     1       1.574   2.657  21.560  0.00  0.00    +0.000 C 
ATOM     22  C   UNL     1       0.843   2.618  20.229  0.00  0.00    +0.000 C 
ENDBRANCH  20  22
ENDBRANCH  19  20
ENDBRANCH   1  19
TORSDOF 3
ENDMDL
MODEL 6
REMARK VINA RESULT:      -6.1      2.913      6.369
REMARK  Name = 
REMARK  7 active torsions:
REMARK  status: ('A' for Active; 'I' for Inactive)
REMARK    1  A    between atoms: C_1  and  C_2
REMARK    2  A    between atoms: C_2  and  C_3
REMARK    3  A    between atoms: C_3  and  C_4
REMARK    4  A    between atoms: C_4  and  N_5
REMARK    5  A    between atoms: N_8  and  C_9
REMARK    6  A    between atoms: C_19  and  C_20
REMARK    7  A    between atoms: C_19  and  C_21
REMARK                            x       y       z     vdW  Elec       q    Type
REMARK                         _______ _______ _______ _____ _____    ______ ____
ROOT
ATOM      1  N   UNL     1       2.448   5.835  19.685  0.00  0.00    +0.000 N 
ATOM      2  C   UNL     1       2.092   7.195  19.650  0.00  0.00    +0.000 A 
ATOM      3  O   UNL     1       1.447   7.717  20.568  0.00  0.00    +0.000 OA
ATOM      4  N   UNL     1       2.492   7.948  18.547  0.00  0.00    +0.000 N 
ATOM      5  C   UNL     1       2.099   9.345  18.483  0.00  0.00    +0.000 C 
ATOM      6  C   UNL     1       3.313   7.502  17.515  0.00  0.00    +0.000 A 
ATOM      7  O   UNL     1       3.705   8.229  16.598  0.00  0.00    +0.000 OA
ATOM      8  C   UNL     1       3.690   6.114  17.597  0.00  0.00    +0.000 A 
ATOM      9  C   UNL     1       4.541   5.345  16.744  0.00  0.00    +0.000 A 
ATOM     10  C   UNL     1       4.633   4.032  17.161  0.00  0.00    +0.000 A 
ATOM     11  S   UNL     1       3.728   3.736  18.562  0.00  0.00    +0.000 S 
ATOM     12  C   UNL     1       3.230   5.357  18.647  0.00  0.00    +0.000 A 
ATOM     13  C   UNL     1       5.483   2.982  16.524  0.00  0.00    +0.000 C 
ATOM     14  O   UNL     1       5.963   3.455  15.251  0.00  0.00    +0.000 OA
ATOM     15  C   UNL     1       6.453   4.817  15.234  0.00  0.00    +0.000 C 
ATOM     16  C   UNL     1       7.637   4.991  16.204  0.00  0.00    +0.000 C 
ATOM     17  C   UNL     1       6.952   5.079  13.808  0.00  0.00    +0.000 C 
ATOM     18  C   UNL     1       5.295   5.801  15.542  0.00  0.00    +0.000 C 
ENDROOT
BRANCH   1  19
ATOM     19  C   UNL     1       2.070   5.046  20.864  0.00  0.00    +0.000 C 
BRANCH  19  20
ATOM     20  C   UNL     1       0.876   4.128  20.597  0.00  0.00    +0.000 C 
BRANCH  20  22
ATOM     21  C   UNL     1       2.472   2.614  21.791  0.00  0.00    +0.000 C 
ATOM     22  C   UNL     1       1.136   2.707  21.075  0.00  0.00    +0.000 C 
ENDBRANCH  20  22
ENDBRANCH  19  20
ENDBRANCH   1  19
TORSDOF 3
ENDMDL
MODEL 7
REMARK VINA RESULT:      -6.1      3.501      5.301
REMARK  Name = 
REMARK  7 active torsions:
REMARK  status: ('A' for Active; 'I' for Inactive)
REMARK    1  A    between atoms: C_1  and  C_2
REMARK    2  A    between atoms: C_2  and  C_3
REMARK    3  A    between atoms: C_3  and  C_4
REMARK    4  A    between atoms: C_4  and  N_5
REMARK    5  A    between atoms: N_8  and  C_9
REMARK    6  A    between atoms: C_19  and  C_20
REMARK    7  A    between atoms: C_19  and  C_21
REMARK                            x       y       z     vdW  Elec       q    Type
REMARK                         _______ _______ _______ _____ _____    ______ ____
ROOT
ATOM      1  N   UNL     1       4.350   4.006  17.936  0.00  0.00    +0.000 N 
ATOM      2  C   UNL     1       5.109   3.985  16.752  0.00  0.00    +0.000 A 
ATOM      3  O   UNL     1       5.593   2.933  16.316  0.00  0.00    +0.000 OA
ATOM      4  N   UNL     1       5.300   5.188  16.075  0.00  0.00    +0.000 N 
ATOM      5  C   UNL     1       6.112   5.184  14.870  0.00  0.00    +0.000 C 
ATOM      6  C   UNL     1       4.713   6.406  16.405  0.00  0.00    +0.000 A 
ATOM      7  O   UNL     1       4.849   7.430  15.728  0.00  0.00    +0.000 OA
ATOM      8  C   UNL     1       3.912   6.389  17.602  0.00  0.00    +0.000 A 
ATOM      9  C   UNL     1       3.145   7.434  18.205  0.00  0.00    +0.000 A 
ATOM     10  C   UNL     1       2.531   7.013  19.367  0.00  0.00    +0.000 A 
ATOM     11  S   UNL     1       2.855   5.387  19.714  0.00  0.00    +0.000 S 
ATOM     12  C   UNL     1       3.790   5.218  18.308  0.00  0.00    +0.000 A 
ATOM     13  C   UNL     1       1.614   7.841  20.208  0.00  0.00    +0.000 C 
ATOM     14  O   UNL     1       1.694   9.219  19.796  0.00  0.00    +0.000 OA
ATOM     15  C   UNL     1       1.682   9.446  18.367  0.00  0.00    +0.000 C 
ATOM     16  C   UNL     1       0.387   8.907  17.731  0.00  0.00    +0.000 C 
ATOM     17  C   UNL     1       1.722  10.966  18.171  0.00  0.00    +0.000 C 
ATOM     18  C   UNL     1       2.951   8.831  17.722  0.00  0.00    +0.000 C 
ENDROOT
BRANCH   1  19
ATOM     19  C   UNL     1       4.107   2.737  18.631  0.00  0.00    +0.000 C 
BRANCH  19  20
ATOM     20  C   UNL     1       2.863   2.013  18.114  0.00  0.00    +0.000 C 
BRANCH  20  22
ATOM     21  C   UNL     1       0.532   2.627  18.788  0.00  0.00    +0.000 C 
ATOM     22  C   UNL     1       1.794   1.884  19.189  0.00  0.00    +0.000 C 
ENDBRANCH  20  22
ENDBRANCH  19  20
ENDBRANCH   1  19
TORSDOF 3
ENDMDL
MODEL 8
REMARK VINA RESULT:      -6.1      2.047      4.204
REMARK  Name = 
REMARK  7 active torsions:
REMARK  status: ('A' for Active; 'I' for Inactive)
REMARK    1  A    between atoms: C_1  and  C_2
REMARK    2  A    between atoms: C_2  and  C_3
REMARK    3  A    between atoms: C_3  and  C_4
REMARK    4  A    between atoms: C_4  and  N_5
REMARK    5  A    between atoms: N_8  and  C_9
REMARK    6  A    between atoms: C_19  and  C_20
REMARK    7  A    between atoms: C_19  and  C_21
REMARK                            x       y       z     vdW  Elec       q    Type
REMARK                         _______ _______ _______ _____ _____    ______ ____
ROOT
ATOM      1  N   UNL     1       6.688   5.846  17.096  0.00  0.00    +0.000 N 
ATOM      2  C   UNL     1       6.940   5.391  15.790  0.00  0.00    +0.000 A 
ATOM      3  O   UNL     1       8.006   5.642  15.214  0.00  0.00    +0.000 OA
ATOM      4  N   UNL     1       5.952   4.640  15.156  0.00  0.00    +0.000 N 
ATOM      5  C   UNL     1       6.187   4.194  13.793  0.00  0.00    +0.000 C 
ATOM      6  C   UNL     1       4.767   4.200  15.741  0.00  0.00    +0.000 A 
ATOM      7  O   UNL     1       3.957   3.469  15.164  0.00  0.00    +0.000 OA
ATOM      8  C   UNL     1       4.553   4.653  17.091  0.00  0.00    +0.000 A 
ATOM      9  C   UNL     1       3.482   4.367  17.994  0.00  0.00    +0.000 A 
ATOM     10  C   UNL     1       3.641   5.018  19.201  0.00  0.00    +0.000 A 
ATOM     11  S   UNL     1       5.062   5.938  19.253  0.00  0.00    +0.000 S 
ATOM     12  C   UNL     1       5.496   5.457  17.684  0.00  0.00    +0.000 A 
ATOM     13  C   UNL     1       2.730   4.888  20.378  0.00  0.00    +0.000 C 
ATOM     14  O   UNL     1       1.516   4.224  19.978  0.00  0.00    +0.000 OA
ATOM     15  C   UNL     1       1.688   3.063  19.132  0.00  0.00    +0.000 C 
ATOM     16  C   UNL     1       2.528   1.982  19.838  0.00  0.00    +0.000 C 
ATOM     17  C   UNL     1       0.284   2.499  18.882  0.00  0.00    +0.000 C 
ATOM     18  C   UNL     1       2.301   3.485  17.772  0.00  0.00    +0.000 C 
ENDROOT
BRANCH   1  19
ATOM     19  C   UNL     1       7.741   6.601  17.787  0.00  0.00    +0.000 C 
BRANCH  19  20
ATOM     20  C   UNL     1       7.646   8.106  17.534  0.00  0.00    +0.000 C 
BRANCH  20  22
ATOM     21  C   UNL     1       8.735  10.309  18.011  0.00  0.00    +0.000 C 
ATOM     22  C   UNL     1       8.489   8.900  18.522  0.00  0.00    +0.000 C 
ENDBRANCH  20  22
ENDBRANCH  19  20
ENDBRANCH   1  19
TORSDOF 3
ENDMDL
MODEL 9
REMARK VINA RESULT:      -5.9      4.647      7.354
REMARK  Name = 
REMARK  7 active torsions:
REMARK  status: ('A' for Active; 'I' for Inactive)
REMARK    1  A    between atoms: C_1  and  C_2
REMARK    2  A    between atoms: C_2  and  C_3
REMARK    3  A    between atoms: C_3  and  C_4
REMARK    4  A    between atoms: C_4  and  N_5
REMARK    5  A    between atoms: N_8  and  C_9
REMARK    6  A    between atoms: C_19  and  C_20
REMARK    7  A    between atoms: C_19  and  C_21
REMARK                            x       y       z     vdW  Elec       q    Type
REMARK                         _______ _______ _______ _____ _____    ______ ____
ROOT
ATOM      1  N   UNL     1       1.461   8.196  20.540  0.00  0.00    +0.000 N 
ATOM      2  C   UNL     1       1.408   9.404  19.822  0.00  0.00    +0.000 A 
ATOM      3  O   UNL     1       0.926  10.429  20.319  0.00  0.00    +0.000 OA
ATOM      4  N   UNL     1       1.922   9.419  18.526  0.00  0.00    +0.000 N 
ATOM      5  C   UNL     1       1.842  10.652  17.762  0.00  0.00    +0.000 C 
ATOM      6  C   UNL     1       2.589   8.365  17.906  0.00  0.00    +0.000 A 
ATOM      7  O   UNL     1       3.097   8.451  16.784  0.00  0.00    +0.000 OA
ATOM      8  C   UNL     1       2.657   7.152  18.680  0.00  0.00    +0.000 A 
ATOM      9  C   UNL     1       3.289   5.907  18.375  0.00  0.00    +0.000 A 
ATOM     10  C   UNL     1       3.108   4.980  19.382  0.00  0.00    +0.000 A 
ATOM     11  S   UNL     1       2.211   5.603  20.677  0.00  0.00    +0.000 S 
ATOM     12  C   UNL     1       2.082   7.121  19.926  0.00  0.00    +0.000 A 
ATOM     13  C   UNL     1       3.686   3.603  19.402  0.00  0.00    +0.000 C 
ATOM     14  O   UNL     1       4.211   3.280  18.100  0.00  0.00    +0.000 OA
ATOM     15  C   UNL     1       4.985   4.324  17.462  0.00  0.00    +0.000 C 
ATOM     16  C   UNL     1       6.212   4.701  18.312  0.00  0.00    +0.000 C 
ATOM     17  C   UNL     1       5.477   3.743  16.131  0.00  0.00    +0.000 C 
ATOM     18  C   UNL     1       4.081   5.547  17.164  0.00  0.00    +0.000 C 
ENDROOT
BRANCH   1  19
ATOM     19  C   UNL     1       0.962   8.184  21.920  0.00  0.00    +0.000 C 
BRANCH  19  20
ATOM     20  C   UNL     1      -0.390   8.885  22.062  0.00  0.00    +0.000 C 
BRANCH  20  22
ATOM     21  C   UNL     1      -1.303  10.987  23.067  0.00  0.00    +0.000 C 
ATOM     22  C   UNL     1      -0.448   9.755  23.309  0.00  0.00    +0.000 C 
ENDBRANCH  20  22
ENDBRANCH  19  20
ENDBRANCH   1  19
TORSDOF 3
ENDMDL
