MODEL 1
REMARK VINA RESULT:      -7.2      0.000      0.000
REMARK  Name = 
REMARK  7 active torsions:
REMARK  status: ('A' for Active; 'I' for Inactive)
REMARK    1  A    between atoms: C_2  and  C_21
REMARK    2  A    between atoms: N_3  and  C_4
REMARK    3  A    between atoms: C_7  and  C_8
REMARK    4  A    between atoms: C_8  and  C_9
REMARK    5  A    between atoms: C_9  and  N_10
REMARK    6  A    between atoms: N_10  and  C_11
REMARK    7  A    between atoms: C_11  and  C_12
REMARK                            x       y       z     vdW  Elec       q    Type
REMARK                         _______ _______ _______ _____ _____    ______ ____
ROOT
ATOM      1  C   UNL     1       1.039   9.012  19.953  0.00  0.00    +0.000 A 
ATOM      2  C   UNL     1       1.744   7.835  20.226  0.00  0.00    +0.000 A 
ATOM      3  C   UNL     1       2.596   7.271  19.273  0.00  0.00    +0.000 A 
ATOM      4  C   UNL     1       2.738   7.853  18.008  0.00  0.00    +0.000 A 
ATOM      5  C   UNL     1       2.050   9.040  17.736  0.00  0.00    +0.000 A 
ATOM      6  C   UNL     1       1.214   9.616  18.703  0.00  0.00    +0.000 A 
ENDROOT
BRANCH   1   9
ATOM      7  N   UNL     1       1.181  11.569  21.521  0.00  0.00    +0.000 NA
ATOM      8  C   UNL     1       0.111  10.848  21.355  0.00  0.00    +0.000 C 
ATOM      9  N   UNL     1       0.192   9.532  20.956  0.00  0.00    +0.000 N 
ATOM     10  H   UNL     1       1.985  10.964  21.326  0.00  0.00    +0.000 HD
ATOM     11  H   UNL     1      -0.698   9.042  20.964  0.00  0.00    +0.000 HD
BRANCH   8  12
ATOM     12  C   UNL     1      -1.154  11.506  21.672  0.00  0.00    +0.000 A 
ATOM     13  C   UNL     1      -1.783  11.607  22.899  0.00  0.00    +0.000 A 
ATOM     14  C   UNL     1      -3.003  12.337  22.834  0.00  0.00    +0.000 A 
ATOM     15  C   UNL     1      -3.274  12.771  21.556  0.00  0.00    +0.000 A 
ATOM     16  S   UNL     1      -2.063  12.292  20.447  0.00  0.00    +0.000 S 
ENDBRANCH   8  12
ENDBRANCH   1   9
BRANCH   4  17
ATOM     17  C   UNL     1       3.609   7.202  16.956  0.00  0.00    +0.000 C 
BRANCH  17  18
ATOM     18  C   UNL     1       4.720   6.351  17.593  0.00  0.00    +0.000 C 
BRANCH  18  19
ATOM     19  N   UNL     1       4.994   5.139  16.816  0.00  0.00    +0.000 NA
ATOM     20  H   UNL     1       5.915   5.206  16.383  0.00  0.00    +0.000 HD
BRANCH  19  21
ATOM     21  C   UNL     1       4.970   3.964  17.690  0.00  0.00    +0.000 C 
BRANCH  21  22
ATOM     22  C   UNL     1       3.617   3.782  18.334  0.00  0.00    +0.000 A 
ATOM     23  C   UNL     1       2.451   3.814  17.554  0.00  0.00    +0.000 A 
ATOM     24  C   UNL     1       1.194   3.669  18.146  0.00  0.00    +0.000 A 
ATOM     25  C   UNL     1       1.091   3.492  19.526  0.00  0.00    +0.000 A 
ATOM     26  C   UNL     1       2.244   3.460  20.307  0.00  0.00    +0.000 A 
ATOM     27 CL   UNL     1       2.117   3.245  22.010  0.00  0.00    +0.000 Cl
ATOM     28  C   UNL     1       3.502   3.605  19.721  0.00  0.00    +0.000 A 
ENDBRANCH  21  22
ENDBRANCH  19  21
ENDBRANCH  18  19
ENDBRANCH  17  18
ENDBRANCH   4  17
TORSDOF 7
ENDMDL
MODEL 2
REMARK VINA RESULT:      -7.1      3.267      4.543
REMARK  Name = 
REMARK  7 active torsions:
REMARK  status: ('A' for Active; 'I' for Inactive)
REMARK    1  A    between atoms: C_2  and  C_21
REMARK    2  A    between atoms: N_3  and  C_4
REMARK    3  A    between atoms: C_7  and  C_8
REMARK    4  A    between atoms: C_8  and  C_9
REMARK    5  A    between atoms: C_9  and  N_10
REMARK    6  A    between atoms: N_10  and  C_11
REMARK    7  A    between atoms: C_11  and  C_12
REMARK                            x       y       z     vdW  Elec       q    Type
REMARK                         _______ _______ _______ _____ _____    ______ ____
ROOT
ATOM      1  C   UNL     1       2.179   7.623  18.681  0.00  0.00    +0.000 A 
ATOM      2  C   UNL     1       2.054   6.632  17.701  0.00  0.00    +0.000 A 
ATOM      3  C   UNL     1       1.836   5.298  18.053  0.00  0.00    +0.000 A 
ATOM      4  C   UNL     1       1.772   4.915  19.398  0.00  0.00    +0.000 A 
ATOM      5  C   UNL     1       1.878   5.904  20.381  0.00  0.00    +0.000 A 
ATOM      6  C   UNL     1       2.073   7.245  20.024  0.00  0.00    +0.000 A 
ENDROOT
BRANCH   1   9
ATOM      7  N   UNL     1       0.257   9.762  17.815  0.00  0.00    +0.000 NA
ATOM      8  C   UNL     1       1.469   9.969  18.240  0.00  0.00    +0.000 C 
ATOM      9  N   UNL     1       2.400   8.953  18.262  0.00  0.00    +0.000 N 
ATOM     10  H   UNL     1       0.204   8.781  17.519  0.00  0.00    +0.000 HD
ATOM     11  H   UNL     1       3.337   9.258  18.511  0.00  0.00    +0.000 HD
BRANCH   8  12
ATOM     12  C   UNL     1       1.780  11.341  18.631  0.00  0.00    +0.000 A 
ATOM     13  C   UNL     1       2.569  12.262  17.967  0.00  0.00    +0.000 A 
ATOM     14  C   UNL     1       2.636  13.515  18.639  0.00  0.00    +0.000 A 
ATOM     15  C   UNL     1       1.899  13.514  19.801  0.00  0.00    +0.000 A 
ATOM     16  S   UNL     1       1.137  12.007  20.076  0.00  0.00    +0.000 S 
ENDBRANCH   8  12
ENDBRANCH   1   9
BRANCH   4  17
ATOM     17  C   UNL     1       1.604   3.460  19.775  0.00  0.00    +0.000 C 
BRANCH  17  18
ATOM     18  C   UNL     1       2.926   2.851  20.269  0.00  0.00    +0.000 C 
BRANCH  18  19
ATOM     19  N   UNL     1       3.852   2.585  19.164  0.00  0.00    +0.000 NA
ATOM     20  H   UNL     1       3.416   2.837  18.278  0.00  0.00    +0.000 HD
BRANCH  19  21
ATOM     21  C   UNL     1       5.073   3.376  19.330  0.00  0.00    +0.000 C 
BRANCH  21  22
ATOM     22  C   UNL     1       5.261   4.347  18.189  0.00  0.00    +0.000 A 
ATOM     23  C   UNL     1       5.437   5.716  18.445  0.00  0.00    +0.000 A 
ATOM     24  C   UNL     1       5.589   6.623  17.394  0.00  0.00    +0.000 A 
ATOM     25  C   UNL     1       5.565   6.170  16.075  0.00  0.00    +0.000 A 
ATOM     26  C   UNL     1       5.391   4.813  15.813  0.00  0.00    +0.000 A 
ATOM     27 CL   UNL     1       5.358   4.254  14.186  0.00  0.00    +0.000 Cl
ATOM     28  C   UNL     1       5.238   3.903  16.859  0.00  0.00    +0.000 A 
ENDBRANCH  21  22
ENDBRANCH  19  21
ENDBRANCH  18  19
ENDBRANCH  17  18
ENDBRANCH   4  17
TORSDOF 7
ENDMDL
MODEL 3
REMARK VINA RESULT:      -7.0      2.392      3.890
REMARK  Name = 
REMARK  7 active torsions:
REMARK  status: ('A' for Active; 'I' for Inactive)
REMARK    1  A    between atoms: C_2  and  C_21
REMARK    2  A    between atoms: N_3  and  C_4
REMARK    3  A    between atoms: C_7  and  C_8
REMARK    4  A    between atoms: C_8  and  C_9
REMARK    5  A    between atoms: C_9  and  N_10
REMARK    6  A    between atoms: N_10  and  C_11
REMARK    7  A    between atoms: C_11  and  C_12
REMARK                            x       y       z     vdW  Elec       q    Type
REMARK                         _______ _______ _______ _____ _____    ______ ____
ROOT
ATOM      1  C   UNL     1       1.821   6.829  20.201  0.00  0.00    +0.000 A 
ATOM      2  C   UNL     1       1.364   5.687  20.869  0.00  0.00    +0.000 A 
ATOM      3  C   UNL     1       1.400   4.433  20.254  0.00  0.00    +0.000 A 
ATOM      4  C   UNL     1       1.864   4.294  18.941  0.00  0.00    +0.000 A 
ATOM      5  C   UNL     1       2.339   5.429  18.275  0.00  0.00    +0.000 A 
ATOM      6  C   UNL     1       2.323   6.682  18.902  0.00  0.00    +0.000 A 
ENDROOT
BRANCH   1   9
ATOM      7  N   UNL     1       1.175   9.584  19.199  0.00  0.00    +0.000 NA
ATOM      8  C   UNL     1       1.104   9.201  20.439  0.00  0.00    +0.000 C 
ATOM      9  N   UNL     1       1.756   8.068  20.874  0.00  0.00    +0.000 N 
ATOM     10  H   UNL     1       1.784   8.919  18.711  0.00  0.00    +0.000 HD
ATOM     11  H   UNL     1       1.716   7.929  21.880  0.00  0.00    +0.000 HD
BRANCH   8  12
ATOM     12  C   UNL     1       0.344  10.073  21.332  0.00  0.00    +0.000 A 
ATOM     13  C   UNL     1       0.117  11.432  21.211  0.00  0.00    +0.000 A 
ATOM     14  C   UNL     1      -0.684  11.951  22.267  0.00  0.00    +0.000 A 
ATOM     15  C   UNL     1      -1.043  10.974  23.167  0.00  0.00    +0.000 A 
ATOM     16  S   UNL     1      -0.410   9.444  22.738  0.00  0.00    +0.000 S 
ENDBRANCH   8  12
ENDBRANCH   1   9
BRANCH   4  17
ATOM     17  C   UNL     1       1.838   2.945  18.255  0.00  0.00    +0.000 C 
BRANCH  17  18
ATOM     18  C   UNL     1       2.855   1.977  18.882  0.00  0.00    +0.000 C 
BRANCH  18  19
ATOM     19  N   UNL     1       4.221   2.250  18.426  0.00  0.00    +0.000 NA
ATOM     20  H   UNL     1       4.763   1.386  18.418  0.00  0.00    +0.000 HD
BRANCH  19  21
ATOM     21  C   UNL     1       4.198   2.804  17.071  0.00  0.00    +0.000 C 
BRANCH  21  22
ATOM     22  C   UNL     1       5.232   3.891  16.901  0.00  0.00    +0.000 A 
ATOM     23  C   UNL     1       5.511   4.411  15.628  0.00  0.00    +0.000 A 
ATOM     24  C   UNL     1       6.481   5.402  15.460  0.00  0.00    +0.000 A 
ATOM     25  C   UNL     1       7.185   5.881  16.565  0.00  0.00    +0.000 A 
ATOM     26  C   UNL     1       6.914   5.369  17.832  0.00  0.00    +0.000 A 
ATOM     27 CL   UNL     1       7.784   5.957  19.195  0.00  0.00    +0.000 Cl
ATOM     28  C   UNL     1       5.945   4.380  18.005  0.00  0.00    +0.000 A 
ENDBRANCH  21  22
ENDBRANCH  19  21
ENDBRANCH  18  19
ENDBRANCH  17  18
ENDBRANCH   4  17
TORSDOF 7
ENDMDL
MODEL 4
REMARK VINA RESULT:      -6.9      2.360      3.954
REMARK  Name = 
REMARK  7 active torsions:
REMARK  status: ('A' for Active; 'I' for Inactive)
REMARK    1  A    between atoms: C_2  and  C_21
REMARK    2  A    between atoms: N_3  and  C_4
REMARK    3  A    between atoms: C_7  and  C_8
REMARK    4  A    between atoms: C_8  and  C_9
REMARK    5  A    between atoms: C_9  and  N_10
REMARK    6  A    between atoms: N_10  and  C_11
REMARK    7  A    between atoms: C_11  and  C_12
REMARK                            x       y       z     vdW  Elec       q    Type
REMARK                         _______ _______ _______ _____ _____    ______ ____
ROOT
ATOM      1  C   UNL     1       1.882   6.354  20.256  0.00  0.00    +0.000 A 
ATOM      2  C   UNL     1       1.533   5.193  20.953  0.00  0.00    +0.000 A 
ATOM      3  C   UNL     1       1.577   3.942  20.333  0.00  0.00    +0.000 A 
ATOM      4  C   UNL     1       1.938   3.825  18.986  0.00  0.00    +0.000 A 
ATOM      5  C   UNL     1       2.305   4.981  18.288  0.00  0.00    +0.000 A 
ATOM      6  C   UNL     1       2.283   6.231  18.920  0.00  0.00    +0.000 A 
ENDROOT
BRANCH   1   9
ATOM      7  N   UNL     1       1.289   9.125  19.261  0.00  0.00    +0.000 NA
ATOM      8  C   UNL     1       1.185   8.732  20.497  0.00  0.00    +0.000 C 
ATOM      9  N   UNL     1       1.816   7.589  20.937  0.00  0.00    +0.000 N 
ATOM     10  H   UNL     1       1.902   8.456  18.782  0.00  0.00    +0.000 HD
ATOM     11  H   UNL     1       1.751   7.443  21.941  0.00  0.00    +0.000 HD
BRANCH   8  12
ATOM     12  C   UNL     1       0.416   9.606  21.378  0.00  0.00    +0.000 A 
ATOM     13  C   UNL     1      -0.056   9.339  22.650  0.00  0.00    +0.000 A 
ATOM     14  C   UNL     1      -0.759  10.437  23.219  0.00  0.00    +0.000 A 
ATOM     15  C   UNL     1      -0.808  11.514  22.363  0.00  0.00    +0.000 A 
ATOM     16  S   UNL     1      -0.014  11.191  20.882  0.00  0.00    +0.000 S 
ENDBRANCH   8  12
ENDBRANCH   1   9
BRANCH   4  17
ATOM     17  C   UNL     1       1.919   2.477  18.299  0.00  0.00    +0.000 C 
BRANCH  17  18
ATOM     18  C   UNL     1       2.914   2.428  17.128  0.00  0.00    +0.000 C 
BRANCH  18  19
ATOM     19  N   UNL     1       4.304   2.446  17.591  0.00  0.00    +0.000 NA
ATOM     20  H   UNL     1       4.602   1.501  17.834  0.00  0.00    +0.000 HD
BRANCH  19  21
ATOM     21  C   UNL     1       5.180   2.957  16.534  0.00  0.00    +0.000 C 
BRANCH  21  22
ATOM     22  C   UNL     1       5.576   4.391  16.790  0.00  0.00    +0.000 A 
ATOM     23  C   UNL     1       4.971   5.432  16.070  0.00  0.00    +0.000 A 
ATOM     24  C   UNL     1       5.349   6.760  16.286  0.00  0.00    +0.000 A 
ATOM     25  C   UNL     1       6.337   7.060  17.223  0.00  0.00    +0.000 A 
ATOM     26  C   UNL     1       6.942   6.031  17.942  0.00  0.00    +0.000 A 
ATOM     27 CL   UNL     1       8.164   6.399  19.096  0.00  0.00    +0.000 Cl
ATOM     28  C   UNL     1       6.569   4.703  17.730  0.00  0.00    +0.000 A 
ENDBRANCH  21  22
ENDBRANCH  19  21
ENDBRANCH  18  19
ENDBRANCH  17  18
ENDBRANCH   4  17
TORSDOF 7
ENDMDL
MODEL 5
REMARK VINA RESULT:      -6.9      2.385      3.904
REMARK  Name = 
REMARK  7 active torsions:
REMARK  status: ('A' for Active; 'I' for Inactive)
REMARK    1  A    between atoms: C_2  and  C_21
REMARK    2  A    between atoms: N_3  and  C_4
REMARK    3  A    between atoms: C_7  and  C_8
REMARK    4  A    between atoms: C_8  and  C_9
REMARK    5  A    between atoms: C_9  and  N_10
REMARK    6  A    between atoms: N_10  and  C_11
REMARK    7  A    between atoms: C_11  and  C_12
REMARK                            x       y       z     vdW  Elec       q    Type
REMARK                         _______ _______ _______ _____ _____    ______ ____
ROOT
ATOM      1  C   UNL     1       1.824   6.898  19.777  0.00  0.00    +0.000 A 
ATOM      2  C   UNL     1       1.473   5.787  20.552  0.00  0.00    +0.000 A 
ATOM      3  C   UNL     1       1.536   4.495  20.024  0.00  0.00    +0.000 A 
ATOM      4  C   UNL     1       1.921   4.284  18.695  0.00  0.00    +0.000 A 
ATOM      5  C   UNL     1       2.290   5.390  17.921  0.00  0.00    +0.000 A 
ATOM      6  C   UNL     1       2.248   6.682  18.461  0.00  0.00    +0.000 A 
ENDROOT
BRANCH   1   9
ATOM      7  N   UNL     1       1.015   9.548  18.621  0.00  0.00    +0.000 NA
ATOM      8  C   UNL     1       1.018   9.251  19.887  0.00  0.00    +0.000 C 
ATOM      9  N   UNL     1       1.738   8.178  20.367  0.00  0.00    +0.000 N 
ATOM     10  H   UNL     1       1.629   8.875  18.152  0.00  0.00    +0.000 HD
ATOM     11  H   UNL     1       1.750   8.109  21.381  0.00  0.00    +0.000 HD
BRANCH   8  12
ATOM     12  C   UNL     1       0.263  10.153  20.754  0.00  0.00    +0.000 A 
ATOM     13  C   UNL     1       0.124  10.102  22.129  0.00  0.00    +0.000 A 
ATOM     14  C   UNL     1      -0.678  11.161  22.640  0.00  0.00    +0.000 A 
ATOM     15  C   UNL     1      -1.132  11.990  21.640  0.00  0.00    +0.000 A 
ATOM     16  S   UNL     1      -0.595  11.484  20.096  0.00  0.00    +0.000 S 
ENDBRANCH   8  12
ENDBRANCH   1   9
BRANCH   4  17
ATOM     17  C   UNL     1       1.923   2.890  18.107  0.00  0.00    +0.000 C 
BRANCH  17  18
ATOM     18  C   UNL     1       2.966   1.993  18.793  0.00  0.00    +0.000 C 
BRANCH  18  19
ATOM     19  N   UNL     1       4.327   2.290  18.338  0.00  0.00    +0.000 NA
ATOM     20  H   UNL     1       4.315   2.539  17.349  0.00  0.00    +0.000 HD
BRANCH  19  21
ATOM     21  C   UNL     1       4.878   3.412  19.100  0.00  0.00    +0.000 C 
BRANCH  21  22
ATOM     22  C   UNL     1       5.660   4.351  18.213  0.00  0.00    +0.000 A 
ATOM     23  C   UNL     1       5.565   4.250  16.816  0.00  0.00    +0.000 A 
ATOM     24  C   UNL     1       6.302   5.101  15.989  0.00  0.00    +0.000 A 
ATOM     25  C   UNL     1       7.145   6.060  16.551  0.00  0.00    +0.000 A 
ATOM     26  C   UNL     1       7.245   6.166  17.937  0.00  0.00    +0.000 A 
ATOM     27 CL   UNL     1       8.286   7.347  18.631  0.00  0.00    +0.000 Cl
ATOM     28  C   UNL     1       6.510   5.319  18.767  0.00  0.00    +0.000 A 
ENDBRANCH  21  22
ENDBRANCH  19  21
ENDBRANCH  18  19
ENDBRANCH  17  18
ENDBRANCH   4  17
TORSDOF 7
ENDMDL
MODEL 6
REMARK VINA RESULT:      -6.9      2.904      4.068
REMARK  Name = 
REMARK  7 active torsions:
REMARK  status: ('A' for Active; 'I' for Inactive)
REMARK    1  A    between atoms: C_2  and  C_21
REMARK    2  A    between atoms: N_3  and  C_4
REMARK    3  A    between atoms: C_7  and  C_8
REMARK    4  A    between atoms: C_8  and  C_9
REMARK    5  A    between atoms: C_9  and  N_10
REMARK    6  A    between atoms: N_10  and  C_11
REMARK    7  A    between atoms: C_11  and  C_12
REMARK                            x       y       z     vdW  Elec       q    Type
REMARK                         _______ _______ _______ _____ _____    ______ ____
ROOT
ATOM      1  C   UNL     1       1.442   9.324  18.747  0.00  0.00    +0.000 A 
ATOM      2  C   UNL     1       1.269   8.928  20.078  0.00  0.00    +0.000 A 
ATOM      3  C   UNL     1       1.701   7.674  20.516  0.00  0.00    +0.000 A 
ATOM      4  C   UNL     1       2.287   6.769  19.623  0.00  0.00    +0.000 A 
ATOM      5  C   UNL     1       2.479   7.166  18.295  0.00  0.00    +0.000 A 
ATOM      6  C   UNL     1       2.066   8.434  17.865  0.00  0.00    +0.000 A 
ENDROOT
BRANCH   1   9
ATOM      7  N   UNL     1      -1.339  10.436  18.535  0.00  0.00    +0.000 NA
ATOM      8  C   UNL     1      -0.254  11.145  18.645  0.00  0.00    +0.000 C 
ATOM      9  N   UNL     1       0.982  10.603  18.366  0.00  0.00    +0.000 N 
ATOM     10  H   UNL     1      -1.061   9.506  18.205  0.00  0.00    +0.000 HD
ATOM     11  H   UNL     1       1.742  11.279  18.383  0.00  0.00    +0.000 HD
BRANCH   8  12
ATOM     12  C   UNL     1      -0.443  12.543  19.024  0.00  0.00    +0.000 A 
ATOM     13  C   UNL     1       0.181  13.662  18.504  0.00  0.00    +0.000 A 
ATOM     14  C   UNL     1      -0.264  14.871  19.109  0.00  0.00    +0.000 A 
ATOM     15  C   UNL     1      -1.215  14.640  20.078  0.00  0.00    +0.000 A 
ATOM     16  S   UNL     1      -1.558  12.973  20.254  0.00  0.00    +0.000 S 
ENDBRANCH   8  12
ENDBRANCH   1   9
BRANCH   4  17
ATOM     17  C   UNL     1       2.692   5.386  20.086  0.00  0.00    +0.000 C 
BRANCH  17  18
ATOM     18  C   UNL     1       1.993   4.291  19.262  0.00  0.00    +0.000 C 
BRANCH  18  19
ATOM     19  N   UNL     1       2.953   3.355  18.672  0.00  0.00    +0.000 NA
ATOM     20  H   UNL     1       2.586   2.405  18.718  0.00  0.00    +0.000 HD
BRANCH  19  21
ATOM     21  C   UNL     1       3.193   3.699  17.268  0.00  0.00    +0.000 C 
BRANCH  21  22
ATOM     22  C   UNL     1       4.633   4.083  17.031  0.00  0.00    +0.000 A 
ATOM     23  C   UNL     1       5.491   4.321  18.116  0.00  0.00    +0.000 A 
ATOM     24  C   UNL     1       6.819   4.699  17.904  0.00  0.00    +0.000 A 
ATOM     25  C   UNL     1       7.302   4.845  16.605  0.00  0.00    +0.000 A 
ATOM     26  C   UNL     1       6.457   4.611  15.522  0.00  0.00    +0.000 A 
ATOM     27 CL   UNL     1       7.051   4.794  13.918  0.00  0.00    +0.000 Cl
ATOM     28  C   UNL     1       5.129   4.233  15.728  0.00  0.00    +0.000 A 
ENDBRANCH  21  22
ENDBRANCH  19  21
ENDBRANCH  18  19
ENDBRANCH  17  18
ENDBRANCH   4  17
TORSDOF 7
ENDMDL
MODEL 7
REMARK VINA RESULT:      -6.8      2.193      3.820
REMARK  Name = 
REMARK  7 active torsions:
REMARK  status: ('A' for Active; 'I' for Inactive)
REMARK    1  A    between atoms: C_2  and  C_21
REMARK    2  A    between atoms: N_3  and  C_4
REMARK    3  A    between atoms: C_7  and  C_8
REMARK    4  A    between atoms: C_8  and  C_9
REMARK    5  A    between atoms: C_9  and  N_10
REMARK    6  A    between atoms: N_10  and  C_11
REMARK    7  A    between atoms: C_11  and  C_12
REMARK                            x       y       z     vdW  Elec       q    Type
REMARK                         _______ _______ _______ _____ _____    ______ ____
ROOT
ATOM      1  C   UNL     1       1.868   7.085  20.133  0.00  0.00    +0.000 A 
ATOM      2  C   UNL     1       2.353   7.288  18.837  0.00  0.00    +0.000 A 
ATOM      3  C   UNL     1       2.568   6.211  17.973  0.00  0.00    +0.000 A 
ATOM      4  C   UNL     1       2.334   4.898  18.398  0.00  0.00    +0.000 A 
ATOM      5  C   UNL     1       1.832   4.690  19.686  0.00  0.00    +0.000 A 
ATOM      6  C   UNL     1       1.595   5.774  20.542  0.00  0.00    +0.000 A 
ENDROOT
BRANCH   1   9
ATOM      7  N   UNL     1       1.216   9.936  19.451  0.00  0.00    +0.000 NA
ATOM      8  C   UNL     1       1.024   9.378  20.611  0.00  0.00    +0.000 C 
ATOM      9  N   UNL     1       1.674   8.214  20.958  0.00  0.00    +0.000 N 
ATOM     10  H   UNL     1       1.904   9.364  18.952  0.00  0.00    +0.000 HD
ATOM     11  H   UNL     1       1.528   7.932  21.924  0.00  0.00    +0.000 HD
BRANCH   8  12
ATOM     12  C   UNL     1       0.132  10.093  21.520  0.00  0.00    +0.000 A 
ATOM     13  C   UNL     1      -0.372   9.668  22.735  0.00  0.00    +0.000 A 
ATOM     14  C   UNL     1      -1.204  10.640  23.357  0.00  0.00    +0.000 A 
ATOM     15  C   UNL     1      -1.316  11.782  22.596  0.00  0.00    +0.000 A 
ATOM     16  S   UNL     1      -0.425  11.671  21.140  0.00  0.00    +0.000 S 
ENDBRANCH   8  12
ENDBRANCH   1   9
BRANCH   4  17
ATOM     17  C   UNL     1       2.632   3.730  17.483  0.00  0.00    +0.000 C 
BRANCH  17  18
ATOM     18  C   UNL     1       3.744   2.836  18.056  0.00  0.00    +0.000 C 
BRANCH  18  19
ATOM     19  N   UNL     1       4.936   2.833  17.205  0.00  0.00    +0.000 NA
ATOM     20  H   UNL     1       4.908   2.036  16.570  0.00  0.00    +0.000 HD
BRANCH  19  21
ATOM     21  C   UNL     1       4.991   4.063  16.411  0.00  0.00    +0.000 C 
BRANCH  21  22
ATOM     22  C   UNL     1       5.913   5.082  17.036  0.00  0.00    +0.000 A 
ATOM     23  C   UNL     1       6.029   6.367  16.483  0.00  0.00    +0.000 A 
ATOM     24  C   UNL     1       6.897   7.307  17.042  0.00  0.00    +0.000 A 
ATOM     25  C   UNL     1       7.659   6.973  18.161  0.00  0.00    +0.000 A 
ATOM     26  C   UNL     1       7.550   5.700  18.716  0.00  0.00    +0.000 A 
ATOM     27 CL   UNL     1       8.492   5.284  20.095  0.00  0.00    +0.000 Cl
ATOM     28  C   UNL     1       6.684   4.756  18.161  0.00  0.00    +0.000 A 
ENDBRANCH  21  22
ENDBRANCH  19  21
ENDBRANCH  18  19
ENDBRANCH  17  18
ENDBRANCH   4  17
TORSDOF 7
ENDMDL
MODEL 8
REMARK VINA RESULT:      -6.8      2.752      3.864
REMARK  Name = 
REMARK  7 active torsions:
REMARK  status: ('A' for Active; 'I' for Inactive)
REMARK    1  A    between atoms: C_2  and  C_21
REMARK    2  A    between atoms: N_3  and  C_4
REMARK    3  A    between atoms: C_7  and  C_8
REMARK    4  A    between atoms: C_8  and  C_9
REMARK    5  A    between atoms: C_9  and  N_10
REMARK    6  A    between atoms: N_10  and  C_11
REMARK    7  A    between atoms: C_11  and  C_12
REMARK                            x       y       z     vdW  Elec       q    Type
REMARK                         _______ _______ _______ _____ _____    ______ ____
ROOT
ATOM      1  C   UNL     1       1.778   8.853  18.887  0.00  0.00    +0.000 A 
ATOM      2  C   UNL     1       1.517   8.473  20.208  0.00  0.00    +0.000 A 
ATOM      3  C   UNL     1       1.740   7.162  20.636  0.00  0.00    +0.000 A 
ATOM      4  C   UNL     1       2.198   6.187  19.741  0.00  0.00    +0.000 A 
ATOM      5  C   UNL     1       2.478   6.566  18.424  0.00  0.00    +0.000 A 
ATOM      6  C   UNL     1       2.276   7.888  18.004  0.00  0.00    +0.000 A 
ENDROOT
BRANCH   1   9
ATOM      7  N   UNL     1      -0.715  10.190  17.879  0.00  0.00    +0.000 NA
ATOM      8  C   UNL     1       0.297  10.800  18.423  0.00  0.00    +0.000 C 
ATOM      9  N   UNL     1       1.530  10.193  18.516  0.00  0.00    +0.000 N 
ATOM     10  H   UNL     1      -0.380   9.274  17.562  0.00  0.00    +0.000 HD
ATOM     11  H   UNL     1       2.266  10.804  18.861  0.00  0.00    +0.000 HD
BRANCH   8  12
ATOM     12  C   UNL     1       0.049  12.170  18.867  0.00  0.00    +0.000 A 
ATOM     13  C   UNL     1      -1.109  12.698  19.406  0.00  0.00    +0.000 A 
ATOM     14  C   UNL     1      -0.982  14.076  19.738  0.00  0.00    +0.000 A 
ATOM     15  C   UNL     1       0.270  14.563  19.439  0.00  0.00    +0.000 A 
ATOM     16  S   UNL     1       1.279  13.361  18.757  0.00  0.00    +0.000 S 
ENDBRANCH   8  12
ENDBRANCH   1   9
BRANCH   4  17
ATOM     17  C   UNL     1       2.374   4.753  20.191  0.00  0.00    +0.000 C 
BRANCH  17  18
ATOM     18  C   UNL     1       2.172   3.770  19.026  0.00  0.00    +0.000 C 
BRANCH  18  19
ATOM     19  N   UNL     1       3.292   2.834  18.900  0.00  0.00    +0.000 NA
ATOM     20  H   UNL     1       3.364   2.506  17.937  0.00  0.00    +0.000 HD
BRANCH  19  21
ATOM     21  C   UNL     1       4.546   3.498  19.265  0.00  0.00    +0.000 C 
BRANCH  21  22
ATOM     22  C   UNL     1       5.139   4.242  18.094  0.00  0.00    +0.000 A 
ATOM     23  C   UNL     1       4.864   3.831  16.780  0.00  0.00    +0.000 A 
ATOM     24  C   UNL     1       5.427   4.502  15.692  0.00  0.00    +0.000 A 
ATOM     25  C   UNL     1       6.272   5.590  15.906  0.00  0.00    +0.000 A 
ATOM     26  C   UNL     1       6.550   6.004  17.207  0.00  0.00    +0.000 A 
ATOM     27 CL   UNL     1       7.596   7.345  17.473  0.00  0.00    +0.000 Cl
ATOM     28  C   UNL     1       5.990   5.338  18.298  0.00  0.00    +0.000 A 
ENDBRANCH  21  22
ENDBRANCH  19  21
ENDBRANCH  18  19
ENDBRANCH  17  18
ENDBRANCH   4  17
TORSDOF 7
ENDMDL
MODEL 9
REMARK VINA RESULT:      -6.7      2.518      3.745
REMARK  Name = 
REMARK  7 active torsions:
REMARK  status: ('A' for Active; 'I' for Inactive)
REMARK    1  A    between atoms: C_2  and  C_21
REMARK    2  A    between atoms: N_3  and  C_4
REMARK    3  A    between atoms: C_7  and  C_8
REMARK    4  A    between atoms: C_8  and  C_9
REMARK    5  A    between atoms: C_9  and  N_10
REMARK    6  A    between atoms: N_10  and  C_11
REMARK    7  A    between atoms: C_11  and  C_12
REMARK                            x       y       z     vdW  Elec       q    Type
REMARK                         _______ _______ _______ _____ _____    ______ ____
ROOT
ATOM      1  C   UNL     1       1.617   8.822  19.403  0.00  0.00    +0.000 A 
ATOM      2  C   UNL     1       2.296   8.058  18.448  0.00  0.00    +0.000 A 
ATOM      3  C   UNL     1       2.586   6.711  18.679  0.00  0.00    +0.000 A 
ATOM      4  C   UNL     1       2.233   6.103  19.890  0.00  0.00    +0.000 A 
ATOM      5  C   UNL     1       1.538   6.857  20.841  0.00  0.00    +0.000 A 
ATOM      6  C   UNL     1       1.228   8.201  20.596  0.00  0.00    +0.000 A 
ENDROOT
BRANCH   1   9
ATOM      7  N   UNL     1      -0.558  10.103  17.776  0.00  0.00    +0.000 NA
ATOM      8  C   UNL     1       0.156  10.705  18.682  0.00  0.00    +0.000 C 
ATOM      9  N   UNL     1       1.355  10.178  19.110  0.00  0.00    +0.000 N 
ATOM     10  H   UNL     1      -0.043   9.262  17.494  0.00  0.00    +0.000 HD
ATOM     11  H   UNL     1       1.873  10.788  19.738  0.00  0.00    +0.000 HD
BRANCH   8  12
ATOM     12  C   UNL     1      -0.367  11.983  19.158  0.00  0.00    +0.000 A 
ATOM     13  C   UNL     1      -1.351  12.206  20.103  0.00  0.00    +0.000 A 
ATOM     14  C   UNL     1      -1.595  13.590  20.327  0.00  0.00    +0.000 A 
ATOM     15  C   UNL     1      -0.792  14.386  19.543  0.00  0.00    +0.000 A 
ATOM     16  S   UNL     1       0.243  13.462  18.541  0.00  0.00    +0.000 S 
ENDBRANCH   8  12
ENDBRANCH   1   9
BRANCH   4  17
ATOM     17  C   UNL     1       2.609   4.662  20.165  0.00  0.00    +0.000 C 
BRANCH  17  18
ATOM     18  C   UNL     1       2.036   3.719  19.095  0.00  0.00    +0.000 C 
BRANCH  18  19
ATOM     19  N   UNL     1       3.089   2.964  18.411  0.00  0.00    +0.000 NA
ATOM     20  H   UNL     1       3.107   3.211  17.422  0.00  0.00    +0.000 HD
BRANCH  19  21
ATOM     21  C   UNL     1       4.394   3.278  18.997  0.00  0.00    +0.000 C 
BRANCH  21  22
ATOM     22  C   UNL     1       5.201   4.182  18.097  0.00  0.00    +0.000 A 
ATOM     23  C   UNL     1       5.045   4.119  16.704  0.00  0.00    +0.000 A 
ATOM     24  C   UNL     1       5.804   4.937  15.865  0.00  0.00    +0.000 A 
ATOM     25  C   UNL     1       6.730   5.827  16.410  0.00  0.00    +0.000 A 
ATOM     26  C   UNL     1       6.891   5.895  17.792  0.00  0.00    +0.000 A 
ATOM     27 CL   UNL     1       8.036   6.989  18.466  0.00  0.00    +0.000 Cl
ATOM     28  C   UNL     1       6.135   5.080  18.635  0.00  0.00    +0.000 A 
ENDBRANCH  21  22
ENDBRANCH  19  21
ENDBRANCH  18  19
ENDBRANCH  17  18
ENDBRANCH   4  17
TORSDOF 7
ENDMDL
