MODEL 1
REMARK VINA RESULT:      -8.4      0.000      0.000
REMARK  Name = 
REMARK  2 active torsions:
REMARK  status: ('A' for Active; 'I' for Inactive)
REMARK    1  A    between atoms: N_5  and  C_6
REMARK    2  A    between atoms: C_6  and  C_7
REMARK                            x       y       z     vdW  Elec       q    Type
REMARK                         _______ _______ _______ _____ _____    ______ ____
ROOT
ATOM      1  N   UNL     1       8.113   5.803  19.667  0.00  0.00    +0.000 N 
ATOM      2  C   UNL     1       7.451   5.317  18.557  0.00  0.00    +0.000 A 
ATOM      3  N   UNL     1       6.488   4.406  18.781  0.00  0.00    +0.000 NA
ATOM      4  C   UNL     1       5.758   3.917  17.744  0.00  0.00    +0.000 A 
ATOM      5  N   UNL     1       4.739   2.982  17.959  0.00  0.00    +0.000 N 
ATOM      6  C   UNL     1       6.076   4.383  16.464  0.00  0.00    +0.000 A 
ATOM      7  C   UNL     1       5.652   4.199  15.131  0.00  0.00    +0.000 A 
ATOM      8  N   UNL     1       6.365   4.917  14.252  0.00  0.00    +0.000 NA
ATOM      9  N   UNL     1       7.258   5.558  15.037  0.00  0.00    +0.000 N 
ATOM     10  C   UNL     1       7.118   5.282  16.365  0.00  0.00    +0.000 A 
ATOM     11  N   UNL     1       7.848   5.786  17.368  0.00  0.00    +0.000 NA
ATOM     12  H   UNL     1       8.041   5.141  20.427  0.00  0.00    +0.000 HD
ATOM     13  H   UNL     1       9.036   6.120  19.409  0.00  0.00    +0.000 HD
ATOM     14  H   UNL     1       3.937   3.184  17.369  0.00  0.00    +0.000 HD
ATOM     15  H   UNL     1       7.942   6.173  14.610  0.00  0.00    +0.000 HD
ENDROOT
BRANCH   5  16
ATOM     16  C   UNL     1       4.401   2.731  19.355  0.00  0.00    +0.000 C 
BRANCH  16  17
ATOM     17  C   UNL     1       3.088   3.378  19.704  0.00  0.00    +0.000 A 
ATOM     18  C   UNL     1       1.893   2.657  19.703  0.00  0.00    +0.000 A 
ATOM     19  F   UNL     1       1.893   1.357  19.378  0.00  0.00    +0.000 F 
ATOM     20  C   UNL     1       0.680   3.253  20.052  0.00  0.00    +0.000 A 
ATOM     21  C   UNL     1       0.645   4.600  20.414  0.00  0.00    +0.000 A 
ATOM     22  C   UNL     1       1.827   5.335  20.426  0.00  0.00    +0.000 A 
ATOM     23  C   UNL     1       3.029   4.722  20.077  0.00  0.00    +0.000 A 
ATOM     24  F   UNL     1       4.152   5.456  20.097  0.00  0.00    +0.000 F 
ENDBRANCH  16  17
ENDBRANCH   5  16
TORSDOF 2
ENDMDL
MODEL 2
REMARK VINA RESULT:      -8.4      0.058      1.842
REMARK  Name = 
REMARK  2 active torsions:
REMARK  status: ('A' for Active; 'I' for Inactive)
REMARK    1  A    between atoms: N_5  and  C_6
REMARK    2  A    between atoms: C_6  and  C_7
REMARK                            x       y       z     vdW  Elec       q    Type
REMARK                         _______ _______ _______ _____ _____    ______ ____
ROOT
ATOM      1  N   UNL     1       8.129   5.880  19.652  0.00  0.00    +0.000 N 
ATOM      2  C   UNL     1       7.461   5.376  18.554  0.00  0.00    +0.000 A 
ATOM      3  N   UNL     1       6.513   4.454  18.796  0.00  0.00    +0.000 NA
ATOM      4  C   UNL     1       5.778   3.948  17.771  0.00  0.00    +0.000 A 
ATOM      5  N   UNL     1       4.774   3.001  18.005  0.00  0.00    +0.000 N 
ATOM      6  C   UNL     1       6.076   4.406  16.484  0.00  0.00    +0.000 A 
ATOM      7  C   UNL     1       5.640   4.206  15.157  0.00  0.00    +0.000 A 
ATOM      8  N   UNL     1       6.334   4.926  14.264  0.00  0.00    +0.000 NA
ATOM      9  N   UNL     1       7.227   5.585  15.034  0.00  0.00    +0.000 N 
ATOM     10  C   UNL     1       7.105   5.318  16.366  0.00  0.00    +0.000 A 
ATOM     11  N   UNL     1       7.840   5.840  17.356  0.00  0.00    +0.000 NA
ATOM     12  H   UNL     1       8.074   5.223  20.418  0.00  0.00    +0.000 HD
ATOM     13  H   UNL     1       9.045   6.207  19.382  0.00  0.00    +0.000 HD
ATOM     14  H   UNL     1       3.963   3.188  17.422  0.00  0.00    +0.000 HD
ATOM     15  H   UNL     1       7.898   6.204  14.594  0.00  0.00    +0.000 HD
ENDROOT
BRANCH   5  16
ATOM     16  C   UNL     1       4.454   2.757  19.407  0.00  0.00    +0.000 C 
BRANCH  16  17
ATOM     17  C   UNL     1       3.138   3.394  19.765  0.00  0.00    +0.000 A 
ATOM     18  C   UNL     1       3.046   4.745  20.098  0.00  0.00    +0.000 A 
ATOM     19  F   UNL     1       4.146   5.511  20.114  0.00  0.00    +0.000 F 
ATOM     20  C   UNL     1       1.821   5.340  20.404  0.00  0.00    +0.000 A 
ATOM     21  C   UNL     1       0.652   4.579  20.380  0.00  0.00    +0.000 A 
ATOM     22  C   UNL     1       0.723   3.230  20.044  0.00  0.00    +0.000 A 
ATOM     23  C   UNL     1       1.954   2.654  19.740  0.00  0.00    +0.000 A 
ATOM     24  F   UNL     1       1.991   1.351  19.422  0.00  0.00    +0.000 F 
ENDBRANCH  16  17
ENDBRANCH   5  16
TORSDOF 2
ENDMDL
MODEL 3
REMARK VINA RESULT:      -8.4      0.981      2.012
REMARK  Name = 
REMARK  2 active torsions:
REMARK  status: ('A' for Active; 'I' for Inactive)
REMARK    1  A    between atoms: N_5  and  C_6
REMARK    2  A    between atoms: C_6  and  C_7
REMARK                            x       y       z     vdW  Elec       q    Type
REMARK                         _______ _______ _______ _____ _____    ______ ____
ROOT
ATOM      1  N   UNL     1       7.935   7.143  18.480  0.00  0.00    +0.000 N 
ATOM      2  C   UNL     1       7.406   6.216  17.604  0.00  0.00    +0.000 A 
ATOM      3  N   UNL     1       6.615   5.268  18.136  0.00  0.00    +0.000 NA
ATOM      4  C   UNL     1       6.017   4.349  17.332  0.00  0.00    +0.000 A 
ATOM      5  N   UNL     1       5.175   3.367  17.865  0.00  0.00    +0.000 N 
ATOM      6  C   UNL     1       6.288   4.428  15.962  0.00  0.00    +0.000 A 
ATOM      7  C   UNL     1       5.947   3.752  14.771  0.00  0.00    +0.000 A 
ATOM      8  N   UNL     1       6.547   4.265  13.689  0.00  0.00    +0.000 NA
ATOM      9  N   UNL     1       7.286   5.273  14.200  0.00  0.00    +0.000 N 
ATOM     10  C   UNL     1       7.155   5.418  15.550  0.00  0.00    +0.000 A 
ATOM     11  N   UNL     1       7.751   6.340  16.317  0.00  0.00    +0.000 NA
ATOM     12  H   UNL     1       7.958   6.759  19.414  0.00  0.00    +0.000 HD
ATOM     13  H   UNL     1       8.794   7.520  18.108  0.00  0.00    +0.000 HD
ATOM     14  H   UNL     1       4.369   3.221  17.264  0.00  0.00    +0.000 HD
ATOM     15  H   UNL     1       7.862   5.830  13.580  0.00  0.00    +0.000 HD
ENDROOT
BRANCH   5  16
ATOM     16  C   UNL     1       4.843   3.521  19.276  0.00  0.00    +0.000 C 
BRANCH  16  17
ATOM     17  C   UNL     1       3.358   3.383  19.486  0.00  0.00    +0.000 A 
ATOM     18  C   UNL     1       2.593   4.427  20.007  0.00  0.00    +0.000 A 
ATOM     19  F   UNL     1       3.176   5.585  20.345  0.00  0.00    +0.000 F 
ATOM     20  C   UNL     1       1.212   4.306  20.176  0.00  0.00    +0.000 A 
ATOM     21  C   UNL     1       0.568   3.122  19.818  0.00  0.00    +0.000 A 
ATOM     22  C   UNL     1       1.314   2.071  19.290  0.00  0.00    +0.000 A 
ATOM     23  C   UNL     1       2.691   2.210  19.128  0.00  0.00    +0.000 A 
ATOM     24  F   UNL     1       3.383   1.180  18.618  0.00  0.00    +0.000 F 
ENDBRANCH  16  17
ENDBRANCH   5  16
TORSDOF 2
ENDMDL
MODEL 4
REMARK VINA RESULT:      -8.3      1.624      1.824
REMARK  Name = 
REMARK  2 active torsions:
REMARK  status: ('A' for Active; 'I' for Inactive)
REMARK    1  A    between atoms: N_5  and  C_6
REMARK    2  A    between atoms: C_6  and  C_7
REMARK                            x       y       z     vdW  Elec       q    Type
REMARK                         _______ _______ _______ _____ _____    ______ ____
ROOT
ATOM      1  N   UNL     1       7.624   5.494  19.970  0.00  0.00    +0.000 N 
ATOM      2  C   UNL     1       7.008   5.451  18.735  0.00  0.00    +0.000 A 
ATOM      3  N   UNL     1       5.665   5.526  18.729  0.00  0.00    +0.000 NA
ATOM      4  C   UNL     1       4.989   5.540  17.550  0.00  0.00    +0.000 A 
ATOM      5  N   UNL     1       3.594   5.636  17.522  0.00  0.00    +0.000 N 
ATOM      6  C   UNL     1       5.748   5.446  16.378  0.00  0.00    +0.000 A 
ATOM      7  C   UNL     1       5.546   5.412  14.982  0.00  0.00    +0.000 A 
ATOM      8  N   UNL     1       6.687   5.280  14.292  0.00  0.00    +0.000 NA
ATOM      9  N   UNL     1       7.624   5.218  15.263  0.00  0.00    +0.000 N 
ATOM     10  C   UNL     1       7.114   5.327  16.523  0.00  0.00    +0.000 A 
ATOM     11  N   UNL     1       7.807   5.318  17.669  0.00  0.00    +0.000 NA
ATOM     12  H   UNL     1       6.976   5.199  20.687  0.00  0.00    +0.000 HD
ATOM     13  H   UNL     1       8.519   5.028  19.928  0.00  0.00    +0.000 HD
ATOM     14  H   UNL     1       3.291   6.249  16.770  0.00  0.00    +0.000 HD
ATOM     15  H   UNL     1       8.597   5.102  15.006  0.00  0.00    +0.000 HD
ENDROOT
BRANCH   5  16
ATOM     16  C   UNL     1       2.956   5.910  18.805  0.00  0.00    +0.000 C 
BRANCH  16  17
ATOM     17  C   UNL     1       2.172   4.712  19.269  0.00  0.00    +0.000 A 
ATOM     18  C   UNL     1       1.606   3.813  18.366  0.00  0.00    +0.000 A 
ATOM     19  F   UNL     1       1.745   4.007  17.046  0.00  0.00    +0.000 F 
ATOM     20  C   UNL     1       0.901   2.688  18.799  0.00  0.00    +0.000 A 
ATOM     21  C   UNL     1       0.753   2.443  20.164  0.00  0.00    +0.000 A 
ATOM     22  C   UNL     1       1.315   3.326  21.081  0.00  0.00    +0.000 A 
ATOM     23  C   UNL     1       2.016   4.442  20.630  0.00  0.00    +0.000 A 
ATOM     24  F   UNL     1       2.546   5.276  21.538  0.00  0.00    +0.000 F 
ENDBRANCH  16  17
ENDBRANCH   5  16
TORSDOF 2
ENDMDL
MODEL 5
REMARK VINA RESULT:      -8.2      1.622      2.212
REMARK  Name = 
REMARK  2 active torsions:
REMARK  status: ('A' for Active; 'I' for Inactive)
REMARK    1  A    between atoms: N_5  and  C_6
REMARK    2  A    between atoms: C_6  and  C_7
REMARK                            x       y       z     vdW  Elec       q    Type
REMARK                         _______ _______ _______ _____ _____    ______ ____
ROOT
ATOM      1  N   UNL     1       7.602   5.491  19.960  0.00  0.00    +0.000 N 
ATOM      2  C   UNL     1       6.991   5.454  18.723  0.00  0.00    +0.000 A 
ATOM      3  N   UNL     1       5.648   5.529  18.712  0.00  0.00    +0.000 NA
ATOM      4  C   UNL     1       4.976   5.549  17.530  0.00  0.00    +0.000 A 
ATOM      5  N   UNL     1       3.581   5.646  17.497  0.00  0.00    +0.000 N 
ATOM      6  C   UNL     1       5.739   5.460  16.361  0.00  0.00    +0.000 A 
ATOM      7  C   UNL     1       5.543   5.432  14.964  0.00  0.00    +0.000 A 
ATOM      8  N   UNL     1       6.687   5.302  14.278  0.00  0.00    +0.000 NA
ATOM      9  N   UNL     1       7.620   5.236  15.252  0.00  0.00    +0.000 N 
ATOM     10  C   UNL     1       7.105   5.339  16.511  0.00  0.00    +0.000 A 
ATOM     11  N   UNL     1       7.794   5.325  17.660  0.00  0.00    +0.000 NA
ATOM     12  H   UNL     1       6.951   5.193  20.673  0.00  0.00    +0.000 HD
ATOM     13  H   UNL     1       8.496   5.025  19.920  0.00  0.00    +0.000 HD
ATOM     14  H   UNL     1       3.282   6.263  16.747  0.00  0.00    +0.000 HD
ATOM     15  H   UNL     1       8.594   5.120  14.998  0.00  0.00    +0.000 HD
ENDROOT
BRANCH   5  16
ATOM     16  C   UNL     1       2.939   5.915  18.779  0.00  0.00    +0.000 C 
BRANCH  16  17
ATOM     17  C   UNL     1       2.203   4.695  19.265  0.00  0.00    +0.000 A 
ATOM     18  C   UNL     1       2.037   4.436  20.626  0.00  0.00    +0.000 A 
ATOM     19  F   UNL     1       2.545   5.276  21.539  0.00  0.00    +0.000 F 
ATOM     20  C   UNL     1       1.331   3.318  21.076  0.00  0.00    +0.000 A 
ATOM     21  C   UNL     1       0.772   2.431  20.155  0.00  0.00    +0.000 A 
ATOM     22  C   UNL     1       0.922   2.677  18.793  0.00  0.00    +0.000 A 
ATOM     23  C   UNL     1       1.629   3.798  18.363  0.00  0.00    +0.000 A 
ATOM     24  F   UNL     1       1.758   4.008  17.044  0.00  0.00    +0.000 F 
ENDBRANCH  16  17
ENDBRANCH   5  16
TORSDOF 2
ENDMDL
MODEL 6
REMARK VINA RESULT:      -8.2      1.366      1.808
REMARK  Name = 
REMARK  2 active torsions:
REMARK  status: ('A' for Active; 'I' for Inactive)
REMARK    1  A    between atoms: N_5  and  C_6
REMARK    2  A    between atoms: C_6  and  C_7
REMARK                            x       y       z     vdW  Elec       q    Type
REMARK                         _______ _______ _______ _____ _____    ______ ____
ROOT
ATOM      1  N   UNL     1       7.995   7.369  18.379  0.00  0.00    +0.000 N 
ATOM      2  C   UNL     1       7.451   6.380  17.582  0.00  0.00    +0.000 A 
ATOM      3  N   UNL     1       6.674   5.471  18.196  0.00  0.00    +0.000 NA
ATOM      4  C   UNL     1       6.063   4.496  17.472  0.00  0.00    +0.000 A 
ATOM      5  N   UNL     1       5.237   3.552  18.091  0.00  0.00    +0.000 N 
ATOM      6  C   UNL     1       6.305   4.478  16.094  0.00  0.00    +0.000 A 
ATOM      7  C   UNL     1       5.942   3.719  14.962  0.00  0.00    +0.000 A 
ATOM      8  N   UNL     1       6.518   4.156  13.833  0.00  0.00    +0.000 NA
ATOM      9  N   UNL     1       7.264   5.199  14.257  0.00  0.00    +0.000 N 
ATOM     10  C   UNL     1       7.160   5.439  15.595  0.00  0.00    +0.000 A 
ATOM     11  N   UNL     1       7.769   6.414  16.282  0.00  0.00    +0.000 NA
ATOM     12  H   UNL     1       8.038   7.052  19.337  0.00  0.00    +0.000 HD
ATOM     13  H   UNL     1       8.845   7.721  17.963  0.00  0.00    +0.000 HD
ATOM     14  H   UNL     1       4.419   3.362  17.518  0.00  0.00    +0.000 HD
ATOM     15  H   UNL     1       7.825   5.712  13.586  0.00  0.00    +0.000 HD
ENDROOT
BRANCH   5  16
ATOM     16  C   UNL     1       4.933   3.805  19.494  0.00  0.00    +0.000 C 
BRANCH  16  17
ATOM     17  C   UNL     1       3.459   3.641  19.752  0.00  0.00    +0.000 A 
ATOM     18  C   UNL     1       2.506   4.347  19.018  0.00  0.00    +0.000 A 
ATOM     19  F   UNL     1       2.891   5.204  18.062  0.00  0.00    +0.000 F 
ATOM     20  C   UNL     1       1.138   4.174  19.240  0.00  0.00    +0.000 A 
ATOM     21  C   UNL     1       0.699   3.276  20.214  0.00  0.00    +0.000 A 
ATOM     22  C   UNL     1       1.636   2.558  20.953  0.00  0.00    +0.000 A 
ATOM     23  C   UNL     1       2.996   2.743  20.716  0.00  0.00    +0.000 A 
ATOM     24  F   UNL     1       3.875   2.038  21.444  0.00  0.00    +0.000 F 
ENDBRANCH  16  17
ENDBRANCH   5  16
TORSDOF 2
ENDMDL
MODEL 7
REMARK VINA RESULT:      -8.2      1.619      2.948
REMARK  Name = 
REMARK  2 active torsions:
REMARK  status: ('A' for Active; 'I' for Inactive)
REMARK    1  A    between atoms: N_5  and  C_6
REMARK    2  A    between atoms: C_6  and  C_7
REMARK                            x       y       z     vdW  Elec       q    Type
REMARK                         _______ _______ _______ _____ _____    ______ ____
ROOT
ATOM      1  N   UNL     1       5.223   4.365  14.298  0.00  0.00    +0.000 N 
ATOM      2  C   UNL     1       5.716   4.770  15.522  0.00  0.00    +0.000 A 
ATOM      3  N   UNL     1       5.309   4.072  16.597  0.00  0.00    +0.000 NA
ATOM      4  C   UNL     1       5.789   4.378  17.831  0.00  0.00    +0.000 A 
ATOM      5  N   UNL     1       5.392   3.652  18.958  0.00  0.00    +0.000 N 
ATOM      6  C   UNL     1       6.684   5.451  17.919  0.00  0.00    +0.000 A 
ATOM      7  C   UNL     1       7.423   6.139  18.904  0.00  0.00    +0.000 A 
ATOM      8  N   UNL     1       8.134   7.160  18.406  0.00  0.00    +0.000 NA
ATOM      9  N   UNL     1       7.834   7.125  17.089  0.00  0.00    +0.000 N 
ATOM     10  C   UNL     1       6.983   6.115  16.748  0.00  0.00    +0.000 A 
ATOM     11  N   UNL     1       6.532   5.831  15.519  0.00  0.00    +0.000 NA
ATOM     12  H   UNL     1       4.357   3.860  14.427  0.00  0.00    +0.000 HD
ATOM     13  H   UNL     1       5.221   5.139  13.651  0.00  0.00    +0.000 HD
ATOM     14  H   UNL     1       6.180   3.497  19.581  0.00  0.00    +0.000 HD
ATOM     15  H   UNL     1       8.241   7.817  16.470  0.00  0.00    +0.000 HD
ENDROOT
BRANCH   5  16
ATOM     16  C   UNL     1       4.603   2.455  18.690  0.00  0.00    +0.000 C 
BRANCH  16  17
ATOM     17  C   UNL     1       3.179   2.651  19.135  0.00  0.00    +0.000 A 
ATOM     18  C   UNL     1       2.816   2.570  20.480  0.00  0.00    +0.000 A 
ATOM     19  F   UNL     1       3.741   2.303  21.412  0.00  0.00    +0.000 F 
ATOM     20  C   UNL     1       1.499   2.779  20.894  0.00  0.00    +0.000 A 
ATOM     21  C   UNL     1       0.512   3.078  19.954  0.00  0.00    +0.000 A 
ATOM     22  C   UNL     1       0.857   3.168  18.608  0.00  0.00    +0.000 A 
ATOM     23  C   UNL     1       2.176   2.958  18.214  0.00  0.00    +0.000 A 
ATOM     24  F   UNL     1       2.478   3.051  16.910  0.00  0.00    +0.000 F 
ENDBRANCH  16  17
ENDBRANCH   5  16
TORSDOF 2
ENDMDL
MODEL 8
REMARK VINA RESULT:      -8.2      1.614      2.864
REMARK  Name = 
REMARK  2 active torsions:
REMARK  status: ('A' for Active; 'I' for Inactive)
REMARK    1  A    between atoms: N_5  and  C_6
REMARK    2  A    between atoms: C_6  and  C_7
REMARK                            x       y       z     vdW  Elec       q    Type
REMARK                         _______ _______ _______ _____ _____    ______ ____
ROOT
ATOM      1  N   UNL     1       5.223   4.340  14.312  0.00  0.00    +0.000 N 
ATOM      2  C   UNL     1       5.717   4.753  15.533  0.00  0.00    +0.000 A 
ATOM      3  N   UNL     1       5.306   4.065  16.613  0.00  0.00    +0.000 NA
ATOM      4  C   UNL     1       5.787   4.379  17.844  0.00  0.00    +0.000 A 
ATOM      5  N   UNL     1       5.385   3.664  18.977  0.00  0.00    +0.000 N 
ATOM      6  C   UNL     1       6.687   5.447  17.925  0.00  0.00    +0.000 A 
ATOM      7  C   UNL     1       7.429   6.140  18.905  0.00  0.00    +0.000 A 
ATOM      8  N   UNL     1       8.146   7.153  18.399  0.00  0.00    +0.000 NA
ATOM      9  N   UNL     1       7.847   7.109  17.082  0.00  0.00    +0.000 N 
ATOM     10  C   UNL     1       6.991   6.101  16.748  0.00  0.00    +0.000 A 
ATOM     11  N   UNL     1       6.539   5.809  15.522  0.00  0.00    +0.000 NA
ATOM     12  H   UNL     1       4.355   3.841  14.444  0.00  0.00    +0.000 HD
ATOM     13  H   UNL     1       5.225   5.109  13.658  0.00  0.00    +0.000 HD
ATOM     14  H   UNL     1       6.172   3.510  19.602  0.00  0.00    +0.000 HD
ATOM     15  H   UNL     1       8.257   7.794  16.458  0.00  0.00    +0.000 HD
ENDROOT
BRANCH   5  16
ATOM     16  C   UNL     1       4.591   2.468  18.718  0.00  0.00    +0.000 C 
BRANCH  16  17
ATOM     17  C   UNL     1       3.162   2.685  19.137  0.00  0.00    +0.000 A 
ATOM     18  C   UNL     1       2.157   2.942  18.204  0.00  0.00    +0.000 A 
ATOM     19  F   UNL     1       2.453   3.012  16.898  0.00  0.00    +0.000 F 
ATOM     20  C   UNL     1       0.827   3.117  18.591  0.00  0.00    +0.000 A 
ATOM     21  C   UNL     1       0.478   3.033  19.940  0.00  0.00    +0.000 A 
ATOM     22  C   UNL     1       1.466   2.771  20.885  0.00  0.00    +0.000 A 
ATOM     23  C   UNL     1       2.788   2.598  20.479  0.00  0.00    +0.000 A 
ATOM     24  F   UNL     1       3.718   2.348  21.413  0.00  0.00    +0.000 F 
ENDBRANCH  16  17
ENDBRANCH   5  16
TORSDOF 2
ENDMDL
MODEL 9
REMARK VINA RESULT:      -8.2      1.373      1.464
REMARK  Name = 
REMARK  2 active torsions:
REMARK  status: ('A' for Active; 'I' for Inactive)
REMARK    1  A    between atoms: N_5  and  C_6
REMARK    2  A    between atoms: C_6  and  C_7
REMARK                            x       y       z     vdW  Elec       q    Type
REMARK                         _______ _______ _______ _____ _____    ______ ____
ROOT
ATOM      1  N   UNL     1       7.920   7.466  18.118  0.00  0.00    +0.000 N 
ATOM      2  C   UNL     1       7.356   6.428  17.403  0.00  0.00    +0.000 A 
ATOM      3  N   UNL     1       6.589   5.567  18.094  0.00  0.00    +0.000 NA
ATOM      4  C   UNL     1       5.960   4.548  17.452  0.00  0.00    +0.000 A 
ATOM      5  N   UNL     1       5.143   3.653  18.150  0.00  0.00    +0.000 N 
ATOM      6  C   UNL     1       6.174   4.434  16.074  0.00  0.00    +0.000 A 
ATOM      7  C   UNL     1       5.785   3.600  15.004  0.00  0.00    +0.000 A 
ATOM      8  N   UNL     1       6.339   3.955  13.837  0.00  0.00    +0.000 NA
ATOM      9  N   UNL     1       7.097   5.021  14.172  0.00  0.00    +0.000 N 
ATOM     10  C   UNL     1       7.022   5.354  15.492  0.00  0.00    +0.000 A 
ATOM     11  N   UNL     1       7.648   6.371  16.098  0.00  0.00    +0.000 NA
ATOM     12  H   UNL     1       7.982   7.216  19.095  0.00  0.00    +0.000 HD
ATOM     13  H   UNL     1       8.762   7.785  17.663  0.00  0.00    +0.000 HD
ATOM     14  H   UNL     1       4.313   3.428  17.609  0.00  0.00    +0.000 HD
ATOM     15  H   UNL     1       7.646   5.484  13.456  0.00  0.00    +0.000 HD
ENDROOT
BRANCH   5  16
ATOM     16  C   UNL     1       4.869   4.003  19.539  0.00  0.00    +0.000 C 
BRANCH  16  17
ATOM     17  C   UNL     1       3.431   3.716  19.881  0.00  0.00    +0.000 A 
ATOM     18  C   UNL     1       3.080   2.711  20.782  0.00  0.00    +0.000 A 
ATOM     19  F   UNL     1       4.031   1.965  21.362  0.00  0.00    +0.000 F 
ATOM     20  C   UNL     1       1.748   2.463  21.118  0.00  0.00    +0.000 A 
ATOM     21  C   UNL     1       0.732   3.232  20.549  0.00  0.00    +0.000 A 
ATOM     22  C   UNL     1       1.063   4.244  19.652  0.00  0.00    +0.000 A 
ATOM     23  C   UNL     1       2.399   4.477  19.330  0.00  0.00    +0.000 A 
ATOM     24  F   UNL     1       2.687   5.459  18.461  0.00  0.00    +0.000 F 
ENDBRANCH  16  17
ENDBRANCH   5  16
TORSDOF 2
ENDMDL
