MODEL 1
REMARK VINA RESULT:      -6.0      0.000      0.000
REMARK  Name = 
REMARK  7 active torsions:
REMARK  status: ('A' for Active; 'I' for Inactive)
REMARK    1  A    between atoms: C_2  and  C_3
REMARK    2  A    between atoms: C_3  and  C_4
REMARK    3  A    between atoms: C_7  and  O_8
REMARK    4  A    between atoms: O_8  and  C_9
REMARK    5  A    between atoms: C_9  and  C_10
REMARK    6  A    between atoms: C_11  and  O_12
REMARK    7  A    between atoms: O_12  and  C_13
REMARK                            x       y       z     vdW  Elec       q    Type
REMARK                         _______ _______ _______ _____ _____    ______ ____
ROOT
ATOM      1  C   UNL     1       2.851   4.813  17.774  0.00  0.00    +0.000 A 
ATOM      2  C   UNL     1       3.041   6.184  17.957  0.00  0.00    +0.000 A 
ATOM      3  C   UNL     1       4.220   6.790  17.521  0.00  0.00    +0.000 A 
ATOM      4  C   UNL     1       5.235   6.048  16.901  0.00  0.00    +0.000 A 
ATOM      5  C   UNL     1       5.063   4.663  16.721  0.00  0.00    +0.000 A 
ATOM      6  C   UNL     1       3.875   4.063  17.171  0.00  0.00    +0.000 A 
ENDROOT
BRANCH   5   7
ATOM      7  O   UNL     1       6.065   3.957  16.112  0.00  0.00    +0.000 OA
ATOM      8  C   UNL     1       6.149   3.975  14.694  0.00  0.00    +0.000 C 
ENDBRANCH   5   7
BRANCH   1   9
ATOM      9  C   UNL     1       1.579   4.140  18.231  0.00  0.00    +0.000 C 
BRANCH   9  11
ATOM     10  C   UNL     1       1.101   3.108  20.474  0.00  0.00    +0.000 C 
ATOM     11  C   UNL     1       1.410   4.174  19.723  0.00  0.00    +0.000 C 
ENDBRANCH   9  11
ENDBRANCH   1   9
BRANCH   4  12
ATOM     12  O   UNL     1       6.304   6.834  16.540  0.00  0.00    +0.000 OA
BRANCH  12  13
ATOM     13  C   UNL     1       7.444   6.872  17.393  0.00  0.00    +0.000 C 
ATOM     14  C   UNL     1       7.813   8.326  17.643  0.00  0.00    +0.000 C 
ENDBRANCH  12  13
ENDBRANCH   4  12
TORSDOF 5
ENDMDL
MODEL 2
REMARK VINA RESULT:      -5.9      1.486      1.600
REMARK  Name = 
REMARK  7 active torsions:
REMARK  status: ('A' for Active; 'I' for Inactive)
REMARK    1  A    between atoms: C_2  and  C_3
REMARK    2  A    between atoms: C_3  and  C_4
REMARK    3  A    between atoms: C_7  and  O_8
REMARK    4  A    between atoms: O_8  and  C_9
REMARK    5  A    between atoms: C_9  and  C_10
REMARK    6  A    between atoms: C_11  and  O_12
REMARK    7  A    between atoms: O_12  and  C_13
REMARK                            x       y       z     vdW  Elec       q    Type
REMARK                         _______ _______ _______ _____ _____    ______ ____
ROOT
ATOM      1  C   UNL     1       3.283   4.524  17.874  0.00  0.00    +0.000 A 
ATOM      2  C   UNL     1       3.853   4.972  19.066  0.00  0.00    +0.000 A 
ATOM      3  C   UNL     1       5.242   5.047  19.192  0.00  0.00    +0.000 A 
ATOM      4  C   UNL     1       6.090   4.676  18.138  0.00  0.00    +0.000 A 
ATOM      5  C   UNL     1       5.529   4.211  16.935  0.00  0.00    +0.000 A 
ATOM      6  C   UNL     1       4.131   4.133  16.824  0.00  0.00    +0.000 A 
ENDROOT
BRANCH   5   7
ATOM      7  O   UNL     1       6.374   3.855  15.919  0.00  0.00    +0.000 OA
ATOM      8  C   UNL     1       6.808   4.856  15.009  0.00  0.00    +0.000 C 
ENDBRANCH   5   7
BRANCH   1   9
ATOM      9  C   UNL     1       1.783   4.443  17.716  0.00  0.00    +0.000 C 
BRANCH   9  11
ATOM     10  C   UNL     1       1.328   2.232  18.824  0.00  0.00    +0.000 C 
ATOM     11  C   UNL     1       1.140   3.556  18.743  0.00  0.00    +0.000 C 
ENDBRANCH   9  11
ENDBRANCH   1   9
BRANCH   4  12
ATOM     12  O   UNL     1       7.416   4.835  18.463  0.00  0.00    +0.000 OA
BRANCH  12  13
ATOM     13  C   UNL     1       7.850   6.092  18.975  0.00  0.00    +0.000 C 
ATOM     14  C   UNL     1       7.771   7.121  17.860  0.00  0.00    +0.000 C 
ENDBRANCH  12  13
ENDBRANCH   4  12
TORSDOF 5
ENDMDL
MODEL 3
REMARK VINA RESULT:      -5.8      1.628      2.952
REMARK  Name = 
REMARK  7 active torsions:
REMARK  status: ('A' for Active; 'I' for Inactive)
REMARK    1  A    between atoms: C_2  and  C_3
REMARK    2  A    between atoms: C_3  and  C_4
REMARK    3  A    between atoms: C_7  and  O_8
REMARK    4  A    between atoms: O_8  and  C_9
REMARK    5  A    between atoms: C_9  and  C_10
REMARK    6  A    between atoms: C_11  and  O_12
REMARK    7  A    between atoms: O_12  and  C_13
REMARK                            x       y       z     vdW  Elec       q    Type
REMARK                         _______ _______ _______ _____ _____    ______ ____
ROOT
ATOM      1  C   UNL     1       3.005   4.926  19.203  0.00  0.00    +0.000 A 
ATOM      2  C   UNL     1       2.639   4.617  17.892  0.00  0.00    +0.000 A 
ATOM      3  C   UNL     1       3.620   4.308  16.948  0.00  0.00    +0.000 A 
ATOM      4  C   UNL     1       4.981   4.302  17.285  0.00  0.00    +0.000 A 
ATOM      5  C   UNL     1       5.364   4.622  18.600  0.00  0.00    +0.000 A 
ATOM      6  C   UNL     1       4.369   4.940  19.540  0.00  0.00    +0.000 A 
ENDROOT
BRANCH   5   7
ATOM      7  O   UNL     1       6.698   4.609  18.910  0.00  0.00    +0.000 OA
ATOM      8  C   UNL     1       7.398   5.844  18.969  0.00  0.00    +0.000 C 
ENDBRANCH   5   7
BRANCH   1   9
ATOM      9  C   UNL     1       1.959   5.256  20.241  0.00  0.00    +0.000 C 
BRANCH   9  11
ATOM     10  C   UNL     1       1.340   2.950  21.030  0.00  0.00    +0.000 C 
ATOM     11  C   UNL     1       1.002   4.123  20.480  0.00  0.00    +0.000 C 
ENDBRANCH   9  11
ENDBRANCH   1   9
BRANCH   4  12
ATOM     12  O   UNL     1       5.777   3.962  16.217  0.00  0.00    +0.000 OA
BRANCH  12  13
ATOM     13  C   UNL     1       5.710   4.753  15.035  0.00  0.00    +0.000 C 
ATOM     14  C   UNL     1       6.147   3.899  13.856  0.00  0.00    +0.000 C 
ENDBRANCH  12  13
ENDBRANCH   4  12
TORSDOF 5
ENDMDL
MODEL 4
REMARK VINA RESULT:      -5.7      1.548      2.922
REMARK  Name = 
REMARK  7 active torsions:
REMARK  status: ('A' for Active; 'I' for Inactive)
REMARK    1  A    between atoms: C_2  and  C_3
REMARK    2  A    between atoms: C_3  and  C_4
REMARK    3  A    between atoms: C_7  and  O_8
REMARK    4  A    between atoms: O_8  and  C_9
REMARK    5  A    between atoms: C_9  and  C_10
REMARK    6  A    between atoms: C_11  and  O_12
REMARK    7  A    between atoms: O_12  and  C_13
REMARK                            x       y       z     vdW  Elec       q    Type
REMARK                         _______ _______ _______ _____ _____    ______ ____
ROOT
ATOM      1  C   UNL     1       2.183   3.750  18.297  0.00  0.00    +0.000 A 
ATOM      2  C   UNL     1       3.119   2.962  17.625  0.00  0.00    +0.000 A 
ATOM      3  C   UNL     1       4.231   3.556  17.025  0.00  0.00    +0.000 A 
ATOM      4  C   UNL     1       4.433   4.943  17.077  0.00  0.00    +0.000 A 
ATOM      5  C   UNL     1       3.491   5.751  17.740  0.00  0.00    +0.000 A 
ATOM      6  C   UNL     1       2.372   5.142  18.333  0.00  0.00    +0.000 A 
ENDROOT
BRANCH   5   7
ATOM      7  O   UNL     1       3.707   7.102  17.781  0.00  0.00    +0.000 OA
ATOM      8  C   UNL     1       2.605   7.963  18.023  0.00  0.00    +0.000 C 
ENDBRANCH   5   7
BRANCH   1   9
ATOM      9  C   UNL     1       0.978   3.125  18.959  0.00  0.00    +0.000 C 
BRANCH   9  11
ATOM     10  C   UNL     1       1.741   2.901  21.344  0.00  0.00    +0.000 C 
ATOM     11  C   UNL     1       0.909   3.417  20.430  0.00  0.00    +0.000 C 
ENDBRANCH   9  11
ENDBRANCH   1   9
BRANCH   4  12
ATOM     12  O   UNL     1       5.589   5.321  16.436  0.00  0.00    +0.000 OA
BRANCH  12  13
ATOM     13  C   UNL     1       6.704   4.435  16.456  0.00  0.00    +0.000 C 
ATOM     14  C   UNL     1       7.561   4.765  17.667  0.00  0.00    +0.000 C 
ENDBRANCH  12  13
ENDBRANCH   4  12
TORSDOF 5
ENDMDL
MODEL 5
REMARK VINA RESULT:      -5.7      2.299      5.054
REMARK  Name = 
REMARK  7 active torsions:
REMARK  status: ('A' for Active; 'I' for Inactive)
REMARK    1  A    between atoms: C_2  and  C_3
REMARK    2  A    between atoms: C_3  and  C_4
REMARK    3  A    between atoms: C_7  and  O_8
REMARK    4  A    between atoms: O_8  and  C_9
REMARK    5  A    between atoms: C_9  and  C_10
REMARK    6  A    between atoms: C_11  and  O_12
REMARK    7  A    between atoms: O_12  and  C_13
REMARK                            x       y       z     vdW  Elec       q    Type
REMARK                         _______ _______ _______ _____ _____    ______ ____
ROOT
ATOM      1  C   UNL     1       5.006   5.262  16.297  0.00  0.00    +0.000 A 
ATOM      2  C   UNL     1       4.549   6.393  16.975  0.00  0.00    +0.000 A 
ATOM      3  C   UNL     1       3.985   6.266  18.245  0.00  0.00    +0.000 A 
ATOM      4  C   UNL     1       3.860   5.015  18.866  0.00  0.00    +0.000 A 
ATOM      5  C   UNL     1       4.305   3.865  18.189  0.00  0.00    +0.000 A 
ATOM      6  C   UNL     1       4.864   4.004  16.908  0.00  0.00    +0.000 A 
ENDROOT
BRANCH   5   7
ATOM      7  O   UNL     1       4.176   2.652  18.813  0.00  0.00    +0.000 OA
ATOM      8  C   UNL     1       3.274   1.699  18.271  0.00  0.00    +0.000 C 
ENDBRANCH   5   7
BRANCH   1   9
ATOM      9  C   UNL     1       5.627   5.379  14.926  0.00  0.00    +0.000 C 
BRANCH   9  11
ATOM     10  C   UNL     1       6.097   3.648  13.163  0.00  0.00    +0.000 C 
ATOM     11  C   UNL     1       6.186   4.077  14.429  0.00  0.00    +0.000 C 
ENDBRANCH   9  11
ENDBRANCH   1   9
BRANCH   4  12
ATOM     12  O   UNL     1       3.290   5.111  20.113  0.00  0.00    +0.000 OA
BRANCH  12  13
ATOM     13  C   UNL     1       1.871   5.185  20.214  0.00  0.00    +0.000 C 
ATOM     14  C   UNL     1       1.354   3.858  20.745  0.00  0.00    +0.000 C 
ENDBRANCH  12  13
ENDBRANCH   4  12
TORSDOF 5
ENDMDL
MODEL 6
REMARK VINA RESULT:      -5.6      2.180      5.192
REMARK  Name = 
REMARK  7 active torsions:
REMARK  status: ('A' for Active; 'I' for Inactive)
REMARK    1  A    between atoms: C_2  and  C_3
REMARK    2  A    between atoms: C_3  and  C_4
REMARK    3  A    between atoms: C_7  and  O_8
REMARK    4  A    between atoms: O_8  and  C_9
REMARK    5  A    between atoms: C_9  and  C_10
REMARK    6  A    between atoms: C_11  and  O_12
REMARK    7  A    between atoms: O_12  and  C_13
REMARK                            x       y       z     vdW  Elec       q    Type
REMARK                         _______ _______ _______ _____ _____    ______ ____
ROOT
ATOM      1  C   UNL     1       6.270   4.485  15.135  0.00  0.00    +0.000 A 
ATOM      2  C   UNL     1       4.931   4.305  15.487  0.00  0.00    +0.000 A 
ATOM      3  C   UNL     1       4.563   4.257  16.833  0.00  0.00    +0.000 A 
ATOM      4  C   UNL     1       5.516   4.385  17.854  0.00  0.00    +0.000 A 
ATOM      5  C   UNL     1       6.870   4.555  17.513  0.00  0.00    +0.000 A 
ATOM      6  C   UNL     1       7.229   4.593  16.156  0.00  0.00    +0.000 A 
ENDROOT
BRANCH   5   7
ATOM      7  O   UNL     1       7.785   4.679  18.525  0.00  0.00    +0.000 OA
ATOM      8  C   UNL     1       7.914   5.932  19.180  0.00  0.00    +0.000 C 
ENDBRANCH   5   7
BRANCH   1   9
ATOM      9  C   UNL     1       6.687   4.546  13.685  0.00  0.00    +0.000 C 
BRANCH   9  11
ATOM     10  C   UNL     1       5.167   3.442  12.014  0.00  0.00    +0.000 C 
ATOM     11  C   UNL     1       6.181   3.379  12.887  0.00  0.00    +0.000 C 
ENDBRANCH   9  11
ENDBRANCH   1   9
BRANCH   4  12
ATOM     12  O   UNL     1       4.946   4.322  19.104  0.00  0.00    +0.000 OA
BRANCH  12  13
ATOM     13  C   UNL     1       4.076   5.373  19.513  0.00  0.00    +0.000 C 
ATOM     14  C   UNL     1       2.869   4.760  20.204  0.00  0.00    +0.000 C 
ENDBRANCH  12  13
ENDBRANCH   4  12
TORSDOF 5
ENDMDL
MODEL 7
REMARK VINA RESULT:      -5.6      1.962      3.792
REMARK  Name = 
REMARK  7 active torsions:
REMARK  status: ('A' for Active; 'I' for Inactive)
REMARK    1  A    between atoms: C_2  and  C_3
REMARK    2  A    between atoms: C_3  and  C_4
REMARK    3  A    between atoms: C_7  and  O_8
REMARK    4  A    between atoms: O_8  and  C_9
REMARK    5  A    between atoms: C_9  and  C_10
REMARK    6  A    between atoms: C_11  and  O_12
REMARK    7  A    between atoms: O_12  and  C_13
REMARK                            x       y       z     vdW  Elec       q    Type
REMARK                         _______ _______ _______ _____ _____    ______ ____
ROOT
ATOM      1  C   UNL     1       3.428   6.395  17.845  0.00  0.00    +0.000 A 
ATOM      2  C   UNL     1       4.444   6.810  16.982  0.00  0.00    +0.000 A 
ATOM      3  C   UNL     1       5.232   5.865  16.324  0.00  0.00    +0.000 A 
ATOM      4  C   UNL     1       5.029   4.490  16.511  0.00  0.00    +0.000 A 
ATOM      5  C   UNL     1       4.017   4.057  17.387  0.00  0.00    +0.000 A 
ATOM      6  C   UNL     1       3.236   5.019  18.050  0.00  0.00    +0.000 A 
ENDROOT
BRANCH   5   7
ATOM      7  O   UNL     1       3.834   2.710  17.555  0.00  0.00    +0.000 OA
ATOM      8  C   UNL     1       2.520   2.222  17.779  0.00  0.00    +0.000 C 
ENDBRANCH   5   7
BRANCH   1   9
ATOM      9  C   UNL     1       2.561   7.403  18.561  0.00  0.00    +0.000 C 
BRANCH   9  11
ATOM     10  C   UNL     1       1.499   9.638  18.116  0.00  0.00    +0.000 C 
ATOM     11  C   UNL     1       2.236   8.596  17.709  0.00  0.00    +0.000 C 
ENDBRANCH   9  11
ENDBRANCH   1   9
BRANCH   4  12
ATOM     12  O   UNL     1       5.901   3.732  15.765  0.00  0.00    +0.000 OA
BRANCH  12  13
ATOM     13  C   UNL     1       6.612   4.358  14.700  0.00  0.00    +0.000 C 
ATOM     14  C   UNL     1       6.139   3.759  13.386  0.00  0.00    +0.000 C 
ENDBRANCH  12  13
ENDBRANCH   4  12
TORSDOF 5
ENDMDL
MODEL 8
REMARK VINA RESULT:      -5.6      2.386      5.378
REMARK  Name = 
REMARK  7 active torsions:
REMARK  status: ('A' for Active; 'I' for Inactive)
REMARK    1  A    between atoms: C_2  and  C_3
REMARK    2  A    between atoms: C_3  and  C_4
REMARK    3  A    between atoms: C_7  and  O_8
REMARK    4  A    between atoms: O_8  and  C_9
REMARK    5  A    between atoms: C_9  and  C_10
REMARK    6  A    between atoms: C_11  and  O_12
REMARK    7  A    between atoms: O_12  and  C_13
REMARK                            x       y       z     vdW  Elec       q    Type
REMARK                         _______ _______ _______ _____ _____    ______ ____
ROOT
ATOM      1  C   UNL     1       5.315   4.761  16.279  0.00  0.00    +0.000 A 
ATOM      2  C   UNL     1       4.283   3.846  16.493  0.00  0.00    +0.000 A 
ATOM      3  C   UNL     1       4.023   3.375  17.781  0.00  0.00    +0.000 A 
ATOM      4  C   UNL     1       4.783   3.800  18.880  0.00  0.00    +0.000 A 
ATOM      5  C   UNL     1       5.835   4.712  18.677  0.00  0.00    +0.000 A 
ATOM      6  C   UNL     1       6.092   5.173  17.375  0.00  0.00    +0.000 A 
ENDROOT
BRANCH   5   7
ATOM      7  O   UNL     1       6.564   5.116  19.763  0.00  0.00    +0.000 OA
ATOM      8  C   UNL     1       7.847   5.685  19.551  0.00  0.00    +0.000 C 
ENDBRANCH   5   7
BRANCH   1   9
ATOM      9  C   UNL     1       5.608   5.288  14.894  0.00  0.00    +0.000 C 
BRANCH   9  11
ATOM     10  C   UNL     1       6.140   3.633  13.078  0.00  0.00    +0.000 C 
ATOM     11  C   UNL     1       6.524   4.389  14.114  0.00  0.00    +0.000 C 
ENDBRANCH   9  11
ENDBRANCH   1   9
BRANCH   4  12
ATOM     12  O   UNL     1       4.358   3.227  20.055  0.00  0.00    +0.000 OA
BRANCH  12  13
ATOM     13  C   UNL     1       3.060   2.642  20.101  0.00  0.00    +0.000 C 
ATOM     14  C   UNL     1       2.385   3.063  21.397  0.00  0.00    +0.000 C 
ENDBRANCH  12  13
ENDBRANCH   4  12
TORSDOF 5
ENDMDL
MODEL 9
REMARK VINA RESULT:      -5.6      2.426      5.023
REMARK  Name = 
REMARK  7 active torsions:
REMARK  status: ('A' for Active; 'I' for Inactive)
REMARK    1  A    between atoms: C_2  and  C_3
REMARK    2  A    between atoms: C_3  and  C_4
REMARK    3  A    between atoms: C_7  and  O_8
REMARK    4  A    between atoms: O_8  and  C_9
REMARK    5  A    between atoms: C_9  and  C_10
REMARK    6  A    between atoms: C_11  and  O_12
REMARK    7  A    between atoms: O_12  and  C_13
REMARK                            x       y       z     vdW  Elec       q    Type
REMARK                         _______ _______ _______ _____ _____    ______ ____
ROOT
ATOM      1  C   UNL     1       4.658   5.295  16.679  0.00  0.00    +0.000 A 
ATOM      2  C   UNL     1       4.147   6.334  17.457  0.00  0.00    +0.000 A 
ATOM      3  C   UNL     1       3.129   6.082  18.379  0.00  0.00    +0.000 A 
ATOM      4  C   UNL     1       2.596   4.795  18.542  0.00  0.00    +0.000 A 
ATOM      5  C   UNL     1       3.093   3.740  17.755  0.00  0.00    +0.000 A 
ATOM      6  C   UNL     1       4.112   4.008  16.826  0.00  0.00    +0.000 A 
ENDROOT
BRANCH   5   7
ATOM      7  O   UNL     1       2.561   2.491  17.931  0.00  0.00    +0.000 OA
ATOM      8  C   UNL     1       3.385   1.466  18.465  0.00  0.00    +0.000 C 
ENDBRANCH   5   7
BRANCH   1   9
ATOM      9  C   UNL     1       5.764   5.546  15.682  0.00  0.00    +0.000 C 
BRANCH   9  11
ATOM     10  C   UNL     1       7.508   4.627  17.243  0.00  0.00    +0.000 C 
ATOM     11  C   UNL     1       7.020   4.788  16.006  0.00  0.00    +0.000 C 
ENDBRANCH   9  11
ENDBRANCH   1   9
BRANCH   4  12
ATOM     12  O   UNL     1       1.615   4.761  19.504  0.00  0.00    +0.000 OA
BRANCH  12  13
ATOM     13  C   UNL     1       2.000   4.712  20.874  0.00  0.00    +0.000 C 
ATOM     14  C   UNL     1       1.871   3.278  21.362  0.00  0.00    +0.000 C 
ENDBRANCH  12  13
ENDBRANCH   4  12
TORSDOF 5
ENDMDL
