MODEL 1
REMARK VINA RESULT:      -7.8      0.000      0.000
REMARK  Name = 
REMARK  8 active torsions:
REMARK  status: ('A' for Active; 'I' for Inactive)
REMARK    1  A    between atoms: C_1  and  O_2
REMARK    2  A    between atoms: O_2  and  C_3
REMARK    3  A    between atoms: N_6  and  C_7
REMARK    4  A    between atoms: C_10  and  O_11
REMARK    5  A    between atoms: O_11  and  C_12
REMARK    6  A    between atoms: C_14  and  C_15
REMARK    7  A    between atoms: C_15  and  C_17
REMARK    8  A    between atoms: C_23  and  C_25
REMARK                            x       y       z     vdW  Elec       q    Type
REMARK                         _______ _______ _______ _____ _____    ______ ____
ROOT
ATOM      1  C   UNL     1       5.111  15.133  19.746  0.00  0.00    +0.000 A 
ATOM      2  N   UNL     1       4.536  16.209  20.354  0.00  0.00    +0.000 NA
ATOM      3  C   UNL     1       3.410  15.979  21.039  0.00  0.00    +0.000 A 
ATOM      4  C   UNL     1       2.814  14.734  21.147  0.00  0.00    +0.000 A 
ATOM      5  C   UNL     1       2.974  13.977  19.984  0.00  0.00    +0.000 A 
ATOM      6  C   UNL     1       2.084  13.154  19.217  0.00  0.00    +0.000 A 
ATOM      7  C   UNL     1       2.550  13.324  17.917  0.00  0.00    +0.000 A 
ATOM      8  N   UNL     1       3.758  13.980  17.938  0.00  0.00    +0.000 N 
ATOM      9  C   UNL     1       4.170  14.205  19.244  0.00  0.00    +0.000 A 
ATOM     10  H   UNL     1       4.178  14.423  17.130  0.00  0.00    +0.000 HD
ENDROOT
BRANCH   1  14
ATOM     11  C   UNL     1       8.504  14.467  20.419  0.00  0.00    +0.000 A 
ATOM     12  N   UNL     1       8.083  14.644  21.694  0.00  0.00    +0.000 NA
ATOM     13  C   UNL     1       6.808  14.885  21.532  0.00  0.00    +0.000 A 
ATOM     14  N   UNL     1       6.452  14.852  20.195  0.00  0.00    +0.000 N 
ATOM     15  N   UNL     1       7.547  14.508  19.461  0.00  0.00    +0.000 NA
BRANCH  11  17
ATOM     16  C   UNL     1      10.043  12.958  19.606  0.00  0.00    +0.000 C 
ATOM     17  O   UNL     1       9.787  14.305  20.026  0.00  0.00    +0.000 OA
ENDBRANCH  11  17
ENDBRANCH   1  14
BRANCH   4  18
ATOM     18  O   UNL     1       1.908  14.468  22.131  0.00  0.00    +0.000 OA
ATOM     19  C   UNL     1       0.824  15.403  21.985  0.00  0.00    +0.000 C 
ENDBRANCH   4  18
BRANCH   6  20
ATOM     20  C   UNL     1       0.775  12.544  19.531  0.00  0.00    +0.000 C 
ATOM     21  O   UNL     1      -0.260  12.955  18.997  0.00  0.00    +0.000 OA
BRANCH  20  22
ATOM     22  C   UNL     1       0.612  11.341  20.472  0.00  0.00    +0.000 C 
ATOM     23  O   UNL     1       0.446  11.569  21.668  0.00  0.00    +0.000 OA
ATOM     24  N   UNL     1       0.739  10.046  19.945  0.00  0.00    +0.000 N 
ATOM     25  C   UNL     1       0.927   9.711  18.525  0.00  0.00    +0.000 C 
ATOM     26  C   UNL     1       2.062   8.685  18.317  0.00  0.00    +0.000 C 
ATOM     27  N   UNL     1       1.911   7.524  19.211  0.00  0.00    +0.000 N 
ATOM     28  C   UNL     1       2.239   6.248  18.724  0.00  0.00    +0.000 C 
ATOM     29  O   UNL     1       2.677   6.095  17.600  0.00  0.00    +0.000 OA
ATOM     30  C   UNL     1       1.799   7.907  20.633  0.00  0.00    +0.000 C 
ATOM     31  C   UNL     1       0.620   8.879  20.831  0.00  0.00    +0.000 C 
BRANCH  28  32
ATOM     32  C   UNL     1       2.043   5.032  19.559  0.00  0.00    +0.000 A 
ATOM     33  C   UNL     1       2.485   4.963  20.884  0.00  0.00    +0.000 A 
ATOM     34  C   UNL     1       2.278   3.800  21.633  0.00  0.00    +0.000 A 
ATOM     35  C   UNL     1       1.571   2.729  21.090  0.00  0.00    +0.000 A 
ATOM     36  C   UNL     1       1.055   2.820  19.802  0.00  0.00    +0.000 A 
ATOM     37  C   UNL     1       1.299   3.964  19.035  0.00  0.00    +0.000 A 
ENDBRANCH  28  32
ENDBRANCH  20  22
ENDBRANCH   6  20
TORSDOF 6
ENDMDL
MODEL 2
REMARK VINA RESULT:      -7.6      1.322      1.531
REMARK  Name = 
REMARK  8 active torsions:
REMARK  status: ('A' for Active; 'I' for Inactive)
REMARK    1  A    between atoms: C_1  and  O_2
REMARK    2  A    between atoms: O_2  and  C_3
REMARK    3  A    between atoms: N_6  and  C_7
REMARK    4  A    between atoms: C_10  and  O_11
REMARK    5  A    between atoms: O_11  and  C_12
REMARK    6  A    between atoms: C_14  and  C_15
REMARK    7  A    between atoms: C_15  and  C_17
REMARK    8  A    between atoms: C_23  and  C_25
REMARK                            x       y       z     vdW  Elec       q    Type
REMARK                         _______ _______ _______ _____ _____    ______ ____
ROOT
ATOM      1  C   UNL     1       4.139  15.397  18.432  0.00  0.00    +0.000 A 
ATOM      2  N   UNL     1       3.273  16.424  18.195  0.00  0.00    +0.000 NA
ATOM      3  C   UNL     1       2.099  16.376  18.835  0.00  0.00    +0.000 A 
ATOM      4  C   UNL     1       1.729  15.355  19.694  0.00  0.00    +0.000 A 
ATOM      5  C   UNL     1       2.242  14.121  19.287  0.00  0.00    +0.000 A 
ATOM      6  C   UNL     1       1.676  12.805  19.194  0.00  0.00    +0.000 A 
ATOM      7  C   UNL     1       2.341  12.261  18.100  0.00  0.00    +0.000 A 
ATOM      8  N   UNL     1       3.384  13.079  17.735  0.00  0.00    +0.000 N 
ATOM      9  C   UNL     1       3.493  14.151  18.608  0.00  0.00    +0.000 A 
ATOM     10  H   UNL     1       3.862  13.027  16.844  0.00  0.00    +0.000 HD
ENDROOT
BRANCH   1  14
ATOM     11  C   UNL     1       7.294  15.978  19.885  0.00  0.00    +0.000 A 
ATOM     12  N   UNL     1       7.055  17.231  19.429  0.00  0.00    +0.000 NA
ATOM     13  C   UNL     1       5.876  17.103  18.879  0.00  0.00    +0.000 A 
ATOM     14  N   UNL     1       5.399  15.810  18.998  0.00  0.00    +0.000 N 
ATOM     15  N   UNL     1       6.294  15.080  19.720  0.00  0.00    +0.000 NA
BRANCH  11  17
ATOM     16  C   UNL     1       9.102  14.580  19.603  0.00  0.00    +0.000 C 
ATOM     17  O   UNL     1       8.450  15.546  20.438  0.00  0.00    +0.000 OA
ENDBRANCH  11  17
ENDBRANCH   1  14
BRANCH   4  18
ATOM     18  O   UNL     1       0.717  15.520  20.593  0.00  0.00    +0.000 OA
ATOM     19  C   UNL     1       1.278  15.366  21.908  0.00  0.00    +0.000 C 
ENDBRANCH   4  18
BRANCH   6  20
ATOM     20  C   UNL     1       0.465  12.199  19.785  0.00  0.00    +0.000 C 
ATOM     21  O   UNL     1      -0.658  12.627  19.503  0.00  0.00    +0.000 OA
BRANCH  20  22
ATOM     22  C   UNL     1       0.504  10.983  20.722  0.00  0.00    +0.000 C 
ATOM     23  O   UNL     1       0.430  11.189  21.931  0.00  0.00    +0.000 OA
ATOM     24  N   UNL     1       0.702   9.707  20.168  0.00  0.00    +0.000 N 
ATOM     25  C   UNL     1       0.785   9.398  18.733  0.00  0.00    +0.000 C 
ATOM     26  C   UNL     1       1.987   8.484  18.406  0.00  0.00    +0.000 C 
ATOM     27  N   UNL     1       2.029   7.311  19.295  0.00  0.00    +0.000 N 
ATOM     28  C   UNL     1       2.428   6.073  18.763  0.00  0.00    +0.000 C 
ATOM     29  O   UNL     1       2.771   5.967  17.601  0.00  0.00    +0.000 OA
ATOM     30  C   UNL     1       2.016   7.675  20.726  0.00  0.00    +0.000 C 
ATOM     31  C   UNL     1       0.775   8.530  21.046  0.00  0.00    +0.000 C 
BRANCH  28  32
ATOM     32  C   UNL     1       2.425   4.840  19.597  0.00  0.00    +0.000 A 
ATOM     33  C   UNL     1       3.583   4.086  19.808  0.00  0.00    +0.000 A 
ATOM     34  C   UNL     1       3.535   2.935  20.601  0.00  0.00    +0.000 A 
ATOM     35  C   UNL     1       2.352   2.568  21.241  0.00  0.00    +0.000 A 
ATOM     36  C   UNL     1       1.216   3.359  21.102  0.00  0.00    +0.000 A 
ATOM     37  C   UNL     1       1.250   4.485  20.275  0.00  0.00    +0.000 A 
ENDBRANCH  28  32
ENDBRANCH  20  22
ENDBRANCH   6  20
TORSDOF 6
ENDMDL
MODEL 3
REMARK VINA RESULT:      -7.5      5.409      9.838
REMARK  Name = 
REMARK  8 active torsions:
REMARK  status: ('A' for Active; 'I' for Inactive)
REMARK    1  A    between atoms: C_1  and  O_2
REMARK    2  A    between atoms: O_2  and  C_3
REMARK    3  A    between atoms: N_6  and  C_7
REMARK    4  A    between atoms: C_10  and  O_11
REMARK    5  A    between atoms: O_11  and  C_12
REMARK    6  A    between atoms: C_14  and  C_15
REMARK    7  A    between atoms: C_15  and  C_17
REMARK    8  A    between atoms: C_23  and  C_25
REMARK                            x       y       z     vdW  Elec       q    Type
REMARK                         _______ _______ _______ _____ _____    ______ ____
ROOT
ATOM      1  C   UNL     1       5.586   4.783  14.918  0.00  0.00    +0.000 A 
ATOM      2  N   UNL     1       6.130   5.903  15.475  0.00  0.00    +0.000 NA
ATOM      3  C   UNL     1       6.540   5.802  16.744  0.00  0.00    +0.000 A 
ATOM      4  C   UNL     1       6.430   4.647  17.500  0.00  0.00    +0.000 A 
ATOM      5  C   UNL     1       5.279   3.923  17.181  0.00  0.00    +0.000 A 
ATOM      6  C   UNL     1       4.283   3.262  17.976  0.00  0.00    +0.000 A 
ATOM      7  C   UNL     1       3.129   3.420  17.215  0.00  0.00    +0.000 A 
ATOM      8  N   UNL     1       3.454   3.902  15.969  0.00  0.00    +0.000 N 
ATOM      9  C   UNL     1       4.830   4.015  15.833  0.00  0.00    +0.000 A 
ATOM     10  H   UNL     1       2.788   4.316  15.329  0.00  0.00    +0.000 HD
ENDROOT
BRANCH   1  14
ATOM     11  C   UNL     1       7.084   3.237  12.131  0.00  0.00    +0.000 A 
ATOM     12  N   UNL     1       7.557   4.491  11.936  0.00  0.00    +0.000 NA
ATOM     13  C   UNL     1       7.052   5.136  12.954  0.00  0.00    +0.000 A 
ATOM     14  N   UNL     1       6.291   4.304  13.756  0.00  0.00    +0.000 N 
ATOM     15  N   UNL     1       6.365   3.037  13.261  0.00  0.00    +0.000 NA
BRANCH  11  17
ATOM     16  C   UNL     1       6.005   1.456  11.145  0.00  0.00    +0.000 C 
ATOM     17  O   UNL     1       7.225   2.198  11.277  0.00  0.00    +0.000 OA
ENDBRANCH  11  17
ENDBRANCH   1  14
BRANCH   4  18
ATOM     18  O   UNL     1       7.176   4.468  18.628  0.00  0.00    +0.000 OA
ATOM     19  C   UNL     1       7.750   5.741  18.973  0.00  0.00    +0.000 C 
ENDBRANCH   4  18
BRANCH   6  20
ATOM     20  C   UNL     1       4.266   2.825  19.387  0.00  0.00    +0.000 C 
ATOM     21  O   UNL     1       5.077   1.991  19.801  0.00  0.00    +0.000 OA
BRANCH  20  22
ATOM     22  C   UNL     1       3.305   3.405  20.436  0.00  0.00    +0.000 C 
ATOM     23  O   UNL     1       2.709   2.615  21.165  0.00  0.00    +0.000 OA
ATOM     24  N   UNL     1       3.090   4.792  20.464  0.00  0.00    +0.000 N 
ATOM     25  C   UNL     1       3.781   5.785  19.628  0.00  0.00    +0.000 C 
ATOM     26  C   UNL     1       2.797   6.787  18.986  0.00  0.00    +0.000 C 
ATOM     27  N   UNL     1       1.875   7.354  19.985  0.00  0.00    +0.000 N 
ATOM     28  C   UNL     1       1.510   8.707  19.878  0.00  0.00    +0.000 C 
ATOM     29  O   UNL     1       1.908   9.397  18.960  0.00  0.00    +0.000 OA
ATOM     30  C   UNL     1       1.152   6.318  20.750  0.00  0.00    +0.000 C 
ATOM     31  C   UNL     1       2.151   5.369  21.438  0.00  0.00    +0.000 C 
BRANCH  28  32
ATOM     32  C   UNL     1       0.636   9.350  20.897  0.00  0.00    +0.000 A 
ATOM     33  C   UNL     1       0.686   8.994  22.248  0.00  0.00    +0.000 A 
ATOM     34  C   UNL     1      -0.153   9.626  23.171  0.00  0.00    +0.000 A 
ATOM     35  C   UNL     1      -0.995  10.661  22.766  0.00  0.00    +0.000 A 
ATOM     36  C   UNL     1      -0.991  11.078  21.439  0.00  0.00    +0.000 A 
ATOM     37  C   UNL     1      -0.186  10.418  20.506  0.00  0.00    +0.000 A 
ENDBRANCH  28  32
ENDBRANCH  20  22
ENDBRANCH   6  20
TORSDOF 6
ENDMDL
MODEL 4
REMARK VINA RESULT:      -7.4      1.583      1.876
REMARK  Name = 
REMARK  8 active torsions:
REMARK  status: ('A' for Active; 'I' for Inactive)
REMARK    1  A    between atoms: C_1  and  O_2
REMARK    2  A    between atoms: O_2  and  C_3
REMARK    3  A    between atoms: N_6  and  C_7
REMARK    4  A    between atoms: C_10  and  O_11
REMARK    5  A    between atoms: O_11  and  C_12
REMARK    6  A    between atoms: C_14  and  C_15
REMARK    7  A    between atoms: C_15  and  C_17
REMARK    8  A    between atoms: C_23  and  C_25
REMARK                            x       y       z     vdW  Elec       q    Type
REMARK                         _______ _______ _______ _____ _____    ______ ____
ROOT
ATOM      1  C   UNL     1       4.590  15.733  18.439  0.00  0.00    +0.000 A 
ATOM      2  N   UNL     1       3.791  16.741  17.985  0.00  0.00    +0.000 NA
ATOM      3  C   UNL     1       2.525  16.743  18.419  0.00  0.00    +0.000 A 
ATOM      4  C   UNL     1       2.002  15.788  19.274  0.00  0.00    +0.000 A 
ATOM      5  C   UNL     1       2.558  14.527  19.050  0.00  0.00    +0.000 A 
ATOM      6  C   UNL     1       1.998  13.209  18.958  0.00  0.00    +0.000 A 
ATOM      7  C   UNL     1       2.830  12.584  18.034  0.00  0.00    +0.000 A 
ATOM      8  N   UNL     1       3.931  13.371  17.793  0.00  0.00    +0.000 N 
ATOM      9  C   UNL     1       3.906  14.505  18.593  0.00  0.00    +0.000 A 
ATOM     10  H   UNL     1       4.551  13.254  17.002  0.00  0.00    +0.000 HD
ENDROOT
BRANCH   1  14
ATOM     11  C   UNL     1       7.283  17.245  20.132  0.00  0.00    +0.000 A 
ATOM     12  N   UNL     1       7.444  15.983  20.597  0.00  0.00    +0.000 NA
ATOM     13  C   UNL     1       6.476  15.343  19.994  0.00  0.00    +0.000 A 
ATOM     14  N   UNL     1       5.742  16.185  19.178  0.00  0.00    +0.000 N 
ATOM     15  N   UNL     1       6.309  17.423  19.208  0.00  0.00    +0.000 NA
BRANCH  11  17
ATOM     16  C   UNL     1       7.701  18.630  21.923  0.00  0.00    +0.000 C 
ATOM     17  O   UNL     1       7.970  18.333  20.547  0.00  0.00    +0.000 OA
ENDBRANCH  11  17
ENDBRANCH   1  14
BRANCH   4  18
ATOM     18  O   UNL     1       0.855  16.021  19.974  0.00  0.00    +0.000 OA
ATOM     19  C   UNL     1       1.200  16.054  21.370  0.00  0.00    +0.000 C 
ENDBRANCH   4  18
BRANCH   6  20
ATOM     20  C   UNL     1       0.696  12.650  19.378  0.00  0.00    +0.000 C 
ATOM     21  O   UNL     1      -0.361  13.101  18.927  0.00  0.00    +0.000 OA
BRANCH  20  22
ATOM     22  C   UNL     1       0.562  11.455  20.334  0.00  0.00    +0.000 C 
ATOM     23  O   UNL     1       0.414  11.693  21.530  0.00  0.00    +0.000 OA
ATOM     24  N   UNL     1       0.693  10.156  19.817  0.00  0.00    +0.000 N 
ATOM     25  C   UNL     1       0.859   9.809  18.397  0.00  0.00    +0.000 C 
ATOM     26  C   UNL     1       2.001   8.792  18.179  0.00  0.00    +0.000 C 
ATOM     27  N   UNL     1       1.878   7.640  19.087  0.00  0.00    +0.000 N 
ATOM     28  C   UNL     1       2.210   6.361  18.607  0.00  0.00    +0.000 C 
ATOM     29  O   UNL     1       2.630   6.202  17.477  0.00  0.00    +0.000 OA
ATOM     30  C   UNL     1       1.786   8.036  20.507  0.00  0.00    +0.000 C 
ATOM     31  C   UNL     1       0.601   8.997  20.716  0.00  0.00    +0.000 C 
BRANCH  28  32
ATOM     32  C   UNL     1       2.041   5.152  19.457  0.00  0.00    +0.000 A 
ATOM     33  C   UNL     1       2.369   5.150  20.816  0.00  0.00    +0.000 A 
ATOM     34  C   UNL     1       2.192   3.991  21.578  0.00  0.00    +0.000 A 
ATOM     35  C   UNL     1       1.626   2.851  21.009  0.00  0.00    +0.000 A 
ATOM     36  C   UNL     1       1.221   2.871  19.678  0.00  0.00    +0.000 A 
ATOM     37  C   UNL     1       1.438   4.014  18.902  0.00  0.00    +0.000 A 
ENDBRANCH  28  32
ENDBRANCH  20  22
ENDBRANCH   6  20
TORSDOF 6
ENDMDL
MODEL 5
REMARK VINA RESULT:      -7.4      4.823      9.595
REMARK  Name = 
REMARK  8 active torsions:
REMARK  status: ('A' for Active; 'I' for Inactive)
REMARK    1  A    between atoms: C_1  and  O_2
REMARK    2  A    between atoms: O_2  and  C_3
REMARK    3  A    between atoms: N_6  and  C_7
REMARK    4  A    between atoms: C_10  and  O_11
REMARK    5  A    between atoms: O_11  and  C_12
REMARK    6  A    between atoms: C_14  and  C_15
REMARK    7  A    between atoms: C_15  and  C_17
REMARK    8  A    between atoms: C_23  and  C_25
REMARK                            x       y       z     vdW  Elec       q    Type
REMARK                         _______ _______ _______ _____ _____    ______ ____
ROOT
ATOM      1  C   UNL     1       6.490   5.201  15.684  0.00  0.00    +0.000 A 
ATOM      2  N   UNL     1       7.083   4.475  16.675  0.00  0.00    +0.000 NA
ATOM      3  C   UNL     1       6.266   3.894  17.562  0.00  0.00    +0.000 A 
ATOM      4  C   UNL     1       4.886   4.003  17.526  0.00  0.00    +0.000 A 
ATOM      5  C   UNL     1       4.474   5.253  17.059  0.00  0.00    +0.000 A 
ATOM      6  C   UNL     1       3.468   6.181  17.492  0.00  0.00    +0.000 A 
ATOM      7  C   UNL     1       4.030   7.414  17.176  0.00  0.00    +0.000 A 
ATOM      8  N   UNL     1       5.148   7.230  16.397  0.00  0.00    +0.000 N 
ATOM      9  C   UNL     1       5.329   5.885  16.111  0.00  0.00    +0.000 A 
ATOM     10  H   UNL     1       5.852   7.940  16.238  0.00  0.00    +0.000 HD
ENDROOT
BRANCH   1  14
ATOM     11  C   UNL     1       6.857   3.758  12.493  0.00  0.00    +0.000 A 
ATOM     12  N   UNL     1       7.725   4.786  12.343  0.00  0.00    +0.000 NA
ATOM     13  C   UNL     1       7.659   5.374  13.508  0.00  0.00    +0.000 A 
ATOM     14  N   UNL     1       6.779   4.724  14.355  0.00  0.00    +0.000 N 
ATOM     15  N   UNL     1       6.300   3.618  13.719  0.00  0.00    +0.000 NA
BRANCH  11  17
ATOM     16  C   UNL     1       5.057   2.666  11.560  0.00  0.00    +0.000 C 
ATOM     17  O   UNL     1       6.470   2.903  11.519  0.00  0.00    +0.000 OA
ENDBRANCH  11  17
ENDBRANCH   1  14
BRANCH   4  18
ATOM     18  O   UNL     1       4.091   3.120  18.195  0.00  0.00    +0.000 OA
ATOM     19  C   UNL     1       4.438   3.196  19.589  0.00  0.00    +0.000 C 
ENDBRANCH   4  18
BRANCH   6  20
ATOM     20  C   UNL     1       2.293   6.032  18.375  0.00  0.00    +0.000 C 
ATOM     21  O   UNL     1       1.386   5.243  18.095  0.00  0.00    +0.000 OA
BRANCH  20  22
ATOM     22  C   UNL     1       2.142   6.781  19.708  0.00  0.00    +0.000 C 
ATOM     23  O   UNL     1       2.354   6.155  20.744  0.00  0.00    +0.000 OA
ATOM     24  N   UNL     1       1.697   8.113  19.690  0.00  0.00    +0.000 N 
ATOM     25  C   UNL     1       1.440   8.917  18.486  0.00  0.00    +0.000 C 
ATOM     26  C   UNL     1       0.084   9.653  18.560  0.00  0.00    +0.000 C 
ATOM     27  N   UNL     1      -0.067  10.380  19.831  0.00  0.00    +0.000 N 
ATOM     28  C   UNL     1      -0.702  11.633  19.823  0.00  0.00    +0.000 C 
ATOM     29  O   UNL     1      -1.158  12.103  18.799  0.00  0.00    +0.000 OA
ATOM     30  C   UNL     1       0.130   9.515  21.012  0.00  0.00    +0.000 C 
ATOM     31  C   UNL     1       1.514   8.841  20.954  0.00  0.00    +0.000 C 
BRANCH  28  32
ATOM     32  C   UNL     1      -0.823  12.442  21.066  0.00  0.00    +0.000 A 
ATOM     33  C   UNL     1      -0.003  13.548  21.314  0.00  0.00    +0.000 A 
ATOM     34  C   UNL     1      -0.153  14.281  22.495  0.00  0.00    +0.000 A 
ATOM     35  C   UNL     1      -1.161  13.959  23.402  0.00  0.00    +0.000 A 
ATOM     36  C   UNL     1      -2.034  12.912  23.125  0.00  0.00    +0.000 A 
ATOM     37  C   UNL     1      -1.859  12.150  21.966  0.00  0.00    +0.000 A 
ENDBRANCH  28  32
ENDBRANCH  20  22
ENDBRANCH   6  20
TORSDOF 6
ENDMDL
MODEL 6
REMARK VINA RESULT:      -7.4      1.031      1.136
REMARK  Name = 
REMARK  8 active torsions:
REMARK  status: ('A' for Active; 'I' for Inactive)
REMARK    1  A    between atoms: C_1  and  O_2
REMARK    2  A    between atoms: O_2  and  C_3
REMARK    3  A    between atoms: N_6  and  C_7
REMARK    4  A    between atoms: C_10  and  O_11
REMARK    5  A    between atoms: O_11  and  C_12
REMARK    6  A    between atoms: C_14  and  C_15
REMARK    7  A    between atoms: C_15  and  C_17
REMARK    8  A    between atoms: C_23  and  C_25
REMARK                            x       y       z     vdW  Elec       q    Type
REMARK                         _______ _______ _______ _____ _____    ______ ____
ROOT
ATOM      1  C   UNL     1       4.755  15.070  18.745  0.00  0.00    +0.000 A 
ATOM      2  N   UNL     1       4.114  16.262  18.909  0.00  0.00    +0.000 NA
ATOM      3  C   UNL     1       3.050  16.263  19.721  0.00  0.00    +0.000 A 
ATOM      4  C   UNL     1       2.577  15.138  20.374  0.00  0.00    +0.000 A 
ATOM      5  C   UNL     1       2.748  13.981  19.609  0.00  0.00    +0.000 A 
ATOM      6  C   UNL     1       1.899  12.861  19.319  0.00  0.00    +0.000 A 
ATOM      7  C   UNL     1       2.282  12.511  18.029  0.00  0.00    +0.000 A 
ATOM      8  N   UNL     1       3.424  13.192  17.680  0.00  0.00    +0.000 N 
ATOM      9  C   UNL     1       3.878  13.960  18.743  0.00  0.00    +0.000 A 
ATOM     10  H   UNL     1       3.760  13.289  16.730  0.00  0.00    +0.000 HD
ENDROOT
BRANCH   1  14
ATOM     11  C   UNL     1       8.224  14.966  19.340  0.00  0.00    +0.000 A 
ATOM     12  N   UNL     1       7.850  15.596  20.478  0.00  0.00    +0.000 NA
ATOM     13  C   UNL     1       6.551  15.662  20.342  0.00  0.00    +0.000 A 
ATOM     14  N   UNL     1       6.137  15.084  19.155  0.00  0.00    +0.000 N 
ATOM     15  N   UNL     1       7.223  14.561  18.522  0.00  0.00    +0.000 NA
BRANCH  11  17
ATOM     16  C   UNL     1      10.441  15.270  19.884  0.00  0.00    +0.000 C 
ATOM     17  O   UNL     1       9.497  14.756  18.935  0.00  0.00    +0.000 OA
ENDBRANCH  11  17
ENDBRANCH   1  14
BRANCH   4  18
ATOM     18  O   UNL     1       1.750  15.243  21.453  0.00  0.00    +0.000 OA
ATOM     19  C   UNL     1       2.509  15.833  22.523  0.00  0.00    +0.000 C 
ENDBRANCH   4  18
BRANCH   6  20
ATOM     20  C   UNL     1       0.670  12.352  19.963  0.00  0.00    +0.000 C 
ATOM     21  O   UNL     1      -0.422  12.888  19.753  0.00  0.00    +0.000 OA
BRANCH  20  22
ATOM     22  C   UNL     1       0.646  11.111  20.868  0.00  0.00    +0.000 C 
ATOM     23  O   UNL     1       0.560  11.289  22.080  0.00  0.00    +0.000 OA
ATOM     24  N   UNL     1       0.803   9.844  20.283  0.00  0.00    +0.000 N 
ATOM     25  C   UNL     1       0.898   9.568  18.842  0.00  0.00    +0.000 C 
ATOM     26  C   UNL     1       2.069   8.616  18.511  0.00  0.00    +0.000 C 
ATOM     27  N   UNL     1       2.050   7.420  19.369  0.00  0.00    +0.000 N 
ATOM     28  C   UNL     1       2.409   6.181  18.811  0.00  0.00    +0.000 C 
ATOM     29  O   UNL     1       2.768   6.091  17.653  0.00  0.00    +0.000 OA
ATOM     30  C   UNL     1       2.027   7.748  20.809  0.00  0.00    +0.000 C 
ATOM     31  C   UNL     1       0.816   8.643  21.132  0.00  0.00    +0.000 C 
BRANCH  28  32
ATOM     32  C   UNL     1       2.345   4.929  19.612  0.00  0.00    +0.000 A 
ATOM     33  C   UNL     1       1.162   4.498  20.219  0.00  0.00    +0.000 A 
ATOM     34  C   UNL     1       1.146   3.313  20.962  0.00  0.00    +0.000 A 
ATOM     35  C   UNL     1       2.288   2.518  21.047  0.00  0.00    +0.000 A 
ATOM     36  C   UNL     1       3.447   2.898  20.377  0.00  0.00    +0.000 A 
ATOM     37  C   UNL     1       3.478   4.104  19.671  0.00  0.00    +0.000 A 
ENDBRANCH  28  32
ENDBRANCH  20  22
ENDBRANCH   6  20
TORSDOF 6
ENDMDL
MODEL 7
REMARK VINA RESULT:      -7.3      1.221      1.489
REMARK  Name = 
REMARK  8 active torsions:
REMARK  status: ('A' for Active; 'I' for Inactive)
REMARK    1  A    between atoms: C_1  and  O_2
REMARK    2  A    between atoms: O_2  and  C_3
REMARK    3  A    between atoms: N_6  and  C_7
REMARK    4  A    between atoms: C_10  and  O_11
REMARK    5  A    between atoms: O_11  and  C_12
REMARK    6  A    between atoms: C_14  and  C_15
REMARK    7  A    between atoms: C_15  and  C_17
REMARK    8  A    between atoms: C_23  and  C_25
REMARK                            x       y       z     vdW  Elec       q    Type
REMARK                         _______ _______ _______ _____ _____    ______ ____
ROOT
ATOM      1  C   UNL     1       4.658  15.316  20.945  0.00  0.00    +0.000 A 
ATOM      2  N   UNL     1       3.874  16.305  21.462  0.00  0.00    +0.000 NA
ATOM      3  C   UNL     1       2.621  15.968  21.786  0.00  0.00    +0.000 A 
ATOM      4  C   UNL     1       2.095  14.698  21.614  0.00  0.00    +0.000 A 
ATOM      5  C   UNL     1       2.612  14.069  20.479  0.00  0.00    +0.000 A 
ATOM      6  C   UNL     1       2.015  13.299  19.426  0.00  0.00    +0.000 A 
ATOM      7  C   UNL     1       2.806  13.616  18.326  0.00  0.00    +0.000 A 
ATOM      8  N   UNL     1       3.921  14.307  18.738  0.00  0.00    +0.000 N 
ATOM      9  C   UNL     1       3.947  14.413  20.122  0.00  0.00    +0.000 A 
ATOM     10  H   UNL     1       4.517  14.844  18.121  0.00  0.00    +0.000 HD
ENDROOT
BRANCH   1  14
ATOM     11  C   UNL     1       7.700  15.023  22.695  0.00  0.00    +0.000 A 
ATOM     12  N   UNL     1       7.055  13.968  23.248  0.00  0.00    +0.000 NA
ATOM     13  C   UNL     1       5.902  13.998  22.631  0.00  0.00    +0.000 A 
ATOM     14  N   UNL     1       5.841  15.038  21.721  0.00  0.00    +0.000 N 
ATOM     15  N   UNL     1       7.044  15.675  21.706  0.00  0.00    +0.000 NA
BRANCH  11  17
ATOM     16  C   UNL     1       9.937  15.131  22.158  0.00  0.00    +0.000 C 
ATOM     17  O   UNL     1       8.904  15.502  23.081  0.00  0.00    +0.000 OA
ENDBRANCH  11  17
ENDBRANCH   1  14
BRANCH   4  18
ATOM     18  O   UNL     1       0.973  14.303  22.282  0.00  0.00    +0.000 OA
ATOM     19  C   UNL     1      -0.003  15.350  22.145  0.00  0.00    +0.000 C 
ENDBRANCH   4  18
BRANCH   6  20
ATOM     20  C   UNL     1       0.710  12.615  19.311  0.00  0.00    +0.000 C 
ATOM     21  O   UNL     1      -0.122  12.975  18.473  0.00  0.00    +0.000 OA
BRANCH  20  22
ATOM     22  C   UNL     1       0.323  11.394  20.159  0.00  0.00    +0.000 C 
ATOM     23  O   UNL     1      -0.162  11.599  21.269  0.00  0.00    +0.000 OA
ATOM     24  N   UNL     1       0.610  10.110  19.668  0.00  0.00    +0.000 N 
ATOM     25  C   UNL     1       1.177   9.802  18.346  0.00  0.00    +0.000 C 
ATOM     26  C   UNL     1       2.344   8.795  18.437  0.00  0.00    +0.000 C 
ATOM     27  N   UNL     1       1.980   7.618  19.243  0.00  0.00    +0.000 N 
ATOM     28  C   UNL     1       2.450   6.354  18.845  0.00  0.00    +0.000 C 
ATOM     29  O   UNL     1       3.176   6.227  17.879  0.00  0.00    +0.000 OA
ATOM     30  C   UNL     1       1.484   7.975  20.588  0.00  0.00    +0.000 C 
ATOM     31  C   UNL     1       0.278   8.926  20.475  0.00  0.00    +0.000 C 
BRANCH  28  32
ATOM     32  C   UNL     1       2.059   5.122  19.582  0.00  0.00    +0.000 A 
ATOM     33  C   UNL     1       1.255   4.135  19.002  0.00  0.00    +0.000 A 
ATOM     34  C   UNL     1       0.913   2.992  19.731  0.00  0.00    +0.000 A 
ATOM     35  C   UNL     1       1.424   2.793  21.012  0.00  0.00    +0.000 A 
ATOM     36  C   UNL     1       2.291   3.730  21.565  0.00  0.00    +0.000 A 
ATOM     37  C   UNL     1       2.599   4.895  20.857  0.00  0.00    +0.000 A 
ENDBRANCH  28  32
ENDBRANCH  20  22
ENDBRANCH   6  20
TORSDOF 6
ENDMDL
MODEL 8
REMARK VINA RESULT:      -7.3      1.076      1.140
REMARK  Name = 
REMARK  8 active torsions:
REMARK  status: ('A' for Active; 'I' for Inactive)
REMARK    1  A    between atoms: C_1  and  O_2
REMARK    2  A    between atoms: O_2  and  C_3
REMARK    3  A    between atoms: N_6  and  C_7
REMARK    4  A    between atoms: C_10  and  O_11
REMARK    5  A    between atoms: O_11  and  C_12
REMARK    6  A    between atoms: C_14  and  C_15
REMARK    7  A    between atoms: C_15  and  C_17
REMARK    8  A    between atoms: C_23  and  C_25
REMARK                            x       y       z     vdW  Elec       q    Type
REMARK                         _______ _______ _______ _____ _____    ______ ____
ROOT
ATOM      1  C   UNL     1       4.495  15.599  19.723  0.00  0.00    +0.000 A 
ATOM      2  N   UNL     1       3.719  16.717  19.805  0.00  0.00    +0.000 NA
ATOM      3  C   UNL     1       2.455  16.540  20.207  0.00  0.00    +0.000 A 
ATOM      4  C   UNL     1       1.912  15.306  20.523  0.00  0.00    +0.000 A 
ATOM      5  C   UNL     1       2.438  14.287  19.726  0.00  0.00    +0.000 A 
ATOM      6  C   UNL     1       1.846  13.176  19.035  0.00  0.00    +0.000 A 
ATOM      7  C   UNL     1       2.660  13.042  17.915  0.00  0.00    +0.000 A 
ATOM      8  N   UNL     1       3.779  13.829  18.055  0.00  0.00    +0.000 N 
ATOM      9  C   UNL     1       3.784  14.456  19.293  0.00  0.00    +0.000 A 
ATOM     10  H   UNL     1       4.394  14.083  17.292  0.00  0.00    +0.000 HD
ENDROOT
BRANCH   1  14
ATOM     11  C   UNL     1       7.282  15.239  21.847  0.00  0.00    +0.000 A 
ATOM     12  N   UNL     1       7.500  16.517  21.453  0.00  0.00    +0.000 NA
ATOM     13  C   UNL     1       6.484  16.737  20.660  0.00  0.00    +0.000 A 
ATOM     14  N   UNL     1       5.661  15.629  20.571  0.00  0.00    +0.000 N 
ATOM     15  N   UNL     1       6.139  14.663  21.404  0.00  0.00    +0.000 NA
BRANCH  11  17
ATOM     16  C   UNL     1       8.793  13.502  21.797  0.00  0.00    +0.000 C 
ATOM     17  O   UNL     1       8.123  14.488  22.593  0.00  0.00    +0.000 OA
ENDBRANCH  11  17
ENDBRANCH   1  14
BRANCH   4  18
ATOM     18  O   UNL     1       0.774  15.206  21.266  0.00  0.00    +0.000 OA
ATOM     19  C   UNL     1       0.894  16.123  22.368  0.00  0.00    +0.000 C 
ENDBRANCH   4  18
BRANCH   6  20
ATOM     20  C   UNL     1       0.533  12.511  19.162  0.00  0.00    +0.000 C 
ATOM     21  O   UNL     1      -0.425  12.863  18.467  0.00  0.00    +0.000 OA
BRANCH  20  22
ATOM     22  C   UNL     1       0.280  11.320  20.099  0.00  0.00    +0.000 C 
ATOM     23  O   UNL     1      -0.080  11.563  21.248  0.00  0.00    +0.000 OA
ATOM     24  N   UNL     1       0.546  10.023  19.632  0.00  0.00    +0.000 N 
ATOM     25  C   UNL     1       0.967   9.671  18.268  0.00  0.00    +0.000 C 
ATOM     26  C   UNL     1       2.166   8.697  18.264  0.00  0.00    +0.000 C 
ATOM     27  N   UNL     1       1.930   7.548  19.155  0.00  0.00    +0.000 N 
ATOM     28  C   UNL     1       2.387   6.280  18.758  0.00  0.00    +0.000 C 
ATOM     29  O   UNL     1       3.001   6.127  17.720  0.00  0.00    +0.000 OA
ATOM     30  C   UNL     1       1.581   7.952  20.532  0.00  0.00    +0.000 C 
ATOM     31  C   UNL     1       0.343   8.868  20.520  0.00  0.00    +0.000 C 
BRANCH  28  32
ATOM     32  C   UNL     1       2.119   5.072  19.585  0.00  0.00    +0.000 A 
ATOM     33  C   UNL     1       2.553   4.969  20.910  0.00  0.00    +0.000 A 
ATOM     34  C   UNL     1       2.277   3.816  21.651  0.00  0.00    +0.000 A 
ATOM     35  C   UNL     1       1.510   2.790  21.100  0.00  0.00    +0.000 A 
ATOM     36  C   UNL     1       1.004   2.920  19.810  0.00  0.00    +0.000 A 
ATOM     37  C   UNL     1       1.316   4.052  19.052  0.00  0.00    +0.000 A 
ENDBRANCH  28  32
ENDBRANCH  20  22
ENDBRANCH   6  20
TORSDOF 6
ENDMDL
MODEL 9
REMARK VINA RESULT:      -7.2      4.453      8.329
REMARK  Name = 
REMARK  8 active torsions:
REMARK  status: ('A' for Active; 'I' for Inactive)
REMARK    1  A    between atoms: C_1  and  O_2
REMARK    2  A    between atoms: O_2  and  C_3
REMARK    3  A    between atoms: N_6  and  C_7
REMARK    4  A    between atoms: C_10  and  O_11
REMARK    5  A    between atoms: O_11  and  C_12
REMARK    6  A    between atoms: C_14  and  C_15
REMARK    7  A    between atoms: C_15  and  C_17
REMARK    8  A    between atoms: C_23  and  C_25
REMARK                            x       y       z     vdW  Elec       q    Type
REMARK                         _______ _______ _______ _____ _____    ______ ____
ROOT
ATOM      1  C   UNL     1      -4.871  12.980  20.058  0.00  0.00    +0.000 A 
ATOM      2  N   UNL     1      -4.881  12.482  18.789  0.00  0.00    +0.000 NA
ATOM      3  C   UNL     1      -3.761  11.878  18.374  0.00  0.00    +0.000 A 
ATOM      4  C   UNL     1      -2.621  11.751  19.149  0.00  0.00    +0.000 A 
ATOM      5  C   UNL     1      -2.434  12.853  19.987  0.00  0.00    +0.000 A 
ATOM      6  C   UNL     1      -1.287  13.644  20.329  0.00  0.00    +0.000 A 
ATOM      7  C   UNL     1      -1.831  14.909  20.526  0.00  0.00    +0.000 A 
ATOM      8  N   UNL     1      -3.204  14.826  20.551  0.00  0.00    +0.000 N 
ATOM      9  C   UNL     1      -3.616  13.505  20.442  0.00  0.00    +0.000 A 
ATOM     10  H   UNL     1      -3.823  15.620  20.445  0.00  0.00    +0.000 HD
ENDROOT
BRANCH   1  14
ATOM     11  C   UNL     1      -7.240  11.920  22.438  0.00  0.00    +0.000 A 
ATOM     12  N   UNL     1      -7.566  11.062  21.443  0.00  0.00    +0.000 NA
ATOM     13  C   UNL     1      -6.709  11.385  20.510  0.00  0.00    +0.000 A 
ATOM     14  N   UNL     1      -5.875  12.409  20.921  0.00  0.00    +0.000 N 
ATOM     15  N   UNL     1      -6.170  12.719  22.214  0.00  0.00    +0.000 NA
BRANCH  11  17
ATOM     16  C   UNL     1      -7.334  13.104  24.412  0.00  0.00    +0.000 C 
ATOM     17  O   UNL     1      -7.915  12.076  23.599  0.00  0.00    +0.000 OA
ENDBRANCH  11  17
ENDBRANCH   1  14
BRANCH   4  18
ATOM     18  O   UNL     1      -1.661  10.831  18.847  0.00  0.00    +0.000 OA
ATOM     19  C   UNL     1      -2.297   9.765  18.120  0.00  0.00    +0.000 C 
ENDBRANCH   4  18
BRANCH   6  20
ATOM     20  C   UNL     1       0.165  13.404  20.186  0.00  0.00    +0.000 C 
ATOM     21  O   UNL     1       0.960  13.811  21.038  0.00  0.00    +0.000 OA
BRANCH  20  22
ATOM     22  C   UNL     1       0.774  12.595  19.031  0.00  0.00    +0.000 C 
ATOM     23  O   UNL     1       0.680  13.059  17.897  0.00  0.00    +0.000 OA
ATOM     24  N   UNL     1       1.336  11.338  19.306  0.00  0.00    +0.000 N 
ATOM     25  C   UNL     1       1.487  10.739  20.640  0.00  0.00    +0.000 C 
ATOM     26  C   UNL     1       1.005   9.271  20.674  0.00  0.00    +0.000 C 
ATOM     27  N   UNL     1       1.590   8.486  19.573  0.00  0.00    +0.000 N 
ATOM     28  C   UNL     1       1.962   7.154  19.816  0.00  0.00    +0.000 C 
ATOM     29  O   UNL     1       1.776   6.634  20.899  0.00  0.00    +0.000 OA
ATOM     30  C   UNL     1       1.349   9.092  18.247  0.00  0.00    +0.000 C 
ATOM     31  C   UNL     1       1.896  10.531  18.212  0.00  0.00    +0.000 C 
BRANCH  28  32
ATOM     32  C   UNL     1       2.619   6.334  18.762  0.00  0.00    +0.000 A 
ATOM     33  C   UNL     1       3.768   6.768  18.094  0.00  0.00    +0.000 A 
ATOM     34  C   UNL     1       4.353   5.964  17.110  0.00  0.00    +0.000 A 
ATOM     35  C   UNL     1       3.838   4.698  16.836  0.00  0.00    +0.000 A 
ATOM     36  C   UNL     1       2.744   4.224  17.554  0.00  0.00    +0.000 A 
ATOM     37  C   UNL     1       2.131   5.044  18.506  0.00  0.00    +0.000 A 
ENDBRANCH  28  32
ENDBRANCH  20  22
ENDBRANCH   6  20
TORSDOF 6
ENDMDL
