MODEL 1
REMARK VINA RESULT:      -7.8      0.000      0.000
REMARK  Name = 
REMARK  16 active torsions:
REMARK  status: ('A' for Active; 'I' for Inactive)
REMARK    1  A    between atoms: C_1  and  O_2
REMARK    2  A    between atoms: O_2  and  C_3
REMARK    3  A    between atoms: C_5  and  O_6
REMARK    4  A    between atoms: O_6  and  C_7
REMARK    5  A    between atoms: C_9  and  N_10
REMARK    6  A    between atoms: N_10  and  C_11
REMARK    7  A    between atoms: N_10  and  C_17
REMARK    8  A    between atoms: C_11  and  C_12
REMARK    9  A    between atoms: C_12  and  N_13
REMARK   10  A    between atoms: N_13  and  C_14
REMARK   11  A    between atoms: C_14  and  C_15
REMARK   12  A    between atoms: C_14  and  C_16
REMARK   13  A    between atoms: C_23  and  C_24
REMARK   14  A    between atoms: N_27  and  C_28
REMARK   15  A    between atoms: C_28  and  C_29
REMARK   16  A    between atoms: C_29  and  O_30
REMARK                            x       y       z     vdW  Elec       q    Type
REMARK                         _______ _______ _______ _____ _____    ______ ____
ROOT
ATOM      1  C   UNL     1       1.654   7.504  20.334  0.00  0.00    +0.000 A 
ATOM      2  C   UNL     1       1.281   6.278  21.010  0.00  0.00    +0.000 A 
ATOM      3  C   UNL     1       1.788   5.096  20.631  0.00  0.00    +0.000 A 
ATOM      4  C   UNL     1       2.759   5.037  19.507  0.00  0.00    +0.000 A 
ATOM      5  N   UNL     1       3.228   3.883  19.152  0.00  0.00    +0.000 NA
ATOM      6  C   UNL     1       4.129   3.873  18.127  0.00  0.00    +0.000 A 
ATOM      7  C   UNL     1       4.606   4.938  17.463  0.00  0.00    +0.000 A 
ATOM      8  C   UNL     1       4.063   6.267  17.893  0.00  0.00    +0.000 A 
ATOM      9  O   UNL     1       4.451   7.306  17.354  0.00  0.00    +0.000 OA
ATOM     10  N   UNL     1       3.114   6.236  18.910  0.00  0.00    +0.000 N 
ATOM     11  C   UNL     1       2.544   7.429  19.328  0.00  0.00    +0.000 A 
ENDROOT
BRANCH   7  12
ATOM     12  C   UNL     1       5.560   4.842  16.406  0.00  0.00    +0.000 A 
ATOM     13  C   UNL     1       6.960   5.031  16.424  0.00  0.00    +0.000 A 
ATOM     14  N   UNL     1       7.518   4.815  15.226  0.00  0.00    +0.000 NA
ATOM     15  N   UNL     1       6.469   4.523  14.437  0.00  0.00    +0.000 N 
ATOM     16  C   UNL     1       5.279   4.517  15.097  0.00  0.00    +0.000 A 
BRANCH  15  17
ATOM     17  C   UNL     1       6.668   4.217  13.033  0.00  0.00    +0.000 C 
BRANCH  17  18
ATOM     18  C   UNL     1       5.590   3.298  12.476  0.00  0.00    +0.000 C 
BRANCH  18  19
ATOM     19  O   UNL     1       6.160   2.151  11.847  0.00  0.00    +0.000 OA
ATOM     20  H   UNL     1       6.268   1.478  12.548  0.00  0.00    +0.000 HD
ENDBRANCH  18  19
ENDBRANCH  17  18
ENDBRANCH  15  17
ENDBRANCH   7  12
BRANCH   1  21
ATOM     21  N   UNL     1       1.146   8.717  20.801  0.00  0.00    +0.000 N 
BRANCH  21  26
ATOM     22  C   UNL     1       0.635  11.847  18.793  0.00  0.00    +0.000 A 
ATOM     23  C   UNL     1      -0.655  11.650  18.310  0.00  0.00    +0.000 A 
ATOM     24  C   UNL     1      -1.338  10.476  18.598  0.00  0.00    +0.000 A 
ATOM     25  C   UNL     1      -0.706   9.466  19.331  0.00  0.00    +0.000 A 
ATOM     26  C   UNL     1       0.564   9.645  19.895  0.00  0.00    +0.000 A 
ATOM     27  C   UNL     1       1.228  10.856  19.585  0.00  0.00    +0.000 A 
BRANCH  22  29
ATOM     28  C   UNL     1       2.600  13.122  18.352  0.00  0.00    +0.000 C 
ATOM     29  O   UNL     1       1.186  13.050  18.445  0.00  0.00    +0.000 OA
ENDBRANCH  22  29
BRANCH  24  30
ATOM     30  O   UNL     1      -2.619  10.397  18.118  0.00  0.00    +0.000 OA
ATOM     31  C   UNL     1      -2.987  11.441  17.220  0.00  0.00    +0.000 C 
ENDBRANCH  24  30
ENDBRANCH  21  26
BRANCH  21  32
ATOM     32  C   UNL     1       1.289   9.058  22.239  0.00  0.00    +0.000 C 
BRANCH  32  33
ATOM     33  C   UNL     1      -0.047   9.511  22.907  0.00  0.00    +0.000 C 
BRANCH  33  34
ATOM     34  N   UNL     1      -0.221  10.939  23.215  0.00  0.00    +0.000 NA
ATOM     35  H   UNL     1       0.677  11.411  23.095  0.00  0.00    +0.000 HD
BRANCH  34  36
ATOM     36  C   UNL     1      -1.245  11.625  22.426  0.00  0.00    +0.000 C 
ATOM     37  C   UNL     1      -2.550  11.871  23.181  0.00  0.00    +0.000 C 
ATOM     38  C   UNL     1      -0.679  12.948  21.908  0.00  0.00    +0.000 C 
ENDBRANCH  34  36
ENDBRANCH  33  34
ENDBRANCH  32  33
ENDBRANCH  21  32
ENDBRANCH   1  21
TORSDOF 12
ENDMDL
MODEL 2
REMARK VINA RESULT:      -7.8      2.437      9.126
REMARK  Name = 
REMARK  16 active torsions:
REMARK  status: ('A' for Active; 'I' for Inactive)
REMARK    1  A    between atoms: C_1  and  O_2
REMARK    2  A    between atoms: O_2  and  C_3
REMARK    3  A    between atoms: C_5  and  O_6
REMARK    4  A    between atoms: O_6  and  C_7
REMARK    5  A    between atoms: C_9  and  N_10
REMARK    6  A    between atoms: N_10  and  C_11
REMARK    7  A    between atoms: N_10  and  C_17
REMARK    8  A    between atoms: C_11  and  C_12
REMARK    9  A    between atoms: C_12  and  N_13
REMARK   10  A    between atoms: N_13  and  C_14
REMARK   11  A    between atoms: C_14  and  C_15
REMARK   12  A    between atoms: C_14  and  C_16
REMARK   13  A    between atoms: C_23  and  C_24
REMARK   14  A    between atoms: N_27  and  C_28
REMARK   15  A    between atoms: C_28  and  C_29
REMARK   16  A    between atoms: C_29  and  O_30
REMARK                            x       y       z     vdW  Elec       q    Type
REMARK                         _______ _______ _______ _____ _____    ______ ____
ROOT
ATOM      1  C   UNL     1       2.708   6.066  18.637  0.00  0.00    +0.000 A 
ATOM      2  C   UNL     1       2.314   5.659  19.970  0.00  0.00    +0.000 A 
ATOM      3  C   UNL     1       1.736   6.525  20.816  0.00  0.00    +0.000 A 
ATOM      4  C   UNL     1       1.480   7.922  20.379  0.00  0.00    +0.000 A 
ATOM      5  N   UNL     1       0.930   8.743  21.216  0.00  0.00    +0.000 NA
ATOM      6  C   UNL     1       0.697  10.013  20.772  0.00  0.00    +0.000 A 
ATOM      7  C   UNL     1       0.952  10.496  19.546  0.00  0.00    +0.000 A 
ATOM      8  C   UNL     1       1.579   9.532  18.585  0.00  0.00    +0.000 A 
ATOM      9  O   UNL     1       1.837   9.878  17.430  0.00  0.00    +0.000 OA
ATOM     10  N   UNL     1       1.842   8.261  19.085  0.00  0.00    +0.000 N 
ATOM     11  C   UNL     1       2.456   7.332  18.257  0.00  0.00    +0.000 A 
ENDROOT
BRANCH   7  12
ATOM     12  C   UNL     1       0.667  11.839  19.157  0.00  0.00    +0.000 A 
ATOM     13  C   UNL     1      -0.479  12.382  18.534  0.00  0.00    +0.000 A 
ATOM     14  N   UNL     1      -0.386  13.707  18.361  0.00  0.00    +0.000 NA
ATOM     15  N   UNL     1       0.835  14.002  18.841  0.00  0.00    +0.000 N 
ATOM     16  C   UNL     1       1.499  12.923  19.336  0.00  0.00    +0.000 A 
BRANCH  15  17
ATOM     17  C   UNL     1       1.317  15.370  18.833  0.00  0.00    +0.000 C 
BRANCH  17  18
ATOM     18  C   UNL     1       0.188  16.388  18.745  0.00  0.00    +0.000 C 
BRANCH  18  19
ATOM     19  O   UNL     1      -0.807  16.146  19.738  0.00  0.00    +0.000 OA
ATOM     20  H   UNL     1      -0.333  16.063  20.589  0.00  0.00    +0.000 HD
ENDBRANCH  18  19
ENDBRANCH  17  18
ENDBRANCH  15  17
ENDBRANCH   7  12
BRANCH   1  21
ATOM     21  N   UNL     1       3.254   5.116  17.772  0.00  0.00    +0.000 N 
BRANCH  21  26
ATOM     22  C   UNL     1       6.872   6.115  17.722  0.00  0.00    +0.000 A 
ATOM     23  C   UNL     1       7.240   5.731  16.435  0.00  0.00    +0.000 A 
ATOM     24  C   UNL     1       6.322   5.102  15.604  0.00  0.00    +0.000 A 
ATOM     25  C   UNL     1       5.041   4.806  16.081  0.00  0.00    +0.000 A 
ATOM     26  C   UNL     1       4.604   5.232  17.342  0.00  0.00    +0.000 A 
ATOM     27  C   UNL     1       5.563   5.876  18.160  0.00  0.00    +0.000 A 
BRANCH  22  29
ATOM     28  C   UNL     1       8.165   8.082  18.094  0.00  0.00    +0.000 C 
ATOM     29  O   UNL     1       7.867   6.735  18.427  0.00  0.00    +0.000 OA
ENDBRANCH  22  29
BRANCH  24  30
ATOM     30  O   UNL     1       6.766   4.806  14.342  0.00  0.00    +0.000 OA
ATOM     31  C   UNL     1       6.016   3.802  13.663  0.00  0.00    +0.000 C 
ENDBRANCH  24  30
ENDBRANCH  21  26
BRANCH  21  32
ATOM     32  C   UNL     1       2.387   4.030  17.247  0.00  0.00    +0.000 C 
BRANCH  32  33
ATOM     33  C   UNL     1       2.784   2.612  17.766  0.00  0.00    +0.000 C 
BRANCH  33  34
ATOM     34  N   UNL     1       1.899   1.957  18.742  0.00  0.00    +0.000 NA
ATOM     35  H   UNL     1       1.693   1.012  18.413  0.00  0.00    +0.000 HD
BRANCH  34  36
ATOM     36  C   UNL     1       2.418   1.896  20.110  0.00  0.00    +0.000 C 
ATOM     37  C   UNL     1       3.833   2.453  20.261  0.00  0.00    +0.000 C 
ATOM     38  C   UNL     1       1.460   2.635  21.045  0.00  0.00    +0.000 C 
ENDBRANCH  34  36
ENDBRANCH  33  34
ENDBRANCH  32  33
ENDBRANCH  21  32
ENDBRANCH   1  21
TORSDOF 12
ENDMDL
MODEL 3
REMARK VINA RESULT:      -7.7      2.401      8.796
REMARK  Name = 
REMARK  16 active torsions:
REMARK  status: ('A' for Active; 'I' for Inactive)
REMARK    1  A    between atoms: C_1  and  O_2
REMARK    2  A    between atoms: O_2  and  C_3
REMARK    3  A    between atoms: C_5  and  O_6
REMARK    4  A    between atoms: O_6  and  C_7
REMARK    5  A    between atoms: C_9  and  N_10
REMARK    6  A    between atoms: N_10  and  C_11
REMARK    7  A    between atoms: N_10  and  C_17
REMARK    8  A    between atoms: C_11  and  C_12
REMARK    9  A    between atoms: C_12  and  N_13
REMARK   10  A    between atoms: N_13  and  C_14
REMARK   11  A    between atoms: C_14  and  C_15
REMARK   12  A    between atoms: C_14  and  C_16
REMARK   13  A    between atoms: C_23  and  C_24
REMARK   14  A    between atoms: N_27  and  C_28
REMARK   15  A    between atoms: C_28  and  C_29
REMARK   16  A    between atoms: C_29  and  O_30
REMARK                            x       y       z     vdW  Elec       q    Type
REMARK                         _______ _______ _______ _____ _____    ______ ____
ROOT
ATOM      1  C   UNL     1       2.753   6.099  18.634  0.00  0.00    +0.000 A 
ATOM      2  C   UNL     1       2.296   5.694  19.949  0.00  0.00    +0.000 A 
ATOM      3  C   UNL     1       1.702   6.568  20.775  0.00  0.00    +0.000 A 
ATOM      4  C   UNL     1       1.494   7.973  20.335  0.00  0.00    +0.000 A 
ATOM      5  N   UNL     1       0.927   8.802  21.154  0.00  0.00    +0.000 NA
ATOM      6  C   UNL     1       0.739  10.078  20.707  0.00  0.00    +0.000 A 
ATOM      7  C   UNL     1       1.054  10.561  19.494  0.00  0.00    +0.000 A 
ATOM      8  C   UNL     1       1.699   9.587  18.555  0.00  0.00    +0.000 A 
ATOM      9  O   UNL     1       2.011   9.933  17.413  0.00  0.00    +0.000 OA
ATOM     10  N   UNL     1       1.915   8.309  19.058  0.00  0.00    +0.000 N 
ATOM     11  C   UNL     1       2.542   7.371  18.252  0.00  0.00    +0.000 A 
ENDROOT
BRANCH   7  12
ATOM     12  C   UNL     1       0.813  11.911  19.101  0.00  0.00    +0.000 A 
ATOM     13  C   UNL     1      -0.363  12.519  18.608  0.00  0.00    +0.000 A 
ATOM     14  N   UNL     1      -0.203  13.829  18.383  0.00  0.00    +0.000 NA
ATOM     15  N   UNL     1       1.086  14.049  18.697  0.00  0.00    +0.000 N 
ATOM     16  C   UNL     1       1.732  12.937  19.141  0.00  0.00    +0.000 A 
BRANCH  15  17
ATOM     17  C   UNL     1       1.653  15.379  18.586  0.00  0.00    +0.000 C 
BRANCH  17  18
ATOM     18  C   UNL     1       3.166  15.357  18.417  0.00  0.00    +0.000 C 
BRANCH  18  19
ATOM     19  O   UNL     1       3.533  15.248  17.043  0.00  0.00    +0.000 OA
ATOM     20  H   UNL     1       4.020  16.067  16.822  0.00  0.00    +0.000 HD
ENDBRANCH  18  19
ENDBRANCH  17  18
ENDBRANCH  15  17
ENDBRANCH   7  12
BRANCH   1  21
ATOM     21  N   UNL     1       3.313   5.141  17.787  0.00  0.00    +0.000 N 
BRANCH  21  26
ATOM     22  C   UNL     1       6.912   6.202  17.678  0.00  0.00    +0.000 A 
ATOM     23  C   UNL     1       7.261   5.836  16.381  0.00  0.00    +0.000 A 
ATOM     24  C   UNL     1       6.338   5.200  15.561  0.00  0.00    +0.000 A 
ATOM     25  C   UNL     1       5.071   4.877  16.060  0.00  0.00    +0.000 A 
ATOM     26  C   UNL     1       4.652   5.284  17.333  0.00  0.00    +0.000 A 
ATOM     27  C   UNL     1       5.616   5.936  18.138  0.00  0.00    +0.000 A 
BRANCH  22  29
ATOM     28  C   UNL     1       8.145   8.201  18.079  0.00  0.00    +0.000 C 
ATOM     29  O   UNL     1       7.909   6.832  18.370  0.00  0.00    +0.000 OA
ENDBRANCH  22  29
BRANCH  24  30
ATOM     30  O   UNL     1       6.762   4.924  14.288  0.00  0.00    +0.000 OA
ATOM     31  C   UNL     1       6.108   3.822  13.663  0.00  0.00    +0.000 C 
ENDBRANCH  24  30
ENDBRANCH  21  26
BRANCH  21  32
ATOM     32  C   UNL     1       2.470   4.015  17.307  0.00  0.00    +0.000 C 
BRANCH  32  33
ATOM     33  C   UNL     1       2.881   2.633  17.903  0.00  0.00    +0.000 C 
BRANCH  33  34
ATOM     34  N   UNL     1       3.018   2.518  19.364  0.00  0.00    +0.000 NA
ATOM     35  H   UNL     1       3.314   3.423  19.736  0.00  0.00    +0.000 HD
BRANCH  34  36
ATOM     36  C   UNL     1       1.816   2.068  20.068  0.00  0.00    +0.000 C 
ATOM     37  C   UNL     1       1.721   2.561  21.510  0.00  0.00    +0.000 C 
ATOM     38  C   UNL     1       0.580   2.503  19.280  0.00  0.00    +0.000 C 
ENDBRANCH  34  36
ENDBRANCH  33  34
ENDBRANCH  32  33
ENDBRANCH  21  32
ENDBRANCH   1  21
TORSDOF 12
ENDMDL
MODEL 4
REMARK VINA RESULT:      -7.6      2.431      9.316
REMARK  Name = 
REMARK  16 active torsions:
REMARK  status: ('A' for Active; 'I' for Inactive)
REMARK    1  A    between atoms: C_1  and  O_2
REMARK    2  A    between atoms: O_2  and  C_3
REMARK    3  A    between atoms: C_5  and  O_6
REMARK    4  A    between atoms: O_6  and  C_7
REMARK    5  A    between atoms: C_9  and  N_10
REMARK    6  A    between atoms: N_10  and  C_11
REMARK    7  A    between atoms: N_10  and  C_17
REMARK    8  A    between atoms: C_11  and  C_12
REMARK    9  A    between atoms: C_12  and  N_13
REMARK   10  A    between atoms: N_13  and  C_14
REMARK   11  A    between atoms: C_14  and  C_15
REMARK   12  A    between atoms: C_14  and  C_16
REMARK   13  A    between atoms: C_23  and  C_24
REMARK   14  A    between atoms: N_27  and  C_28
REMARK   15  A    between atoms: C_28  and  C_29
REMARK   16  A    between atoms: C_29  and  O_30
REMARK                            x       y       z     vdW  Elec       q    Type
REMARK                         _______ _______ _______ _____ _____    ______ ____
ROOT
ATOM      1  C   UNL     1       2.567   6.156  18.739  0.00  0.00    +0.000 A 
ATOM      2  C   UNL     1       2.239   5.801  20.105  0.00  0.00    +0.000 A 
ATOM      3  C   UNL     1       1.722   6.705  20.951  0.00  0.00    +0.000 A 
ATOM      4  C   UNL     1       1.467   8.092  20.481  0.00  0.00    +0.000 A 
ATOM      5  N   UNL     1       0.977   8.950  21.318  0.00  0.00    +0.000 NA
ATOM      6  C   UNL     1       0.742  10.209  20.844  0.00  0.00    +0.000 A 
ATOM      7  C   UNL     1       0.939  10.646  19.590  0.00  0.00    +0.000 A 
ATOM      8  C   UNL     1       1.496   9.639  18.630  0.00  0.00    +0.000 A 
ATOM      9  O   UNL     1       1.697   9.941  17.452  0.00  0.00    +0.000 OA
ATOM     10  N   UNL     1       1.764   8.380  19.158  0.00  0.00    +0.000 N 
ATOM     11  C   UNL     1       2.315   7.413  18.331  0.00  0.00    +0.000 A 
ENDROOT
BRANCH   7  12
ATOM     12  C   UNL     1       0.656  11.981  19.171  0.00  0.00    +0.000 A 
ATOM     13  C   UNL     1      -0.475  12.506  18.507  0.00  0.00    +0.000 A 
ATOM     14  N   UNL     1      -0.385  13.828  18.316  0.00  0.00    +0.000 NA
ATOM     15  N   UNL     1       0.819  14.140  18.825  0.00  0.00    +0.000 N 
ATOM     16  C   UNL     1       1.476  13.073  19.357  0.00  0.00    +0.000 A 
BRANCH  15  17
ATOM     17  C   UNL     1       1.292  15.511  18.809  0.00  0.00    +0.000 C 
BRANCH  17  18
ATOM     18  C   UNL     1       0.200  16.510  19.166  0.00  0.00    +0.000 C 
BRANCH  18  19
ATOM     19  O   UNL     1      -0.750  16.639  18.111  0.00  0.00    +0.000 OA
ATOM     20  H   UNL     1      -1.047  15.733  17.894  0.00  0.00    +0.000 HD
ENDBRANCH  18  19
ENDBRANCH  17  18
ENDBRANCH  15  17
ENDBRANCH   7  12
BRANCH   1  21
ATOM     21  N   UNL     1       3.048   5.168  17.879  0.00  0.00    +0.000 N 
BRANCH  21  26
ATOM     22  C   UNL     1       6.087   4.401  15.813  0.00  0.00    +0.000 A 
ATOM     23  C   UNL     1       7.048   5.184  16.446  0.00  0.00    +0.000 A 
ATOM     24  C   UNL     1       6.693   6.000  17.514  0.00  0.00    +0.000 A 
ATOM     25  C   UNL     1       5.356   6.073  17.918  0.00  0.00    +0.000 A 
ATOM     26  C   UNL     1       4.367   5.254  17.358  0.00  0.00    +0.000 A 
ATOM     27  C   UNL     1       4.765   4.431  16.276  0.00  0.00    +0.000 A 
BRANCH  22  29
ATOM     28  C   UNL     1       6.056   3.878  13.488  0.00  0.00    +0.000 C 
ATOM     29  O   UNL     1       6.574   3.638  14.788  0.00  0.00    +0.000 OA
ENDBRANCH  22  29
BRANCH  24  30
ATOM     30  O   UNL     1       7.718   6.695  18.099  0.00  0.00    +0.000 OA
ATOM     31  C   UNL     1       7.836   8.053  17.681  0.00  0.00    +0.000 C 
ENDBRANCH  24  30
ENDBRANCH  21  26
BRANCH  21  32
ATOM     32  C   UNL     1       2.141   4.070  17.456  0.00  0.00    +0.000 C 
BRANCH  32  33
ATOM     33  C   UNL     1       2.099   2.876  18.461  0.00  0.00    +0.000 C 
BRANCH  33  34
ATOM     34  N   UNL     1       3.374   2.268  18.872  0.00  0.00    +0.000 NA
ATOM     35  H   UNL     1       4.101   2.560  18.216  0.00  0.00    +0.000 HD
BRANCH  34  36
ATOM     36  C   UNL     1       3.796   2.574  20.240  0.00  0.00    +0.000 C 
ATOM     37  C   UNL     1       2.659   2.547  21.260  0.00  0.00    +0.000 C 
ATOM     38  C   UNL     1       4.900   1.600  20.655  0.00  0.00    +0.000 C 
ENDBRANCH  34  36
ENDBRANCH  33  34
ENDBRANCH  32  33
ENDBRANCH  21  32
ENDBRANCH   1  21
TORSDOF 12
ENDMDL
MODEL 5
REMARK VINA RESULT:      -7.6      2.421      9.056
REMARK  Name = 
REMARK  16 active torsions:
REMARK  status: ('A' for Active; 'I' for Inactive)
REMARK    1  A    between atoms: C_1  and  O_2
REMARK    2  A    between atoms: O_2  and  C_3
REMARK    3  A    between atoms: C_5  and  O_6
REMARK    4  A    between atoms: O_6  and  C_7
REMARK    5  A    between atoms: C_9  and  N_10
REMARK    6  A    between atoms: N_10  and  C_11
REMARK    7  A    between atoms: N_10  and  C_17
REMARK    8  A    between atoms: C_11  and  C_12
REMARK    9  A    between atoms: C_12  and  N_13
REMARK   10  A    between atoms: N_13  and  C_14
REMARK   11  A    between atoms: C_14  and  C_15
REMARK   12  A    between atoms: C_14  and  C_16
REMARK   13  A    between atoms: C_23  and  C_24
REMARK   14  A    between atoms: N_27  and  C_28
REMARK   15  A    between atoms: C_28  and  C_29
REMARK   16  A    between atoms: C_29  and  O_30
REMARK                            x       y       z     vdW  Elec       q    Type
REMARK                         _______ _______ _______ _____ _____    ______ ____
ROOT
ATOM      1  C   UNL     1       2.568   6.107  18.731  0.00  0.00    +0.000 A 
ATOM      2  C   UNL     1       2.090   5.717  20.042  0.00  0.00    +0.000 A 
ATOM      3  C   UNL     1       1.562   6.618  20.883  0.00  0.00    +0.000 A 
ATOM      4  C   UNL     1       1.450   8.040  20.463  0.00  0.00    +0.000 A 
ATOM      5  N   UNL     1       0.945   8.895  21.296  0.00  0.00    +0.000 NA
ATOM      6  C   UNL     1       0.845  10.187  20.867  0.00  0.00    +0.000 A 
ATOM      7  C   UNL     1       1.187  10.663  19.659  0.00  0.00    +0.000 A 
ATOM      8  C   UNL     1       1.759   9.661  18.703  0.00  0.00    +0.000 A 
ATOM      9  O   UNL     1       2.089   9.999  17.565  0.00  0.00    +0.000 OA
ATOM     10  N   UNL     1       1.888   8.363  19.189  0.00  0.00    +0.000 N 
ATOM     11  C   UNL     1       2.445   7.396  18.366  0.00  0.00    +0.000 A 
ENDROOT
BRANCH   7  12
ATOM     12  C   UNL     1       1.039  12.032  19.285  0.00  0.00    +0.000 A 
ATOM     13  C   UNL     1       0.036  12.661  18.515  0.00  0.00    +0.000 A 
ATOM     14  N   UNL     1       0.226  13.983  18.412  0.00  0.00    +0.000 NA
ATOM     15  N   UNL     1       1.370  14.191  19.087  0.00  0.00    +0.000 N 
ATOM     16  C   UNL     1       1.889  13.059  19.636  0.00  0.00    +0.000 A 
BRANCH  15  17
ATOM     17  C   UNL     1       1.919  15.528  19.210  0.00  0.00    +0.000 C 
BRANCH  17  18
ATOM     18  C   UNL     1       2.734  15.940  17.992  0.00  0.00    +0.000 C 
BRANCH  18  19
ATOM     19  O   UNL     1       3.236  14.802  17.294  0.00  0.00    +0.000 OA
ATOM     20  H   UNL     1       3.561  15.129  16.432  0.00  0.00    +0.000 HD
ENDBRANCH  18  19
ENDBRANCH  17  18
ENDBRANCH  15  17
ENDBRANCH   7  12
BRANCH   1  21
ATOM     21  N   UNL     1       3.057   5.124  17.868  0.00  0.00    +0.000 N 
BRANCH  21  26
ATOM     22  C   UNL     1       6.143   4.448  15.842  0.00  0.00    +0.000 A 
ATOM     23  C   UNL     1       7.135   4.932  16.691  0.00  0.00    +0.000 A 
ATOM     24  C   UNL     1       6.792   5.522  17.901  0.00  0.00    +0.000 A 
ATOM     25  C   UNL     1       5.444   5.680  18.241  0.00  0.00    +0.000 A 
ATOM     26  C   UNL     1       4.415   5.149  17.452  0.00  0.00    +0.000 A 
ATOM     27  C   UNL     1       4.801   4.548  16.229  0.00  0.00    +0.000 A 
BRANCH  22  29
ATOM     28  C   UNL     1       5.756   3.858  13.565  0.00  0.00    +0.000 C 
ATOM     29  O   UNL     1       6.620   3.880  14.692  0.00  0.00    +0.000 OA
ENDBRANCH  22  29
BRANCH  24  30
ATOM     30  O   UNL     1       7.840   5.923  18.687  0.00  0.00    +0.000 OA
ATOM     31  C   UNL     1       8.199   7.296  18.553  0.00  0.00    +0.000 C 
ENDBRANCH  24  30
ENDBRANCH  21  26
BRANCH  21  32
ATOM     32  C   UNL     1       2.123   4.100  17.331  0.00  0.00    +0.000 C 
BRANCH  32  33
ATOM     33  C   UNL     1       2.442   2.652  17.819  0.00  0.00    +0.000 C 
BRANCH  33  34
ATOM     34  N   UNL     1       1.578   2.061  18.853  0.00  0.00    +0.000 NA
ATOM     35  H   UNL     1       1.281   1.135  18.540  0.00  0.00    +0.000 HD
BRANCH  34  36
ATOM     36  C   UNL     1       2.182   1.958  20.183  0.00  0.00    +0.000 C 
ATOM     37  C   UNL     1       3.623   2.460  20.251  0.00  0.00    +0.000 C 
ATOM     38  C   UNL     1       1.313   2.713  21.189  0.00  0.00    +0.000 C 
ENDBRANCH  34  36
ENDBRANCH  33  34
ENDBRANCH  32  33
ENDBRANCH  21  32
ENDBRANCH   1  21
TORSDOF 12
ENDMDL
MODEL 6
REMARK VINA RESULT:      -7.6      2.695      9.944
REMARK  Name = 
REMARK  16 active torsions:
REMARK  status: ('A' for Active; 'I' for Inactive)
REMARK    1  A    between atoms: C_1  and  O_2
REMARK    2  A    between atoms: O_2  and  C_3
REMARK    3  A    between atoms: C_5  and  O_6
REMARK    4  A    between atoms: O_6  and  C_7
REMARK    5  A    between atoms: C_9  and  N_10
REMARK    6  A    between atoms: N_10  and  C_11
REMARK    7  A    between atoms: N_10  and  C_17
REMARK    8  A    between atoms: C_11  and  C_12
REMARK    9  A    between atoms: C_12  and  N_13
REMARK   10  A    between atoms: N_13  and  C_14
REMARK   11  A    between atoms: C_14  and  C_15
REMARK   12  A    between atoms: C_14  and  C_16
REMARK   13  A    between atoms: C_23  and  C_24
REMARK   14  A    between atoms: N_27  and  C_28
REMARK   15  A    between atoms: C_28  and  C_29
REMARK   16  A    between atoms: C_29  and  O_30
REMARK                            x       y       z     vdW  Elec       q    Type
REMARK                         _______ _______ _______ _____ _____    ______ ____
ROOT
ATOM      1  C   UNL     1       2.151   7.338  19.425  0.00  0.00    +0.000 A 
ATOM      2  C   UNL     1       2.550   7.977  18.187  0.00  0.00    +0.000 A 
ATOM      3  C   UNL     1       2.131   9.213  17.879  0.00  0.00    +0.000 A 
ATOM      4  C   UNL     1       1.252   9.950  18.826  0.00  0.00    +0.000 A 
ATOM      5  N   UNL     1       0.851  11.139  18.503  0.00  0.00    +0.000 NA
ATOM      6  C   UNL     1       0.060  11.788  19.405  0.00  0.00    +0.000 A 
ATOM      7  C   UNL     1      -0.326  11.337  20.610  0.00  0.00    +0.000 A 
ATOM      8  C   UNL     1       0.154   9.965  20.974  0.00  0.00    +0.000 A 
ATOM      9  O   UNL     1      -0.135   9.469  22.065  0.00  0.00    +0.000 OA
ATOM     10  N   UNL     1       0.922   9.315  20.012  0.00  0.00    +0.000 N 
ATOM     11  C   UNL     1       1.367   8.027  20.272  0.00  0.00    +0.000 A 
ENDROOT
BRANCH   7  12
ATOM     12  C   UNL     1      -1.149  12.087  21.502  0.00  0.00    +0.000 A 
ATOM     13  C   UNL     1      -0.831  12.703  22.732  0.00  0.00    +0.000 A 
ATOM     14  N   UNL     1      -1.876  13.353  23.262  0.00  0.00    +0.000 NA
ATOM     15  N   UNL     1      -2.869  13.120  22.387  0.00  0.00    +0.000 N 
ATOM     16  C   UNL     1      -2.483  12.377  21.314  0.00  0.00    +0.000 A 
BRANCH  15  17
ATOM     17  C   UNL     1      -4.191  13.672  22.611  0.00  0.00    +0.000 C 
BRANCH  17  18
ATOM     18  C   UNL     1      -4.854  13.115  23.863  0.00  0.00    +0.000 C 
BRANCH  18  19
ATOM     19  O   UNL     1      -4.201  11.928  24.311  0.00  0.00    +0.000 OA
ATOM     20  H   UNL     1      -4.566  11.195  23.778  0.00  0.00    +0.000 HD
ENDBRANCH  18  19
ENDBRANCH  17  18
ENDBRANCH  15  17
ENDBRANCH   7  12
BRANCH   1  21
ATOM     21  N   UNL     1       2.659   6.074  19.729  0.00  0.00    +0.000 N 
BRANCH  21  26
ATOM     22  C   UNL     1       6.091   4.996  18.656  0.00  0.00    +0.000 A 
ATOM     23  C   UNL     1       5.863   4.652  17.327  0.00  0.00    +0.000 A 
ATOM     24  C   UNL     1       4.581   4.725  16.796  0.00  0.00    +0.000 A 
ATOM     25  C   UNL     1       3.509   5.093  17.616  0.00  0.00    +0.000 A 
ATOM     26  C   UNL     1       3.699   5.512  18.939  0.00  0.00    +0.000 A 
ATOM     27  C   UNL     1       5.019   5.431  19.445  0.00  0.00    +0.000 A 
BRANCH  22  29
ATOM     28  C   UNL     1       8.142   6.094  19.177  0.00  0.00    +0.000 C 
ATOM     29  O   UNL     1       7.399   4.892  19.045  0.00  0.00    +0.000 OA
ENDBRANCH  22  29
BRANCH  24  30
ATOM     30  O   UNL     1       4.468   4.412  15.467  0.00  0.00    +0.000 OA
ATOM     31  C   UNL     1       5.700   4.384  14.751  0.00  0.00    +0.000 C 
ENDBRANCH  24  30
ENDBRANCH  21  26
BRANCH  21  32
ATOM     32  C   UNL     1       2.049   5.293  20.836  0.00  0.00    +0.000 C 
BRANCH  32  33
ATOM     33  C   UNL     1       1.127   4.134  20.345  0.00  0.00    +0.000 C 
BRANCH  33  34
ATOM     34  N   UNL     1       1.498   2.754  20.695  0.00  0.00    +0.000 NA
ATOM     35  H   UNL     1       0.681   2.288  21.095  0.00  0.00    +0.000 HD
BRANCH  34  36
ATOM     36  C   UNL     1       2.027   1.953  19.590  0.00  0.00    +0.000 C 
ATOM     37  C   UNL     1       1.499   2.365  18.217  0.00  0.00    +0.000 C 
ATOM     38  C   UNL     1       3.555   2.018  19.608  0.00  0.00    +0.000 C 
ENDBRANCH  34  36
ENDBRANCH  33  34
ENDBRANCH  32  33
ENDBRANCH  21  32
ENDBRANCH   1  21
TORSDOF 12
ENDMDL
MODEL 7
REMARK VINA RESULT:      -7.5      2.490      9.027
REMARK  Name = 
REMARK  16 active torsions:
REMARK  status: ('A' for Active; 'I' for Inactive)
REMARK    1  A    between atoms: C_1  and  O_2
REMARK    2  A    between atoms: O_2  and  C_3
REMARK    3  A    between atoms: C_5  and  O_6
REMARK    4  A    between atoms: O_6  and  C_7
REMARK    5  A    between atoms: C_9  and  N_10
REMARK    6  A    between atoms: N_10  and  C_11
REMARK    7  A    between atoms: N_10  and  C_17
REMARK    8  A    between atoms: C_11  and  C_12
REMARK    9  A    between atoms: C_12  and  N_13
REMARK   10  A    between atoms: N_13  and  C_14
REMARK   11  A    between atoms: C_14  and  C_15
REMARK   12  A    between atoms: C_14  and  C_16
REMARK   13  A    between atoms: C_23  and  C_24
REMARK   14  A    between atoms: N_27  and  C_28
REMARK   15  A    between atoms: C_28  and  C_29
REMARK   16  A    between atoms: C_29  and  O_30
REMARK                            x       y       z     vdW  Elec       q    Type
REMARK                         _______ _______ _______ _____ _____    ______ ____
ROOT
ATOM      1  C   UNL     1       2.547   6.014  18.749  0.00  0.00    +0.000 A 
ATOM      2  C   UNL     1       2.196   5.679  20.114  0.00  0.00    +0.000 A 
ATOM      3  C   UNL     1       1.711   6.606  20.953  0.00  0.00    +0.000 A 
ATOM      4  C   UNL     1       1.516   8.001  20.476  0.00  0.00    +0.000 A 
ATOM      5  N   UNL     1       1.056   8.882  21.306  0.00  0.00    +0.000 NA
ATOM      6  C   UNL     1       0.876  10.147  20.825  0.00  0.00    +0.000 A 
ATOM      7  C   UNL     1       1.099  10.570  19.570  0.00  0.00    +0.000 A 
ATOM      8  C   UNL     1       1.620   9.537  18.619  0.00  0.00    +0.000 A 
ATOM      9  O   UNL     1       1.841   9.826  17.441  0.00  0.00    +0.000 OA
ATOM     10  N   UNL     1       1.833   8.271  19.154  0.00  0.00    +0.000 N 
ATOM     11  C   UNL     1       2.350   7.278  18.335  0.00  0.00    +0.000 A 
ENDROOT
BRANCH   7  12
ATOM     12  C   UNL     1       0.873  11.913  19.144  0.00  0.00    +0.000 A 
ATOM     13  C   UNL     1      -0.275  12.506  18.573  0.00  0.00    +0.000 A 
ATOM     14  N   UNL     1      -0.110  13.814  18.339  0.00  0.00    +0.000 NA
ATOM     15  N   UNL     1       1.156  14.048  18.728  0.00  0.00    +0.000 N 
ATOM     16  C   UNL     1       1.782  12.946  19.226  0.00  0.00    +0.000 A 
BRANCH  15  17
ATOM     17  C   UNL     1       1.720  15.380  18.633  0.00  0.00    +0.000 C 
BRANCH  17  18
ATOM     18  C   UNL     1       3.197  15.418  19.002  0.00  0.00    +0.000 C 
BRANCH  18  19
ATOM     19  O   UNL     1       3.393  15.963  20.305  0.00  0.00    +0.000 OA
ATOM     20  H   UNL     1       2.557  15.818  20.793  0.00  0.00    +0.000 HD
ENDBRANCH  18  19
ENDBRANCH  17  18
ENDBRANCH  15  17
ENDBRANCH   7  12
BRANCH   1  21
ATOM     21  N   UNL     1       2.993   5.003  17.897  0.00  0.00    +0.000 N 
BRANCH  21  26
ATOM     22  C   UNL     1       6.741   4.859  18.046  0.00  0.00    +0.000 A 
ATOM     23  C   UNL     1       7.075   5.168  16.730  0.00  0.00    +0.000 A 
ATOM     24  C   UNL     1       6.078   5.374  15.785  0.00  0.00    +0.000 A 
ATOM     25  C   UNL     1       4.736   5.217  16.146  0.00  0.00    +0.000 A 
ATOM     26  C   UNL     1       4.348   4.973  17.470  0.00  0.00    +0.000 A 
ATOM     27  C   UNL     1       5.391   4.775  18.407  0.00  0.00    +0.000 A 
BRANCH  22  29
ATOM     28  C   UNL     1       8.130   5.757  19.761  0.00  0.00    +0.000 C 
ATOM     29  O   UNL     1       7.818   4.694  18.873  0.00  0.00    +0.000 OA
ENDBRANCH  22  29
BRANCH  24  30
ATOM     30  O   UNL     1       6.508   5.721  14.531  0.00  0.00    +0.000 OA
ATOM     31  C   UNL     1       7.072   4.652  13.775  0.00  0.00    +0.000 C 
ENDBRANCH  24  30
ENDBRANCH  21  26
BRANCH  21  32
ATOM     32  C   UNL     1       2.019   4.006  17.381  0.00  0.00    +0.000 C 
BRANCH  32  33
ATOM     33  C   UNL     1       2.152   2.603  18.051  0.00  0.00    +0.000 C 
BRANCH  33  34
ATOM     34  N   UNL     1       1.334   2.321  19.241  0.00  0.00    +0.000 NA
ATOM     35  H   UNL     1       0.691   1.557  19.022  0.00  0.00    +0.000 HD
BRANCH  34  36
ATOM     36  C   UNL     1       2.090   1.992  20.451  0.00  0.00    +0.000 C 
ATOM     37  C   UNL     1       3.553   2.428  20.407  0.00  0.00    +0.000 C 
ATOM     38  C   UNL     1       1.393   2.611  21.663  0.00  0.00    +0.000 C 
ENDBRANCH  34  36
ENDBRANCH  33  34
ENDBRANCH  32  33
ENDBRANCH  21  32
ENDBRANCH   1  21
TORSDOF 12
ENDMDL
MODEL 8
REMARK VINA RESULT:      -7.4      2.526      9.231
REMARK  Name = 
REMARK  16 active torsions:
REMARK  status: ('A' for Active; 'I' for Inactive)
REMARK    1  A    between atoms: C_1  and  O_2
REMARK    2  A    between atoms: O_2  and  C_3
REMARK    3  A    between atoms: C_5  and  O_6
REMARK    4  A    between atoms: O_6  and  C_7
REMARK    5  A    between atoms: C_9  and  N_10
REMARK    6  A    between atoms: N_10  and  C_11
REMARK    7  A    between atoms: N_10  and  C_17
REMARK    8  A    between atoms: C_11  and  C_12
REMARK    9  A    between atoms: C_12  and  N_13
REMARK   10  A    between atoms: N_13  and  C_14
REMARK   11  A    between atoms: C_14  and  C_15
REMARK   12  A    between atoms: C_14  and  C_16
REMARK   13  A    between atoms: C_23  and  C_24
REMARK   14  A    between atoms: N_27  and  C_28
REMARK   15  A    between atoms: C_28  and  C_29
REMARK   16  A    between atoms: C_29  and  O_30
REMARK                            x       y       z     vdW  Elec       q    Type
REMARK                         _______ _______ _______ _____ _____    ______ ____
ROOT
ATOM      1  C   UNL     1       2.425   6.062  18.788  0.00  0.00    +0.000 A 
ATOM      2  C   UNL     1       1.989   5.758  20.136  0.00  0.00    +0.000 A 
ATOM      3  C   UNL     1       1.557   6.724  20.960  0.00  0.00    +0.000 A 
ATOM      4  C   UNL     1       1.511   8.132  20.483  0.00  0.00    +0.000 A 
ATOM      5  N   UNL     1       1.100   9.050  21.299  0.00  0.00    +0.000 NA
ATOM      6  C   UNL     1       1.056  10.327  20.819  0.00  0.00    +0.000 A 
ATOM      7  C   UNL     1       1.368  10.731  19.577  0.00  0.00    +0.000 A 
ATOM      8  C   UNL     1       1.831   9.656  18.641  0.00  0.00    +0.000 A 
ATOM      9  O   UNL     1       2.125   9.926  17.475  0.00  0.00    +0.000 OA
ATOM     10  N   UNL     1       1.905   8.374  19.177  0.00  0.00    +0.000 N 
ATOM     11  C   UNL     1       2.362   7.340  18.373  0.00  0.00    +0.000 A 
ENDROOT
BRANCH   7  12
ATOM     12  C   UNL     1       1.284  12.090  19.150  0.00  0.00    +0.000 A 
ATOM     13  C   UNL     1       2.236  12.895  18.487  0.00  0.00    +0.000 A 
ATOM     14  N   UNL     1       1.769  14.122  18.220  0.00  0.00    +0.000 NA
ATOM     15  N   UNL     1       0.531  14.109  18.745  0.00  0.00    +0.000 N 
ATOM     16  C   UNL     1       0.191  12.915  19.302  0.00  0.00    +0.000 A 
BRANCH  15  17
ATOM     17  C   UNL     1      -0.319  15.281  18.653  0.00  0.00    +0.000 C 
BRANCH  17  18
ATOM     18  C   UNL     1       0.333  16.524  19.243  0.00  0.00    +0.000 C 
BRANCH  18  19
ATOM     19  O   UNL     1       1.257  16.185  20.275  0.00  0.00    +0.000 OA
ATOM     20  H   UNL     1       2.129  16.518  19.984  0.00  0.00    +0.000 HD
ENDBRANCH  18  19
ENDBRANCH  17  18
ENDBRANCH  15  17
ENDBRANCH   7  12
BRANCH   1  21
ATOM     21  N   UNL     1       2.811   5.016  17.948  0.00  0.00    +0.000 N 
BRANCH  21  26
ATOM     22  C   UNL     1       5.747   4.395  15.694  0.00  0.00    +0.000 A 
ATOM     23  C   UNL     1       6.800   4.447  16.603  0.00  0.00    +0.000 A 
ATOM     24  C   UNL     1       6.557   4.733  17.940  0.00  0.00    +0.000 A 
ATOM     25  C   UNL     1       5.255   5.024  18.363  0.00  0.00    +0.000 A 
ATOM     26  C   UNL     1       4.156   4.918  17.501  0.00  0.00    +0.000 A 
ATOM     27  C   UNL     1       4.440   4.618  16.147  0.00  0.00    +0.000 A 
BRANCH  22  29
ATOM     28  C   UNL     1       7.177   4.853  13.843  0.00  0.00    +0.000 C 
ATOM     29  O   UNL     1       6.125   4.090  14.415  0.00  0.00    +0.000 OA
ENDBRANCH  22  29
BRANCH  24  30
ATOM     30  O   UNL     1       7.652   4.714  18.763  0.00  0.00    +0.000 OA
ATOM     31  C   UNL     1       7.959   5.961  19.381  0.00  0.00    +0.000 C 
ENDBRANCH  24  30
ENDBRANCH  21  26
BRANCH  21  32
ATOM     32  C   UNL     1       1.785   4.055  17.468  0.00  0.00    +0.000 C 
BRANCH  32  33
ATOM     33  C   UNL     1       1.944   2.624  18.069  0.00  0.00    +0.000 C 
BRANCH  33  34
ATOM     34  N   UNL     1       1.232   2.311  19.318  0.00  0.00    +0.000 NA
ATOM     35  H   UNL     1       0.616   1.513  19.152  0.00  0.00    +0.000 HD
BRANCH  34  36
ATOM     36  C   UNL     1       2.092   2.035  20.470  0.00  0.00    +0.000 C 
ATOM     37  C   UNL     1       3.551   2.441  20.268  0.00  0.00    +0.000 C 
ATOM     38  C   UNL     1       1.518   2.731  21.705  0.00  0.00    +0.000 C 
ENDBRANCH  34  36
ENDBRANCH  33  34
ENDBRANCH  32  33
ENDBRANCH  21  32
ENDBRANCH   1  21
TORSDOF 12
ENDMDL
MODEL 9
REMARK VINA RESULT:      -7.4      2.316      4.551
REMARK  Name = 
REMARK  16 active torsions:
REMARK  status: ('A' for Active; 'I' for Inactive)
REMARK    1  A    between atoms: C_1  and  O_2
REMARK    2  A    between atoms: O_2  and  C_3
REMARK    3  A    between atoms: C_5  and  O_6
REMARK    4  A    between atoms: O_6  and  C_7
REMARK    5  A    between atoms: C_9  and  N_10
REMARK    6  A    between atoms: N_10  and  C_11
REMARK    7  A    between atoms: N_10  and  C_17
REMARK    8  A    between atoms: C_11  and  C_12
REMARK    9  A    between atoms: C_12  and  N_13
REMARK   10  A    between atoms: N_13  and  C_14
REMARK   11  A    between atoms: C_14  and  C_15
REMARK   12  A    between atoms: C_14  and  C_16
REMARK   13  A    between atoms: C_23  and  C_24
REMARK   14  A    between atoms: N_27  and  C_28
REMARK   15  A    between atoms: C_28  and  C_29
REMARK   16  A    between atoms: C_29  and  O_30
REMARK                            x       y       z     vdW  Elec       q    Type
REMARK                         _______ _______ _______ _____ _____    ______ ____
ROOT
ATOM      1  C   UNL     1       0.484  10.272  19.914  0.00  0.00    +0.000 A 
ATOM      2  C   UNL     1       0.036   9.688  21.161  0.00  0.00    +0.000 A 
ATOM      3  C   UNL     1       0.392   8.443  21.511  0.00  0.00    +0.000 A 
ATOM      4  C   UNL     1       1.271   7.649  20.614  0.00  0.00    +0.000 A 
ATOM      5  N   UNL     1       1.594   6.446  20.967  0.00  0.00    +0.000 NA
ATOM      6  C   UNL     1       2.416   5.755  20.124  0.00  0.00    +0.000 A 
ATOM      7  C   UNL     1       2.952   6.202  18.977  0.00  0.00    +0.000 A 
ATOM      8  C   UNL     1       2.579   7.600  18.587  0.00  0.00    +0.000 A 
ATOM      9  O   UNL     1       3.033   8.105  17.558  0.00  0.00    +0.000 OA
ATOM     10  N   UNL     1       1.705   8.258  19.446  0.00  0.00    +0.000 N 
ATOM     11  C   UNL     1       1.291   9.541  19.123  0.00  0.00    +0.000 A 
ENDROOT
BRANCH   7  12
ATOM     12  C   UNL     1       3.815   5.417  18.156  0.00  0.00    +0.000 A 
ATOM     13  C   UNL     1       3.520   4.326  17.308  0.00  0.00    +0.000 A 
ATOM     14  N   UNL     1       4.605   3.870  16.668  0.00  0.00    +0.000 NA
ATOM     15  N   UNL     1       5.597   4.647  17.136  0.00  0.00    +0.000 N 
ATOM     16  C   UNL     1       5.175   5.593  18.019  0.00  0.00    +0.000 A 
BRANCH  15  17
ATOM     17  C   UNL     1       6.958   4.463  16.669  0.00  0.00    +0.000 C 
BRANCH  17  18
ATOM     18  C   UNL     1       7.112   4.756  15.183  0.00  0.00    +0.000 C 
BRANCH  18  19
ATOM     19  O   UNL     1       6.124   5.681  14.732  0.00  0.00    +0.000 OA
ATOM     20  H   UNL     1       6.360   6.547  15.119  0.00  0.00    +0.000 HD
ENDBRANCH  18  19
ENDBRANCH  17  18
ENDBRANCH  15  17
ENDBRANCH   7  12
BRANCH   1  21
ATOM     21  N   UNL     1       0.136  11.592  19.619  0.00  0.00    +0.000 N 
BRANCH  21  26
ATOM     22  C   UNL     1       2.162  14.306  21.239  0.00  0.00    +0.000 A 
ATOM     23  C   UNL     1       2.768  14.888  20.130  0.00  0.00    +0.000 A 
ATOM     24  C   UNL     1       2.556  14.364  18.861  0.00  0.00    +0.000 A 
ATOM     25  C   UNL     1       1.772  13.215  18.706  0.00  0.00    +0.000 A 
ATOM     26  C   UNL     1       1.088  12.635  19.781  0.00  0.00    +0.000 A 
ATOM     27  C   UNL     1       1.323  13.199  21.058  0.00  0.00    +0.000 A 
BRANCH  22  29
ATOM     28  C   UNL     1       3.403  15.976  22.401  0.00  0.00    +0.000 C 
ATOM     29  O   UNL     1       2.445  14.929  22.424  0.00  0.00    +0.000 OA
ENDBRANCH  22  29
BRANCH  24  30
ATOM     30  O   UNL     1       3.158  15.036  17.830  0.00  0.00    +0.000 OA
ATOM     31  C   UNL     1       4.583  15.010  17.849  0.00  0.00    +0.000 C 
ENDBRANCH  24  30
ENDBRANCH  21  26
BRANCH  21  32
ATOM     32  C   UNL     1      -1.258  11.901  19.211  0.00  0.00    +0.000 C 
BRANCH  32  33
ATOM     33  C   UNL     1      -1.440  12.027  17.666  0.00  0.00    +0.000 C 
BRANCH  33  34
ATOM     34  N   UNL     1      -1.882  10.839  16.919  0.00  0.00    +0.000 NA
ATOM     35  H   UNL     1      -2.198  10.132  17.585  0.00  0.00    +0.000 HD
BRANCH  34  36
ATOM     36  C   UNL     1      -2.933  11.083  15.929  0.00  0.00    +0.000 C 
ATOM     37  C   UNL     1      -2.963  10.063  14.792  0.00  0.00    +0.000 C 
ATOM     38  C   UNL     1      -4.288  11.125  16.634  0.00  0.00    +0.000 C 
ENDBRANCH  34  36
ENDBRANCH  33  34
ENDBRANCH  32  33
ENDBRANCH  21  32
ENDBRANCH   1  21
TORSDOF 12
ENDMDL
