MODEL 1
REMARK VINA RESULT:      -7.1      0.000      0.000
REMARK  Name = 
REMARK  11 active torsions:
REMARK  status: ('A' for Active; 'I' for Inactive)
REMARK    1  A    between atoms: C_1  and  C_2
REMARK    2  A    between atoms: C_2  and  O_3
REMARK    3  A    between atoms: O_3  and  C_4
REMARK    4  A    between atoms: C_7  and  C_8
REMARK    5  A    between atoms: C_9  and  C_10
REMARK    6  A    between atoms: C_10  and  C_12
REMARK    7  A    between atoms: C_17  and  O_18
REMARK    8  A    between atoms: N_21  and  C_22
REMARK    9  A    between atoms: C_22  and  C_23
REMARK   10  A    between atoms: C_23  and  C_24
REMARK   11  A    between atoms: C_24  and  N_25
REMARK                            x       y       z     vdW  Elec       q    Type
REMARK                         _______ _______ _______ _____ _____    ______ ____
ROOT
ATOM      1  C   UNL     1       5.082   5.127  18.502  0.00  0.00    +0.000 C 
ATOM      2  C   UNL     1       4.709   3.922  17.702  0.00  0.00    +0.000 C 
ATOM      3  C   UNL     1       5.605   3.643  16.748  0.00  0.00    +0.000 C 
ATOM      4  C   UNL     1       6.720   4.601  16.908  0.00  0.00    +0.000 C 
ATOM      5  O   UNL     1       7.767   4.571  16.290  0.00  0.00    +0.000 OA
ATOM      6  N   UNL     1       6.330   5.522  17.875  0.00  0.00    +0.000 N 
ENDROOT
BRANCH   1  10
ATOM      7  C   UNL     1       2.157   8.328  18.475  0.00  0.00    +0.000 A 
ATOM      8  C   UNL     1       2.245   7.450  19.554  0.00  0.00    +0.000 A 
ATOM      9  C   UNL     1       3.191   6.424  19.560  0.00  0.00    +0.000 A 
ATOM     10  C   UNL     1       4.067   6.255  18.477  0.00  0.00    +0.000 A 
ATOM     11  C   UNL     1       3.983   7.162  17.406  0.00  0.00    +0.000 A 
ATOM     12  C   UNL     1       3.020   8.175  17.394  0.00  0.00    +0.000 A 
BRANCH   7  13
ATOM     13  O   UNL     1       1.183   9.278  18.589  0.00  0.00    +0.000 OA
BRANCH  13  15
ATOM     14  C   UNL     1       0.839  11.056  20.117  0.00  0.00    +0.000 C 
ATOM     15  C   UNL     1       0.715   9.559  19.907  0.00  0.00    +0.000 C 
ENDBRANCH  13  15
ENDBRANCH   7  13
ENDBRANCH   1  10
BRANCH   2  16
ATOM     16  C   UNL     1       3.441   3.168  17.806  0.00  0.00    +0.000 C 
ATOM     17  O   UNL     1       2.997   2.688  16.759  0.00  0.00    +0.000 OA
BRANCH  16  18
ATOM     18  C   UNL     1       2.788   3.006  19.096  0.00  0.00    +0.000 A 
ATOM     19  C   UNL     1       1.482   3.251  19.479  0.00  0.00    +0.000 A 
ATOM     20  C   UNL     1       1.261   2.996  20.865  0.00  0.00    +0.000 A 
ATOM     21  C   UNL     1       2.407   2.578  21.501  0.00  0.00    +0.000 A 
ATOM     22  S   UNL     1       3.734   2.486  20.431  0.00  0.00    +0.000 S 
ENDBRANCH  16  18
ENDBRANCH   2  16
BRANCH   3  23
ATOM     23  O   UNL     1       5.552   2.683  15.776  0.00  0.00    +0.000 OA
ATOM     24  H   UNL     1       4.817   2.915  15.168  0.00  0.00    +0.000 HD
ENDBRANCH   3  23
BRANCH   6  25
ATOM     25  C   UNL     1       7.248   6.453  18.526  0.00  0.00    +0.000 C 
BRANCH  25  26
ATOM     26  C   UNL     1       7.942   7.444  17.598  0.00  0.00    +0.000 C 
BRANCH  26  27
ATOM     27  C   UNL     1       7.336   8.842  17.679  0.00  0.00    +0.000 C 
BRANCH  27  28
ATOM     28  N   UNL     1       8.285   9.808  18.191  0.00  0.00    +0.000 N 
ATOM     29  C   UNL     1       9.138   9.627  19.239  0.00  0.00    +0.000 A 
ATOM     30  C   UNL     1       9.826  10.815  19.339  0.00  0.00    +0.000 A 
ATOM     31  N   UNL     1       9.405  11.705  18.383  0.00  0.00    +0.000 NA
ATOM     32  C   UNL     1       8.479  11.067  17.701  0.00  0.00    +0.000 A 
ENDBRANCH  27  28
ENDBRANCH  26  27
ENDBRANCH  25  26
ENDBRANCH   6  25
TORSDOF 10
ENDMDL
MODEL 2
REMARK VINA RESULT:      -7.0      0.679      1.204
REMARK  Name = 
REMARK  11 active torsions:
REMARK  status: ('A' for Active; 'I' for Inactive)
REMARK    1  A    between atoms: C_1  and  C_2
REMARK    2  A    between atoms: C_2  and  O_3
REMARK    3  A    between atoms: O_3  and  C_4
REMARK    4  A    between atoms: C_7  and  C_8
REMARK    5  A    between atoms: C_9  and  C_10
REMARK    6  A    between atoms: C_10  and  C_12
REMARK    7  A    between atoms: C_17  and  O_18
REMARK    8  A    between atoms: N_21  and  C_22
REMARK    9  A    between atoms: C_22  and  C_23
REMARK   10  A    between atoms: C_23  and  C_24
REMARK   11  A    between atoms: C_24  and  N_25
REMARK                            x       y       z     vdW  Elec       q    Type
REMARK                         _______ _______ _______ _____ _____    ______ ____
ROOT
ATOM      1  C   UNL     1       5.114   5.175  18.557  0.00  0.00    +0.000 C 
ATOM      2  C   UNL     1       4.776   3.928  17.809  0.00  0.00    +0.000 C 
ATOM      3  C   UNL     1       5.672   3.642  16.857  0.00  0.00    +0.000 C 
ATOM      4  C   UNL     1       6.755   4.644  16.967  0.00  0.00    +0.000 C 
ATOM      5  O   UNL     1       7.796   4.624  16.339  0.00  0.00    +0.000 OA
ATOM      6  N   UNL     1       6.342   5.588  17.902  0.00  0.00    +0.000 N 
ENDROOT
BRANCH   1  10
ATOM      7  C   UNL     1       2.130   8.313  18.344  0.00  0.00    +0.000 A 
ATOM      8  C   UNL     1       3.018   8.100  17.291  0.00  0.00    +0.000 A 
ATOM      9  C   UNL     1       3.974   7.087  17.363  0.00  0.00    +0.000 A 
ATOM     10  C   UNL     1       4.061   6.266  18.499  0.00  0.00    +0.000 A 
ATOM     11  C   UNL     1       3.144   6.477  19.543  0.00  0.00    +0.000 A 
ATOM     12  C   UNL     1       2.201   7.507  19.476  0.00  0.00    +0.000 A 
BRANCH   7  13
ATOM     13  O   UNL     1       1.254   9.343  18.153  0.00  0.00    +0.000 OA
BRANCH  13  15
ATOM     14  C   UNL     1       0.901  11.055  19.752  0.00  0.00    +0.000 C 
ATOM     15  C   UNL     1       1.702  10.643  18.531  0.00  0.00    +0.000 C 
ENDBRANCH  13  15
ENDBRANCH   7  13
ENDBRANCH   1  10
BRANCH   2  16
ATOM     16  C   UNL     1       3.535   3.136  17.955  0.00  0.00    +0.000 C 
ATOM     17  O   UNL     1       3.089   2.615  16.929  0.00  0.00    +0.000 OA
BRANCH  16  18
ATOM     18  C   UNL     1       2.911   2.986  19.261  0.00  0.00    +0.000 A 
ATOM     19  C   UNL     1       3.455   2.627  20.481  0.00  0.00    +0.000 A 
ATOM     20  C   UNL     1       2.477   2.558  21.516  0.00  0.00    +0.000 A 
ATOM     21  C   UNL     1       1.215   2.852  21.055  0.00  0.00    +0.000 A 
ATOM     22  S   UNL     1       1.215   3.217  19.387  0.00  0.00    +0.000 S 
ENDBRANCH  16  18
ENDBRANCH   2  16
BRANCH   3  23
ATOM     23  O   UNL     1       5.643   2.644  15.923  0.00  0.00    +0.000 OA
ATOM     24  H   UNL     1       5.518   1.795  16.398  0.00  0.00    +0.000 HD
ENDBRANCH   3  23
BRANCH   6  25
ATOM     25  C   UNL     1       7.233   6.574  18.506  0.00  0.00    +0.000 C 
BRANCH  25  26
ATOM     26  C   UNL     1       7.892   7.545  17.532  0.00  0.00    +0.000 C 
BRANCH  26  27
ATOM     27  C   UNL     1       7.328   8.959  17.647  0.00  0.00    +0.000 C 
BRANCH  27  28
ATOM     28  N   UNL     1       8.307   9.882  18.183  0.00  0.00    +0.000 N 
ATOM     29  C   UNL     1       9.134   9.660  19.243  0.00  0.00    +0.000 A 
ATOM     30  C   UNL     1       9.867  10.819  19.363  0.00  0.00    +0.000 A 
ATOM     31  N   UNL     1       9.497  11.732  18.408  0.00  0.00    +0.000 NA
ATOM     32  C   UNL     1       8.557  11.137  17.707  0.00  0.00    +0.000 A 
ENDBRANCH  27  28
ENDBRANCH  26  27
ENDBRANCH  25  26
ENDBRANCH   6  25
TORSDOF 10
ENDMDL
MODEL 3
REMARK VINA RESULT:      -6.6      0.923      1.390
REMARK  Name = 
REMARK  11 active torsions:
REMARK  status: ('A' for Active; 'I' for Inactive)
REMARK    1  A    between atoms: C_1  and  C_2
REMARK    2  A    between atoms: C_2  and  O_3
REMARK    3  A    between atoms: O_3  and  C_4
REMARK    4  A    between atoms: C_7  and  C_8
REMARK    5  A    between atoms: C_9  and  C_10
REMARK    6  A    between atoms: C_10  and  C_12
REMARK    7  A    between atoms: C_17  and  O_18
REMARK    8  A    between atoms: N_21  and  C_22
REMARK    9  A    between atoms: C_22  and  C_23
REMARK   10  A    between atoms: C_23  and  C_24
REMARK   11  A    between atoms: C_24  and  N_25
REMARK                            x       y       z     vdW  Elec       q    Type
REMARK                         _______ _______ _______ _____ _____    ______ ____
ROOT
ATOM      1  C   UNL     1       4.783   5.472  18.141  0.00  0.00    +0.000 C 
ATOM      2  C   UNL     1       4.355   4.429  17.161  0.00  0.00    +0.000 C 
ATOM      3  C   UNL     1       5.137   4.394  16.075  0.00  0.00    +0.000 C 
ATOM      4  C   UNL     1       6.232   5.363  16.299  0.00  0.00    +0.000 C 
ATOM      5  O   UNL     1       7.196   5.513  15.573  0.00  0.00    +0.000 OA
ATOM      6  N   UNL     1       5.933   6.052  17.470  0.00  0.00    +0.000 N 
ENDROOT
BRANCH   1  10
ATOM      7  C   UNL     1       1.811   8.508  19.003  0.00  0.00    +0.000 A 
ATOM      8  C   UNL     1       2.492   8.501  17.788  0.00  0.00    +0.000 A 
ATOM      9  C   UNL     1       3.446   7.520  17.513  0.00  0.00    +0.000 A 
ATOM     10  C   UNL     1       3.737   6.524  18.459  0.00  0.00    +0.000 A 
ATOM     11  C   UNL     1       3.026   6.529  19.671  0.00  0.00    +0.000 A 
ATOM     12  C   UNL     1       2.087   7.527  19.950  0.00  0.00    +0.000 A 
BRANCH   7  13
ATOM     13  O   UNL     1       0.914   9.528  19.150  0.00  0.00    +0.000 OA
BRANCH  13  15
ATOM     14  C   UNL     1       0.207  11.784  19.006  0.00  0.00    +0.000 C 
ATOM     15  C   UNL     1       1.316  10.807  18.665  0.00  0.00    +0.000 C 
ENDBRANCH  13  15
ENDBRANCH   7  13
ENDBRANCH   1  10
BRANCH   2  16
ATOM     16  C   UNL     1       3.134   3.600  17.252  0.00  0.00    +0.000 C 
ATOM     17  O   UNL     1       2.657   3.201  16.185  0.00  0.00    +0.000 OA
BRANCH  16  18
ATOM     18  C   UNL     1       2.563   3.277  18.550  0.00  0.00    +0.000 A 
ATOM     19  C   UNL     1       1.295   3.501  19.056  0.00  0.00    +0.000 A 
ATOM     20  C   UNL     1       1.158   3.060  20.405  0.00  0.00    +0.000 A 
ATOM     21  C   UNL     1       2.327   2.526  20.894  0.00  0.00    +0.000 A 
ATOM     22  S   UNL     1       3.576   2.548  19.730  0.00  0.00    +0.000 S 
ENDBRANCH  16  18
ENDBRANCH   2  16
BRANCH   3  23
ATOM     23  O   UNL     1       4.997   3.644  14.941  0.00  0.00    +0.000 OA
ATOM     24  H   UNL     1       5.372   2.755  15.123  0.00  0.00    +0.000 HD
ENDBRANCH   3  23
BRANCH   6  25
ATOM     25  C   UNL     1       6.892   6.886  18.188  0.00  0.00    +0.000 C 
BRANCH  25  26
ATOM     26  C   UNL     1       6.960   8.341  17.738  0.00  0.00    +0.000 C 
BRANCH  26  27
ATOM     27  C   UNL     1       8.387   8.794  17.441  0.00  0.00    +0.000 C 
BRANCH  27  28
ATOM     28  N   UNL     1       8.774   9.919  18.267  0.00  0.00    +0.000 N 
ATOM     29  C   UNL     1       8.898  11.214  17.863  0.00  0.00    +0.000 A 
ATOM     30  C   UNL     1       9.283  11.898  18.995  0.00  0.00    +0.000 A 
ATOM     31  N   UNL     1       9.399  11.045  20.064  0.00  0.00    +0.000 NA
ATOM     32  C   UNL     1       9.080   9.859  19.597  0.00  0.00    +0.000 A 
ENDBRANCH  27  28
ENDBRANCH  26  27
ENDBRANCH  25  26
ENDBRANCH   6  25
TORSDOF 10
ENDMDL
MODEL 4
REMARK VINA RESULT:      -6.6      0.903      1.129
REMARK  Name = 
REMARK  11 active torsions:
REMARK  status: ('A' for Active; 'I' for Inactive)
REMARK    1  A    between atoms: C_1  and  C_2
REMARK    2  A    between atoms: C_2  and  O_3
REMARK    3  A    between atoms: O_3  and  C_4
REMARK    4  A    between atoms: C_7  and  C_8
REMARK    5  A    between atoms: C_9  and  C_10
REMARK    6  A    between atoms: C_10  and  C_12
REMARK    7  A    between atoms: C_17  and  O_18
REMARK    8  A    between atoms: N_21  and  C_22
REMARK    9  A    between atoms: C_22  and  C_23
REMARK   10  A    between atoms: C_23  and  C_24
REMARK   11  A    between atoms: C_24  and  N_25
REMARK                            x       y       z     vdW  Elec       q    Type
REMARK                         _______ _______ _______ _____ _____    ______ ____
ROOT
ATOM      1  C   UNL     1       4.874   5.395  18.086  0.00  0.00    +0.000 C 
ATOM      2  C   UNL     1       4.474   4.414  17.033  0.00  0.00    +0.000 C 
ATOM      3  C   UNL     1       5.316   4.405  15.994  0.00  0.00    +0.000 C 
ATOM      4  C   UNL     1       6.424   5.328  16.326  0.00  0.00    +0.000 C 
ATOM      5  O   UNL     1       7.433   5.481  15.664  0.00  0.00    +0.000 OA
ATOM      6  N   UNL     1       6.077   5.970  17.510  0.00  0.00    +0.000 N 
ENDROOT
BRANCH   1  10
ATOM      7  C   UNL     1       1.909   8.419  19.014  0.00  0.00    +0.000 A 
ATOM      8  C   UNL     1       2.190   7.395  19.916  0.00  0.00    +0.000 A 
ATOM      9  C   UNL     1       3.148   6.426  19.614  0.00  0.00    +0.000 A 
ATOM     10  C   UNL     1       3.842   6.464  18.395  0.00  0.00    +0.000 A 
ATOM     11  C   UNL     1       3.566   7.516  17.505  0.00  0.00    +0.000 A 
ATOM     12  C   UNL     1       2.590   8.473  17.801  0.00  0.00    +0.000 A 
BRANCH   7  13
ATOM     13  O   UNL     1       0.944   9.294  19.425  0.00  0.00    +0.000 OA
BRANCH  13  15
ATOM     14  C   UNL     1      -0.152  11.355  19.020  0.00  0.00    +0.000 C 
ATOM     15  C   UNL     1       0.277  10.036  18.405  0.00  0.00    +0.000 C 
ENDBRANCH  13  15
ENDBRANCH   7  13
ENDBRANCH   1  10
BRANCH   2  16
ATOM     16  C   UNL     1       3.226   3.621  17.015  0.00  0.00    +0.000 C 
ATOM     17  O   UNL     1       2.813   3.268  15.906  0.00  0.00    +0.000 OA
BRANCH  16  18
ATOM     18  C   UNL     1       2.557   3.278  18.259  0.00  0.00    +0.000 A 
ATOM     19  C   UNL     1       1.266   3.533  18.686  0.00  0.00    +0.000 A 
ATOM     20  C   UNL     1       1.022   3.055  20.007  0.00  0.00    +0.000 A 
ATOM     21  C   UNL     1       2.135   2.462  20.555  0.00  0.00    +0.000 A 
ATOM     22  S   UNL     1       3.460   2.475  19.479  0.00  0.00    +0.000 S 
ENDBRANCH  16  18
ENDBRANCH   2  16
BRANCH   3  23
ATOM     23  O   UNL     1       5.221   3.714  14.818  0.00  0.00    +0.000 OA
ATOM     24  H   UNL     1       4.314   3.846  14.467  0.00  0.00    +0.000 HD
ENDBRANCH   3  23
BRANCH   6  25
ATOM     25  C   UNL     1       7.017   6.738  18.322  0.00  0.00    +0.000 C 
BRANCH  25  26
ATOM     26  C   UNL     1       7.494   8.049  17.705  0.00  0.00    +0.000 C 
BRANCH  26  27
ATOM     27  C   UNL     1       8.657   8.667  18.477  0.00  0.00    +0.000 C 
BRANCH  27  28
ATOM     28  N   UNL     1       8.759  10.091  18.239  0.00  0.00    +0.000 N 
ATOM     29  C   UNL     1       7.855  10.869  17.578  0.00  0.00    +0.000 A 
ATOM     30  C   UNL     1       8.394  12.136  17.612  0.00  0.00    +0.000 A 
ATOM     31  N   UNL     1       9.598  12.137  18.270  0.00  0.00    +0.000 NA
ATOM     32  C   UNL     1       9.790  10.891  18.642  0.00  0.00    +0.000 A 
ENDBRANCH  27  28
ENDBRANCH  26  27
ENDBRANCH  25  26
ENDBRANCH   6  25
TORSDOF 10
ENDMDL
MODEL 5
REMARK VINA RESULT:      -6.5      5.760      9.454
REMARK  Name = 
REMARK  11 active torsions:
REMARK  status: ('A' for Active; 'I' for Inactive)
REMARK    1  A    between atoms: C_1  and  C_2
REMARK    2  A    between atoms: C_2  and  O_3
REMARK    3  A    between atoms: O_3  and  C_4
REMARK    4  A    between atoms: C_7  and  C_8
REMARK    5  A    between atoms: C_9  and  C_10
REMARK    6  A    between atoms: C_10  and  C_12
REMARK    7  A    between atoms: C_17  and  O_18
REMARK    8  A    between atoms: N_21  and  C_22
REMARK    9  A    between atoms: C_22  and  C_23
REMARK   10  A    between atoms: C_23  and  C_24
REMARK   11  A    between atoms: C_24  and  N_25
REMARK                            x       y       z     vdW  Elec       q    Type
REMARK                         _______ _______ _______ _____ _____    ______ ____
ROOT
ATOM      1  C   UNL     1      -0.111  11.066  20.281  0.00  0.00    +0.000 C 
ATOM      2  C   UNL     1      -0.069  12.381  20.987  0.00  0.00    +0.000 C 
ATOM      3  C   UNL     1      -0.346  12.273  22.291  0.00  0.00    +0.000 C 
ATOM      4  C   UNL     1      -0.497  10.831  22.583  0.00  0.00    +0.000 C 
ATOM      5  O   UNL     1      -0.636  10.349  23.691  0.00  0.00    +0.000 OA
ATOM      6  N   UNL     1      -0.459  10.163  21.363  0.00  0.00    +0.000 N 
ENDROOT
BRANCH   1  10
ATOM      7  C   UNL     1      -2.925  10.788  16.995  0.00  0.00    +0.000 A 
ATOM      8  C   UNL     1      -1.723  10.084  16.967  0.00  0.00    +0.000 A 
ATOM      9  C   UNL     1      -0.822  10.173  18.028  0.00  0.00    +0.000 A 
ATOM     10  C   UNL     1      -1.109  10.978  19.142  0.00  0.00    +0.000 A 
ATOM     11  C   UNL     1      -2.336  11.664  19.168  0.00  0.00    +0.000 A 
ATOM     12  C   UNL     1      -3.226  11.588  18.093  0.00  0.00    +0.000 A 
BRANCH   7  13
ATOM     13  O   UNL     1      -3.710  10.623  15.890  0.00  0.00    +0.000 OA
BRANCH  13  15
ATOM     14  C   UNL     1      -3.604  10.075  13.587  0.00  0.00    +0.000 C 
ATOM     15  C   UNL     1      -3.343   9.574  14.995  0.00  0.00    +0.000 C 
ENDBRANCH  13  15
ENDBRANCH   7  13
ENDBRANCH   1  10
BRANCH   2  16
ATOM     16  C   UNL     1       0.108  13.705  20.349  0.00  0.00    +0.000 C 
ATOM     17  O   UNL     1      -0.860  14.470  20.390  0.00  0.00    +0.000 OA
BRANCH  16  18
ATOM     18  C   UNL     1       1.377  14.056  19.731  0.00  0.00    +0.000 A 
ATOM     19  C   UNL     1       1.755  14.069  18.400  0.00  0.00    +0.000 A 
ATOM     20  C   UNL     1       3.120  14.442  18.224  0.00  0.00    +0.000 A 
ATOM     21  C   UNL     1       3.747  14.690  19.423  0.00  0.00    +0.000 A 
ATOM     22  S   UNL     1       2.692  14.482  20.749  0.00  0.00    +0.000 S 
ENDBRANCH  16  18
ENDBRANCH   2  16
BRANCH   3  23
ATOM     23  O   UNL     1      -0.491  13.263  23.223  0.00  0.00    +0.000 OA
ATOM     24  H   UNL     1       0.292  13.233  23.814  0.00  0.00    +0.000 HD
ENDBRANCH   3  23
BRANCH   6  25
ATOM     25  C   UNL     1      -0.288   8.718  21.234  0.00  0.00    +0.000 C 
BRANCH  25  26
ATOM     26  C   UNL     1       1.147   8.216  21.361  0.00  0.00    +0.000 C 
BRANCH  26  27
ATOM     27  C   UNL     1       1.788   7.936  20.005  0.00  0.00    +0.000 C 
BRANCH  27  28
ATOM     28  N   UNL     1       2.269   6.573  19.912  0.00  0.00    +0.000 N 
ATOM     29  C   UNL     1       1.791   5.497  20.600  0.00  0.00    +0.000 A 
ATOM     30  C   UNL     1       2.563   4.440  20.175  0.00  0.00    +0.000 A 
ATOM     31  N   UNL     1       3.495   4.854  19.257  0.00  0.00    +0.000 NA
ATOM     32  C   UNL     1       3.290   6.144  19.113  0.00  0.00    +0.000 A 
ENDBRANCH  27  28
ENDBRANCH  26  27
ENDBRANCH  25  26
ENDBRANCH   6  25
TORSDOF 10
ENDMDL
MODEL 6
REMARK VINA RESULT:      -6.4      1.193      1.616
REMARK  Name = 
REMARK  11 active torsions:
REMARK  status: ('A' for Active; 'I' for Inactive)
REMARK    1  A    between atoms: C_1  and  C_2
REMARK    2  A    between atoms: C_2  and  O_3
REMARK    3  A    between atoms: O_3  and  C_4
REMARK    4  A    between atoms: C_7  and  C_8
REMARK    5  A    between atoms: C_9  and  C_10
REMARK    6  A    between atoms: C_10  and  C_12
REMARK    7  A    between atoms: C_17  and  O_18
REMARK    8  A    between atoms: N_21  and  C_22
REMARK    9  A    between atoms: C_22  and  C_23
REMARK   10  A    between atoms: C_23  and  C_24
REMARK   11  A    between atoms: C_24  and  N_25
REMARK                            x       y       z     vdW  Elec       q    Type
REMARK                         _______ _______ _______ _____ _____    ______ ____
ROOT
ATOM      1  C   UNL     1       4.989   5.437  18.138  0.00  0.00    +0.000 C 
ATOM      2  C   UNL     1       4.612   4.429  17.103  0.00  0.00    +0.000 C 
ATOM      3  C   UNL     1       5.423   4.459  16.039  0.00  0.00    +0.000 C 
ATOM      4  C   UNL     1       6.487   5.443  16.334  0.00  0.00    +0.000 C 
ATOM      5  O   UNL     1       7.467   5.648  15.641  0.00  0.00    +0.000 OA
ATOM      6  N   UNL     1       6.140   6.073  17.524  0.00  0.00    +0.000 N 
ENDROOT
BRANCH   1  10
ATOM      7  C   UNL     1       1.920   8.362  19.048  0.00  0.00    +0.000 A 
ATOM      8  C   UNL     1       2.631   8.423  17.851  0.00  0.00    +0.000 A 
ATOM      9  C   UNL     1       3.615   7.477  17.561  0.00  0.00    +0.000 A 
ATOM     10  C   UNL     1       3.909   6.450  18.472  0.00  0.00    +0.000 A 
ATOM     11  C   UNL     1       3.167   6.387  19.664  0.00  0.00    +0.000 A 
ATOM     12  C   UNL     1       2.197   7.348  19.961  0.00  0.00    +0.000 A 
BRANCH   7  13
ATOM     13  O   UNL     1       0.995   9.352  19.214  0.00  0.00    +0.000 OA
BRANCH  13  15
ATOM     14  C   UNL     1      -0.988  10.212  18.242  0.00  0.00    +0.000 C 
ATOM     15  C   UNL     1       0.493   9.965  18.027  0.00  0.00    +0.000 C 
ENDBRANCH  13  15
ENDBRANCH   7  13
ENDBRANCH   1  10
BRANCH   2  16
ATOM     16  C   UNL     1       3.410   3.567  17.125  0.00  0.00    +0.000 C 
ATOM     17  O   UNL     1       2.968   3.209  16.029  0.00  0.00    +0.000 OA
BRANCH  16  18
ATOM     18  C   UNL     1       2.817   3.169  18.392  0.00  0.00    +0.000 A 
ATOM     19  C   UNL     1       3.395   2.613  19.519  0.00  0.00    +0.000 A 
ATOM     20  C   UNL     1       2.440   2.332  20.541  0.00  0.00    +0.000 A 
ATOM     21  C   UNL     1       1.162   2.669  20.159  0.00  0.00    +0.000 A 
ATOM     22  S   UNL     1       1.118   3.327  18.585  0.00  0.00    +0.000 S 
ENDBRANCH  16  18
ENDBRANCH   2  16
BRANCH   3  23
ATOM     23  O   UNL     1       5.332   3.756  14.869  0.00  0.00    +0.000 OA
ATOM     24  H   UNL     1       5.951   2.998  14.929  0.00  0.00    +0.000 HD
ENDBRANCH   3  23
BRANCH   6  25
ATOM     25  C   UNL     1       7.060   6.898  18.304  0.00  0.00    +0.000 C 
BRANCH  25  26
ATOM     26  C   UNL     1       7.496   8.199  17.639  0.00  0.00    +0.000 C 
BRANCH  26  27
ATOM     27  C   UNL     1       8.664   8.861  18.363  0.00  0.00    +0.000 C 
BRANCH  27  28
ATOM     28  N   UNL     1       8.744  10.276  18.068  0.00  0.00    +0.000 N 
ATOM     29  C   UNL     1       9.823  11.085  18.266  0.00  0.00    +0.000 A 
ATOM     30  C   UNL     1       9.411  12.327  17.838  0.00  0.00    +0.000 A 
ATOM     31  N   UNL     1       8.113  12.286  17.395  0.00  0.00    +0.000 NA
ATOM     32  C   UNL     1       7.738  11.034  17.541  0.00  0.00    +0.000 A 
ENDBRANCH  27  28
ENDBRANCH  26  27
ENDBRANCH  25  26
ENDBRANCH   6  25
TORSDOF 10
ENDMDL
MODEL 7
REMARK VINA RESULT:      -6.2      7.849     10.941
REMARK  Name = 
REMARK  11 active torsions:
REMARK  status: ('A' for Active; 'I' for Inactive)
REMARK    1  A    between atoms: C_1  and  C_2
REMARK    2  A    between atoms: C_2  and  O_3
REMARK    3  A    between atoms: O_3  and  C_4
REMARK    4  A    between atoms: C_7  and  C_8
REMARK    5  A    between atoms: C_9  and  C_10
REMARK    6  A    between atoms: C_10  and  C_12
REMARK    7  A    between atoms: C_17  and  O_18
REMARK    8  A    between atoms: N_21  and  C_22
REMARK    9  A    between atoms: C_22  and  C_23
REMARK   10  A    between atoms: C_23  and  C_24
REMARK   11  A    between atoms: C_24  and  N_25
REMARK                            x       y       z     vdW  Elec       q    Type
REMARK                         _______ _______ _______ _____ _____    ______ ____
ROOT
ATOM      1  C   UNL     1      -0.984  12.318  20.585  0.00  0.00    +0.000 C 
ATOM      2  C   UNL     1      -0.699  10.942  20.078  0.00  0.00    +0.000 C 
ATOM      3  C   UNL     1      -0.326  10.104  21.052  0.00  0.00    +0.000 C 
ATOM      4  C   UNL     1      -0.434  10.847  22.327  0.00  0.00    +0.000 C 
ATOM      5  O   UNL     1      -0.288  10.366  23.435  0.00  0.00    +0.000 OA
ATOM      6  N   UNL     1      -0.718  12.169  22.004  0.00  0.00    +0.000 N 
ENDROOT
BRANCH   1  10
ATOM      7  C   UNL     1       1.394  15.484  18.819  0.00  0.00    +0.000 A 
ATOM      8  C   UNL     1       0.006  15.583  18.879  0.00  0.00    +0.000 A 
ATOM      9  C   UNL     1      -0.756  14.563  19.451  0.00  0.00    +0.000 A 
ATOM     10  C   UNL     1      -0.135  13.417  19.974  0.00  0.00    +0.000 A 
ATOM     11  C   UNL     1       1.268  13.341  19.928  0.00  0.00    +0.000 A 
ATOM     12  C   UNL     1       2.025  14.355  19.335  0.00  0.00    +0.000 A 
BRANCH   7  13
ATOM     13  O   UNL     1       2.018  16.543  18.224  0.00  0.00    +0.000 OA
BRANCH  13  15
ATOM     14  C   UNL     1       1.244  18.325  16.867  0.00  0.00    +0.000 C 
ATOM     15  C   UNL     1       1.345  17.799  18.287  0.00  0.00    +0.000 C 
ENDBRANCH  13  15
ENDBRANCH   7  13
ENDBRANCH   1  10
BRANCH   2  16
ATOM     16  C   UNL     1      -0.672  10.527  18.659  0.00  0.00    +0.000 C 
ATOM     17  O   UNL     1       0.415  10.140  18.218  0.00  0.00    +0.000 OA
BRANCH  16  18
ATOM     18  C   UNL     1      -1.886  10.569  17.860  0.00  0.00    +0.000 A 
ATOM     19  C   UNL     1      -2.199   9.944  16.666  0.00  0.00    +0.000 A 
ATOM     20  C   UNL     1      -3.499  10.289  16.192  0.00  0.00    +0.000 A 
ATOM     21  C   UNL     1      -4.134  11.178  17.029  0.00  0.00    +0.000 A 
ATOM     22  S   UNL     1      -3.171  11.583  18.379  0.00  0.00    +0.000 S 
ENDBRANCH  16  18
ENDBRANCH   2  16
BRANCH   3  23
ATOM     23  O   UNL     1       0.099   8.808  20.954  0.00  0.00    +0.000 OA
ATOM     24  H   UNL     1      -0.649   8.274  20.609  0.00  0.00    +0.000 HD
ENDBRANCH   3  23
BRANCH   6  25
ATOM     25  C   UNL     1      -1.182  13.159  22.973  0.00  0.00    +0.000 C 
BRANCH  25  26
ATOM     26  C   UNL     1      -2.495  13.852  22.623  0.00  0.00    +0.000 C 
BRANCH  26  27
ATOM     27  C   UNL     1      -3.274  14.283  23.863  0.00  0.00    +0.000 C 
BRANCH  27  28
ATOM     28  N   UNL     1      -4.527  13.565  23.983  0.00  0.00    +0.000 N 
ATOM     29  C   UNL     1      -5.752  14.002  23.577  0.00  0.00    +0.000 A 
ATOM     30  C   UNL     1      -6.614  12.979  23.905  0.00  0.00    +0.000 A 
ATOM     31  N   UNL     1      -5.939  11.945  24.502  0.00  0.00    +0.000 NA
ATOM     32  C   UNL     1      -4.680  12.324  24.531  0.00  0.00    +0.000 A 
ENDBRANCH  27  28
ENDBRANCH  26  27
ENDBRANCH  25  26
ENDBRANCH   6  25
TORSDOF 10
ENDMDL
MODEL 8
REMARK VINA RESULT:      -6.2      1.279      1.466
REMARK  Name = 
REMARK  11 active torsions:
REMARK  status: ('A' for Active; 'I' for Inactive)
REMARK    1  A    between atoms: C_1  and  C_2
REMARK    2  A    between atoms: C_2  and  O_3
REMARK    3  A    between atoms: O_3  and  C_4
REMARK    4  A    between atoms: C_7  and  C_8
REMARK    5  A    between atoms: C_9  and  C_10
REMARK    6  A    between atoms: C_10  and  C_12
REMARK    7  A    between atoms: C_17  and  O_18
REMARK    8  A    between atoms: N_21  and  C_22
REMARK    9  A    between atoms: C_22  and  C_23
REMARK   10  A    between atoms: C_23  and  C_24
REMARK   11  A    between atoms: C_24  and  N_25
REMARK                            x       y       z     vdW  Elec       q    Type
REMARK                         _______ _______ _______ _____ _____    ______ ____
ROOT
ATOM      1  C   UNL     1       4.280   6.138  18.232  0.00  0.00    +0.000 C 
ATOM      2  C   UNL     1       3.861   4.914  17.486  0.00  0.00    +0.000 C 
ATOM      3  C   UNL     1       4.515   4.772  16.327  0.00  0.00    +0.000 C 
ATOM      4  C   UNL     1       5.515   5.859  16.258  0.00  0.00    +0.000 C 
ATOM      5  O   UNL     1       6.370   5.974  15.399  0.00  0.00    +0.000 OA
ATOM      6  N   UNL     1       5.276   6.702  17.338  0.00  0.00    +0.000 N 
ENDROOT
BRANCH   1  10
ATOM      7  C   UNL     1       1.090   8.945  19.097  0.00  0.00    +0.000 A 
ATOM      8  C   UNL     1       1.540   8.054  20.069  0.00  0.00    +0.000 A 
ATOM      9  C   UNL     1       2.569   7.155  19.787  0.00  0.00    +0.000 A 
ATOM     10  C   UNL     1       3.167   7.130  18.517  0.00  0.00    +0.000 A 
ATOM     11  C   UNL     1       2.719   8.050  17.554  0.00  0.00    +0.000 A 
ATOM     12  C   UNL     1       1.673   8.934  17.833  0.00  0.00    +0.000 A 
BRANCH   7  13
ATOM     13  O   UNL     1       0.071   9.761  19.497  0.00  0.00    +0.000 OA
BRANCH  13  15
ATOM     14  C   UNL     1       0.900  11.802  20.370  0.00  0.00    +0.000 C 
ATOM     15  C   UNL     1       0.262  10.470  20.720  0.00  0.00    +0.000 C 
ENDBRANCH  13  15
ENDBRANCH   7  13
ENDBRANCH   1  10
BRANCH   2  16
ATOM     16  C   UNL     1       2.756   4.004  17.859  0.00  0.00    +0.000 C 
ATOM     17  O   UNL     1       2.008   3.642  16.946  0.00  0.00    +0.000 OA
BRANCH  16  18
ATOM     18  C   UNL     1       2.601   3.567  19.237  0.00  0.00    +0.000 A 
ATOM     19  C   UNL     1       3.500   2.957  20.093  0.00  0.00    +0.000 A 
ATOM     20  C   UNL     1       2.926   2.653  21.363  0.00  0.00    +0.000 A 
ATOM     21  C   UNL     1       1.604   3.025  21.434  0.00  0.00    +0.000 A 
ATOM     22  S   UNL     1       1.065   3.745  19.983  0.00  0.00    +0.000 S 
ENDBRANCH  16  18
ENDBRANCH   2  16
BRANCH   3  23
ATOM     23  O   UNL     1       4.332   3.835  15.348  0.00  0.00    +0.000 OA
ATOM     24  H   UNL     1       4.197   4.312  14.501  0.00  0.00    +0.000 HD
ENDBRANCH   3  23
BRANCH   6  25
ATOM     25  C   UNL     1       6.213   7.726  17.792  0.00  0.00    +0.000 C 
BRANCH  25  26
ATOM     26  C   UNL     1       7.689   7.380  17.630  0.00  0.00    +0.000 C 
BRANCH  26  27
ATOM     27  C   UNL     1       8.538   7.889  18.791  0.00  0.00    +0.000 C 
BRANCH  27  28
ATOM     28  N   UNL     1       8.765   9.316  18.702  0.00  0.00    +0.000 N 
ATOM     29  C   UNL     1       9.319  10.109  19.662  0.00  0.00    +0.000 A 
ATOM     30  C   UNL     1       9.320  11.372  19.114  0.00  0.00    +0.000 A 
ATOM     31  N   UNL     1       8.777  11.358  17.854  0.00  0.00    +0.000 NA
ATOM     32  C   UNL     1       8.457  10.103  17.630  0.00  0.00    +0.000 A 
ENDBRANCH  27  28
ENDBRANCH  26  27
ENDBRANCH  25  26
ENDBRANCH   6  25
TORSDOF 10
ENDMDL
MODEL 9
REMARK VINA RESULT:      -6.1      8.194     11.989
REMARK  Name = 
REMARK  11 active torsions:
REMARK  status: ('A' for Active; 'I' for Inactive)
REMARK    1  A    between atoms: C_1  and  C_2
REMARK    2  A    between atoms: C_2  and  O_3
REMARK    3  A    between atoms: O_3  and  C_4
REMARK    4  A    between atoms: C_7  and  C_8
REMARK    5  A    between atoms: C_9  and  C_10
REMARK    6  A    between atoms: C_10  and  C_12
REMARK    7  A    between atoms: C_17  and  O_18
REMARK    8  A    between atoms: N_21  and  C_22
REMARK    9  A    between atoms: C_22  and  C_23
REMARK   10  A    between atoms: C_23  and  C_24
REMARK   11  A    between atoms: C_24  and  N_25
REMARK                            x       y       z     vdW  Elec       q    Type
REMARK                         _______ _______ _______ _____ _____    ______ ____
ROOT
ATOM      1  C   UNL     1      -1.378  12.845  19.633  0.00  0.00    +0.000 C 
ATOM      2  C   UNL     1      -0.178  13.675  19.947  0.00  0.00    +0.000 C 
ATOM      3  C   UNL     1       0.964  12.983  19.856  0.00  0.00    +0.000 C 
ATOM      4  C   UNL     1       0.612  11.633  19.363  0.00  0.00    +0.000 C 
ATOM      5  O   UNL     1       1.410  10.771  19.048  0.00  0.00    +0.000 OA
ATOM      6  N   UNL     1      -0.776  11.555  19.347  0.00  0.00    +0.000 N 
ENDROOT
BRANCH   1  10
ATOM      7  C   UNL     1      -4.340  12.582  22.789  0.00  0.00    +0.000 A 
ATOM      8  C   UNL     1      -4.701  12.973  21.501  0.00  0.00    +0.000 A 
ATOM      9  C   UNL     1      -3.745  13.053  20.487  0.00  0.00    +0.000 A 
ATOM     10  C   UNL     1      -2.401  12.744  20.749  0.00  0.00    +0.000 A 
ATOM     11  C   UNL     1      -2.055  12.328  22.046  0.00  0.00    +0.000 A 
ATOM     12  C   UNL     1      -3.012  12.270  23.063  0.00  0.00    +0.000 A 
BRANCH   7  13
ATOM     13  O   UNL     1      -5.367  12.558  23.688  0.00  0.00    +0.000 OA
BRANCH  13  15
ATOM     14  C   UNL     1      -7.421  13.648  24.140  0.00  0.00    +0.000 C 
ATOM     15  C   UNL     1      -6.680  12.753  23.166  0.00  0.00    +0.000 C 
ENDBRANCH  13  15
ENDBRANCH   7  13
ENDBRANCH   1  10
BRANCH   2  16
ATOM     16  C   UNL     1      -0.191  15.067  20.450  0.00  0.00    +0.000 C 
ATOM     17  O   UNL     1       0.266  15.249  21.582  0.00  0.00    +0.000 OA
BRANCH  16  18
ATOM     18  C   UNL     1      -0.708  16.141  19.617  0.00  0.00    +0.000 A 
ATOM     19  C   UNL     1      -0.243  16.654  18.420  0.00  0.00    +0.000 A 
ATOM     20  C   UNL     1      -1.029  17.748  17.951  0.00  0.00    +0.000 A 
ATOM     21  C   UNL     1      -2.062  18.046  18.808  0.00  0.00    +0.000 A 
ATOM     22  S   UNL     1      -2.086  17.008  20.164  0.00  0.00    +0.000 S 
ENDBRANCH  16  18
ENDBRANCH   2  16
BRANCH   3  23
ATOM     23  O   UNL     1       2.236  13.381  20.159  0.00  0.00    +0.000 OA
ATOM     24  H   UNL     1       2.631  12.698  20.742  0.00  0.00    +0.000 HD
ENDBRANCH   3  23
BRANCH   6  25
ATOM     25  C   UNL     1      -1.521  10.503  18.660  0.00  0.00    +0.000 C 
BRANCH  25  26
ATOM     26  C   UNL     1      -2.534  10.985  17.627  0.00  0.00    +0.000 C 
BRANCH  26  27
ATOM     27  C   UNL     1      -3.803  10.139  17.616  0.00  0.00    +0.000 C 
BRANCH  27  28
ATOM     28  N   UNL     1      -4.993  10.958  17.719  0.00  0.00    +0.000 N 
ATOM     29  C   UNL     1      -6.052  10.747  18.551  0.00  0.00    +0.000 A 
ATOM     30  C   UNL     1      -6.920  11.780  18.281  0.00  0.00    +0.000 A 
ATOM     31  N   UNL     1      -6.413  12.601  17.305  0.00  0.00    +0.000 NA
ATOM     32  C   UNL     1      -5.247  12.083  16.989  0.00  0.00    +0.000 A 
ENDBRANCH  27  28
ENDBRANCH  26  27
ENDBRANCH  25  26
ENDBRANCH   6  25
TORSDOF 10
ENDMDL
