MODEL 1
REMARK VINA RESULT:      -7.5      0.000      0.000
REMARK  Name = 
REMARK  8 active torsions:
REMARK  status: ('A' for Active; 'I' for Inactive)
REMARK    1  A    between atoms: C_2  and  O_3
REMARK    2  A    between atoms: C_2  and  C_4
REMARK    3  A    between atoms: C_4  and  C_5
REMARK    4  A    between atoms: C_5  and  C_6
REMARK    5  A    between atoms: C_6  and  C_7
REMARK    6  A    between atoms: C_8  and  C_9
REMARK    7  A    between atoms: C_9  and  C_10
REMARK    8  A    between atoms: C_15  and  C_16
REMARK                            x       y       z     vdW  Elec       q    Type
REMARK                         _______ _______ _______ _____ _____    ______ ____
ROOT
ATOM      1  C   UNL     1       5.366   4.479  17.179  0.00  0.00    +0.000 C 
ATOM      2  C   UNL     1       5.663   4.467  18.691  0.00  0.00    +0.000 C 
ATOM      3  O   UNL     1       6.472   5.584  19.059  0.00  0.00    +0.000 OA
ATOM      4  C   UNL     1       7.691   5.589  18.333  0.00  0.00    +0.000 C 
ATOM      5  O   UNL     1       7.465   5.686  16.936  0.00  0.00    +0.000 OA
ATOM      6  C   UNL     1       6.735   4.548  16.468  0.00  0.00    +0.000 C 
ENDROOT
BRANCH   6   7
ATOM      7  C   UNL     1       6.762   4.505  14.950  0.00  0.00    +0.000 A 
ATOM      8  C   UNL     1       5.914   3.629  14.253  0.00  0.00    +0.000 A 
ATOM      9  C   UNL     1       5.979   3.518  12.860  0.00  0.00    +0.000 A 
ATOM     10  C   UNL     1       6.902   4.276  12.143  0.00  0.00    +0.000 A 
ATOM     11  C   UNL     1       7.753   5.147  12.815  0.00  0.00    +0.000 A 
ATOM     12  C   UNL     1       7.683   5.260  14.206  0.00  0.00    +0.000 A 
ENDBRANCH   6   7
BRANCH   1  13
ATOM     13  C   UNL     1       4.389   5.646  16.911  0.00  0.00    +0.000 C 
BRANCH  13  15
ATOM     14  C   UNL     1       2.318   5.289  18.351  0.00  0.00    +0.000 C 
ATOM     15  C   UNL     1       3.443   5.950  18.036  0.00  0.00    +0.000 C 
BRANCH  14  16
ATOM     16  C   UNL     1       1.727   4.124  17.607  0.00  0.00    +0.000 C 
BRANCH  16  17
ATOM     17  C   UNL     1       1.410   2.931  18.517  0.00  0.00    +0.000 C 
BRANCH  17  18
ATOM     18  C   UNL     1       2.513   2.591  19.518  0.00  0.00    +0.000 C 
BRANCH  18  20
ATOM     19  O   UNL     1       2.762   2.561  21.934  0.00  0.00    +0.000 OA
ATOM     20  C   UNL     1       2.052   2.692  20.954  0.00  0.00    +0.000 C 
BRANCH  20  21
ATOM     21  O   UNL     1       0.732   2.979  21.054  0.00  0.00    +0.000 OA
ATOM     22  H   UNL     1       0.506   3.847  20.669  0.00  0.00    +0.000 HD
ENDBRANCH  20  21
ENDBRANCH  18  20
ENDBRANCH  17  18
ENDBRANCH  16  17
ENDBRANCH  14  16
ENDBRANCH  13  15
ENDBRANCH   1  13
TORSDOF 8
ENDMDL
MODEL 2
REMARK VINA RESULT:      -7.3      1.283      1.509
REMARK  Name = 
REMARK  8 active torsions:
REMARK  status: ('A' for Active; 'I' for Inactive)
REMARK    1  A    between atoms: C_2  and  O_3
REMARK    2  A    between atoms: C_2  and  C_4
REMARK    3  A    between atoms: C_4  and  C_5
REMARK    4  A    between atoms: C_5  and  C_6
REMARK    5  A    between atoms: C_6  and  C_7
REMARK    6  A    between atoms: C_8  and  C_9
REMARK    7  A    between atoms: C_9  and  C_10
REMARK    8  A    between atoms: C_15  and  C_16
REMARK                            x       y       z     vdW  Elec       q    Type
REMARK                         _______ _______ _______ _____ _____    ______ ____
ROOT
ATOM      1  C   UNL     1       5.569   4.765  17.056  0.00  0.00    +0.000 C 
ATOM      2  C   UNL     1       5.935   4.995  18.535  0.00  0.00    +0.000 C 
ATOM      3  O   UNL     1       6.570   6.262  18.710  0.00  0.00    +0.000 OA
ATOM      4  C   UNL     1       7.737   6.359  17.909  0.00  0.00    +0.000 C 
ATOM      5  O   UNL     1       7.433   6.237  16.529  0.00  0.00    +0.000 OA
ATOM      6  C   UNL     1       6.873   4.950  16.252  0.00  0.00    +0.000 C 
ENDROOT
BRANCH   6   7
ATOM      7  C   UNL     1       6.836   4.714  14.751  0.00  0.00    +0.000 A 
ATOM      8  C   UNL     1       5.982   3.739  14.211  0.00  0.00    +0.000 A 
ATOM      9  C   UNL     1       5.989   3.452  12.842  0.00  0.00    +0.000 A 
ATOM     10  C   UNL     1       6.859   4.132  11.993  0.00  0.00    +0.000 A 
ATOM     11  C   UNL     1       7.715   5.099  12.509  0.00  0.00    +0.000 A 
ATOM     12  C   UNL     1       7.703   5.387  13.876  0.00  0.00    +0.000 A 
ENDBRANCH   6   7
BRANCH   1  13
ATOM     13  C   UNL     1       4.406   5.723  16.714  0.00  0.00    +0.000 C 
BRANCH  13  15
ATOM     14  C   UNL     1       2.427   5.451  18.296  0.00  0.00    +0.000 C 
ATOM     15  C   UNL     1       3.528   6.092  17.876  0.00  0.00    +0.000 C 
BRANCH  14  16
ATOM     16  C   UNL     1       1.795   4.246  17.659  0.00  0.00    +0.000 C 
BRANCH  16  17
ATOM     17  C   UNL     1       1.517   3.116  18.659  0.00  0.00    +0.000 C 
BRANCH  17  18
ATOM     18  C   UNL     1       2.659   2.843  19.636  0.00  0.00    +0.000 C 
BRANCH  18  20
ATOM     19  O   UNL     1       3.654   1.349  18.000  0.00  0.00    +0.000 OA
ATOM     20  C   UNL     1       3.742   1.972  19.042  0.00  0.00    +0.000 C 
BRANCH  20  21
ATOM     21  O   UNL     1       4.870   1.967  19.791  0.00  0.00    +0.000 OA
ATOM     22  H   UNL     1       4.685   1.918  20.749  0.00  0.00    +0.000 HD
ENDBRANCH  20  21
ENDBRANCH  18  20
ENDBRANCH  17  18
ENDBRANCH  16  17
ENDBRANCH  14  16
ENDBRANCH  13  15
ENDBRANCH   1  13
TORSDOF 8
ENDMDL
MODEL 3
REMARK VINA RESULT:      -7.2      2.314      6.520
REMARK  Name = 
REMARK  8 active torsions:
REMARK  status: ('A' for Active; 'I' for Inactive)
REMARK    1  A    between atoms: C_2  and  O_3
REMARK    2  A    between atoms: C_2  and  C_4
REMARK    3  A    between atoms: C_4  and  C_5
REMARK    4  A    between atoms: C_5  and  C_6
REMARK    5  A    between atoms: C_6  and  C_7
REMARK    6  A    between atoms: C_8  and  C_9
REMARK    7  A    between atoms: C_9  and  C_10
REMARK    8  A    between atoms: C_15  and  C_16
REMARK                            x       y       z     vdW  Elec       q    Type
REMARK                         _______ _______ _______ _____ _____    ______ ____
ROOT
ATOM      1  C   UNL     1       3.668   5.112  19.047  0.00  0.00    +0.000 C 
ATOM      2  C   UNL     1       4.059   3.828  19.804  0.00  0.00    +0.000 C 
ATOM      3  O   UNL     1       2.898   3.129  20.253  0.00  0.00    +0.000 OA
ATOM      4  C   UNL     1       2.102   3.952  21.089  0.00  0.00    +0.000 C 
ATOM      5  O   UNL     1       1.649   5.108  20.404  0.00  0.00    +0.000 OA
ATOM      6  C   UNL     1       2.757   5.916  19.999  0.00  0.00    +0.000 C 
ENDROOT
BRANCH   6   7
ATOM      7  C   UNL     1       2.264   7.280  19.545  0.00  0.00    +0.000 A 
ATOM      8  C   UNL     1       1.507   8.082  20.415  0.00  0.00    +0.000 A 
ATOM      9  C   UNL     1       0.978   9.305  19.991  0.00  0.00    +0.000 A 
ATOM     10  C   UNL     1       1.190   9.741  18.685  0.00  0.00    +0.000 A 
ATOM     11  C   UNL     1       1.934   8.960  17.807  0.00  0.00    +0.000 A 
ATOM     12  C   UNL     1       2.466   7.740  18.234  0.00  0.00    +0.000 A 
ENDBRANCH   6   7
BRANCH   1  13
ATOM     13  C   UNL     1       3.049   4.682  17.698  0.00  0.00    +0.000 C 
BRANCH  13  15
ATOM     14  C   UNL     1       5.003   4.153  16.150  0.00  0.00    +0.000 C 
ATOM     15  C   UNL     1       3.921   3.794  16.858  0.00  0.00    +0.000 C 
BRANCH  14  16
ATOM     16  C   UNL     1       5.552   5.544  16.001  0.00  0.00    +0.000 C 
BRANCH  16  17
ATOM     17  C   UNL     1       6.969   5.693  16.569  0.00  0.00    +0.000 C 
BRANCH  17  18
ATOM     18  C   UNL     1       7.171   5.044  17.938  0.00  0.00    +0.000 C 
BRANCH  18  20
ATOM     19  O   UNL     1       8.237   7.089  18.700  0.00  0.00    +0.000 OA
ATOM     20  C   UNL     1       7.786   5.985  18.947  0.00  0.00    +0.000 C 
BRANCH  20  21
ATOM     21  O   UNL     1       7.766   5.481  20.204  0.00  0.00    +0.000 OA
ATOM     22  H   UNL     1       8.436   4.784  20.340  0.00  0.00    +0.000 HD
ENDBRANCH  20  21
ENDBRANCH  18  20
ENDBRANCH  17  18
ENDBRANCH  16  17
ENDBRANCH  14  16
ENDBRANCH  13  15
ENDBRANCH   1  13
TORSDOF 8
ENDMDL
MODEL 4
REMARK VINA RESULT:      -7.2      2.171      6.443
REMARK  Name = 
REMARK  8 active torsions:
REMARK  status: ('A' for Active; 'I' for Inactive)
REMARK    1  A    between atoms: C_2  and  O_3
REMARK    2  A    between atoms: C_2  and  C_4
REMARK    3  A    between atoms: C_4  and  C_5
REMARK    4  A    between atoms: C_5  and  C_6
REMARK    5  A    between atoms: C_6  and  C_7
REMARK    6  A    between atoms: C_8  and  C_9
REMARK    7  A    between atoms: C_9  and  C_10
REMARK    8  A    between atoms: C_15  and  C_16
REMARK                            x       y       z     vdW  Elec       q    Type
REMARK                         _______ _______ _______ _____ _____    ______ ____
ROOT
ATOM      1  C   UNL     1       3.692   4.077  18.822  0.00  0.00    +0.000 C 
ATOM      2  C   UNL     1       3.819   2.627  19.328  0.00  0.00    +0.000 C 
ATOM      3  O   UNL     1       2.546   1.980  19.344  0.00  0.00    +0.000 OA
ATOM      4  C   UNL     1       1.627   2.691  20.157  0.00  0.00    +0.000 C 
ATOM      5  O   UNL     1       1.415   4.009  19.676  0.00  0.00    +0.000 OA
ATOM      6  C   UNL     1       2.634   4.757  19.716  0.00  0.00    +0.000 C 
ENDROOT
BRANCH   6   7
ATOM      7  C   UNL     1       2.342   6.231  19.494  0.00  0.00    +0.000 A 
ATOM      8  C   UNL     1       1.786   7.004  20.527  0.00  0.00    +0.000 A 
ATOM      9  C   UNL     1       1.437   8.342  20.319  0.00  0.00    +0.000 A 
ATOM     10  C   UNL     1       1.631   8.927  19.070  0.00  0.00    +0.000 A 
ATOM     11  C   UNL     1       2.177   8.178  18.033  0.00  0.00    +0.000 A 
ATOM     12  C   UNL     1       2.529   6.842  18.244  0.00  0.00    +0.000 A 
ENDBRANCH   6   7
BRANCH   1  13
ATOM     13  C   UNL     1       3.381   4.011  17.310  0.00  0.00    +0.000 C 
BRANCH  13  15
ATOM     14  C   UNL     1       5.389   4.615  15.862  0.00  0.00    +0.000 C 
ATOM     15  C   UNL     1       4.564   3.723  16.432  0.00  0.00    +0.000 C 
BRANCH  14  16
ATOM     16  C   UNL     1       5.275   6.112  15.934  0.00  0.00    +0.000 C 
BRANCH  16  17
ATOM     17  C   UNL     1       6.060   6.717  17.105  0.00  0.00    +0.000 C 
BRANCH  17  18
ATOM     18  C   UNL     1       7.318   5.940  17.489  0.00  0.00    +0.000 C 
BRANCH  18  20
ATOM     19  O   UNL     1       7.265   5.420  19.861  0.00  0.00    +0.000 OA
ATOM     20  C   UNL     1       7.686   6.104  18.946  0.00  0.00    +0.000 C 
BRANCH  20  21
ATOM     21  O   UNL     1       8.579   7.102  19.145  0.00  0.00    +0.000 OA
ATOM     22  H   UNL     1       9.256   6.873  19.810  0.00  0.00    +0.000 HD
ENDBRANCH  20  21
ENDBRANCH  18  20
ENDBRANCH  17  18
ENDBRANCH  16  17
ENDBRANCH  14  16
ENDBRANCH  13  15
ENDBRANCH   1  13
TORSDOF 8
ENDMDL
MODEL 5
REMARK VINA RESULT:      -7.2      1.928      4.539
REMARK  Name = 
REMARK  8 active torsions:
REMARK  status: ('A' for Active; 'I' for Inactive)
REMARK    1  A    between atoms: C_2  and  O_3
REMARK    2  A    between atoms: C_2  and  C_4
REMARK    3  A    between atoms: C_4  and  C_5
REMARK    4  A    between atoms: C_5  and  C_6
REMARK    5  A    between atoms: C_6  and  C_7
REMARK    6  A    between atoms: C_8  and  C_9
REMARK    7  A    between atoms: C_9  and  C_10
REMARK    8  A    between atoms: C_15  and  C_16
REMARK                            x       y       z     vdW  Elec       q    Type
REMARK                         _______ _______ _______ _____ _____    ______ ____
ROOT
ATOM      1  C   UNL     1       4.525   4.529  16.810  0.00  0.00    +0.000 C 
ATOM      2  C   UNL     1       5.735   4.162  15.929  0.00  0.00    +0.000 C 
ATOM      3  O   UNL     1       6.961   4.469  16.594  0.00  0.00    +0.000 OA
ATOM      4  C   UNL     1       7.020   5.844  16.937  0.00  0.00    +0.000 C 
ATOM      5  O   UNL     1       5.969   6.207  17.818  0.00  0.00    +0.000 OA
ATOM      6  C   UNL     1       4.699   6.015  17.188  0.00  0.00    +0.000 C 
ENDROOT
BRANCH   6   7
ATOM      7  C   UNL     1       3.609   6.683  18.008  0.00  0.00    +0.000 A 
ATOM      8  C   UNL     1       2.998   7.860  17.545  0.00  0.00    +0.000 A 
ATOM      9  C   UNL     1       2.049   8.534  18.321  0.00  0.00    +0.000 A 
ATOM     10  C   UNL     1       1.702   8.044  19.578  0.00  0.00    +0.000 A 
ATOM     11  C   UNL     1       2.298   6.881  20.056  0.00  0.00    +0.000 A 
ATOM     12  C   UNL     1       3.243   6.208  19.278  0.00  0.00    +0.000 A 
ENDBRANCH   6   7
BRANCH   1  13
ATOM     13  C   UNL     1       4.483   3.519  17.978  0.00  0.00    +0.000 C 
BRANCH  13  15
ATOM     14  C   UNL     1       2.247   2.309  17.810  0.00  0.00    +0.000 C 
ATOM     15  C   UNL     1       3.588   2.334  17.758  0.00  0.00    +0.000 C 
BRANCH  14  16
ATOM     16  C   UNL     1       1.344   3.459  18.156  0.00  0.00    +0.000 C 
BRANCH  16  17
ATOM     17  C   UNL     1       0.871   3.432  19.615  0.00  0.00    +0.000 C 
BRANCH  17  18
ATOM     18  C   UNL     1       1.480   2.311  20.455  0.00  0.00    +0.000 C 
BRANCH  18  20
ATOM     19  O   UNL     1       2.262   3.663  22.314  0.00  0.00    +0.000 OA
ATOM     20  C   UNL     1       2.481   2.816  21.468  0.00  0.00    +0.000 C 
BRANCH  20  21
ATOM     21  O   UNL     1       3.682   2.199  21.361  0.00  0.00    +0.000 OA
ATOM     22  H   UNL     1       3.966   2.089  20.433  0.00  0.00    +0.000 HD
ENDBRANCH  20  21
ENDBRANCH  18  20
ENDBRANCH  17  18
ENDBRANCH  16  17
ENDBRANCH  14  16
ENDBRANCH  13  15
ENDBRANCH   1  13
TORSDOF 8
ENDMDL
MODEL 6
REMARK VINA RESULT:      -7.2      2.176      6.366
REMARK  Name = 
REMARK  8 active torsions:
REMARK  status: ('A' for Active; 'I' for Inactive)
REMARK    1  A    between atoms: C_2  and  O_3
REMARK    2  A    between atoms: C_2  and  C_4
REMARK    3  A    between atoms: C_4  and  C_5
REMARK    4  A    between atoms: C_5  and  C_6
REMARK    5  A    between atoms: C_6  and  C_7
REMARK    6  A    between atoms: C_8  and  C_9
REMARK    7  A    between atoms: C_9  and  C_10
REMARK    8  A    between atoms: C_15  and  C_16
REMARK                            x       y       z     vdW  Elec       q    Type
REMARK                         _______ _______ _______ _____ _____    ______ ____
ROOT
ATOM      1  C   UNL     1       4.034   4.542  18.871  0.00  0.00    +0.000 C 
ATOM      2  C   UNL     1       4.498   3.213  19.498  0.00  0.00    +0.000 C 
ATOM      3  O   UNL     1       3.381   2.376  19.799  0.00  0.00    +0.000 OA
ATOM      4  C   UNL     1       2.479   3.029  20.678  0.00  0.00    +0.000 C 
ATOM      5  O   UNL     1       1.961   4.217  20.103  0.00  0.00    +0.000 OA
ATOM      6  C   UNL     1       3.014   5.153  19.856  0.00  0.00    +0.000 C 
ENDROOT
BRANCH   6   7
ATOM      7  C   UNL     1       2.427   6.517  19.532  0.00  0.00    +0.000 A 
ATOM      8  C   UNL     1       2.579   7.064  18.247  0.00  0.00    +0.000 A 
ATOM      9  C   UNL     1       2.115   8.350  17.951  0.00  0.00    +0.000 A 
ATOM     10  C   UNL     1       1.500   9.114  18.941  0.00  0.00    +0.000 A 
ATOM     11  C   UNL     1       1.344   8.592  20.220  0.00  0.00    +0.000 A 
ATOM     12  C   UNL     1       1.804   7.305  20.513  0.00  0.00    +0.000 A 
ENDBRANCH   6   7
BRANCH   1  13
ATOM     13  C   UNL     1       3.517   4.225  17.450  0.00  0.00    +0.000 C 
BRANCH  13  15
ATOM     14  C   UNL     1       5.304   5.023  15.819  0.00  0.00    +0.000 C 
ATOM     15  C   UNL     1       4.588   4.055  16.411  0.00  0.00    +0.000 C 
BRANCH  14  16
ATOM     16  C   UNL     1       5.153   6.504  16.028  0.00  0.00    +0.000 C 
BRANCH  16  17
ATOM     17  C   UNL     1       6.004   7.036  17.188  0.00  0.00    +0.000 C 
BRANCH  17  18
ATOM     18  C   UNL     1       7.437   6.508  17.213  0.00  0.00    +0.000 C 
BRANCH  18  20
ATOM     19  O   UNL     1       7.702   4.350  18.295  0.00  0.00    +0.000 OA
ATOM     20  C   UNL     1       7.694   5.564  18.366  0.00  0.00    +0.000 C 
BRANCH  20  21
ATOM     21  O   UNL     1       7.949   6.220  19.523  0.00  0.00    +0.000 OA
ATOM     22  H   UNL     1       8.507   7.011  19.391  0.00  0.00    +0.000 HD
ENDBRANCH  20  21
ENDBRANCH  18  20
ENDBRANCH  17  18
ENDBRANCH  16  17
ENDBRANCH  14  16
ENDBRANCH  13  15
ENDBRANCH   1  13
TORSDOF 8
ENDMDL
MODEL 7
REMARK VINA RESULT:      -7.2      2.354      6.517
REMARK  Name = 
REMARK  8 active torsions:
REMARK  status: ('A' for Active; 'I' for Inactive)
REMARK    1  A    between atoms: C_2  and  O_3
REMARK    2  A    between atoms: C_2  and  C_4
REMARK    3  A    between atoms: C_4  and  C_5
REMARK    4  A    between atoms: C_5  and  C_6
REMARK    5  A    between atoms: C_6  and  C_7
REMARK    6  A    between atoms: C_8  and  C_9
REMARK    7  A    between atoms: C_9  and  C_10
REMARK    8  A    between atoms: C_15  and  C_16
REMARK                            x       y       z     vdW  Elec       q    Type
REMARK                         _______ _______ _______ _____ _____    ______ ____
ROOT
ATOM      1  C   UNL     1       3.691   5.318  18.998  0.00  0.00    +0.000 C 
ATOM      2  C   UNL     1       4.155   4.063  19.764  0.00  0.00    +0.000 C 
ATOM      3  O   UNL     1       3.035   3.301  20.215  0.00  0.00    +0.000 OA
ATOM      4  C   UNL     1       2.192   4.081  21.045  0.00  0.00    +0.000 C 
ATOM      5  O   UNL     1       1.673   5.205  20.352  0.00  0.00    +0.000 OA
ATOM      6  C   UNL     1       2.734   6.074  19.944  0.00  0.00    +0.000 C 
ENDROOT
BRANCH   6   7
ATOM      7  C   UNL     1       2.163   7.404  19.481  0.00  0.00    +0.000 A 
ATOM      8  C   UNL     1       2.463   7.892  18.199  0.00  0.00    +0.000 A 
ATOM      9  C   UNL     1       2.013   9.149  17.783  0.00  0.00    +0.000 A 
ATOM     10  C   UNL     1       1.262   9.942  18.648  0.00  0.00    +0.000 A 
ATOM     11  C   UNL     1       0.958   9.478  19.923  0.00  0.00    +0.000 A 
ATOM     12  C   UNL     1       1.405   8.220  20.336  0.00  0.00    +0.000 A 
ENDBRANCH   6   7
BRANCH   1  13
ATOM     13  C   UNL     1       3.101   4.844  17.651  0.00  0.00    +0.000 C 
BRANCH  13  15
ATOM     14  C   UNL     1       4.921   4.029  16.066  0.00  0.00    +0.000 C 
ATOM     15  C   UNL     1       3.919   3.811  16.931  0.00  0.00    +0.000 C 
BRANCH  14  16
ATOM     16  C   UNL     1       5.414   5.365  15.585  0.00  0.00    +0.000 C 
BRANCH  16  17
ATOM     17  C   UNL     1       6.881   5.629  15.948  0.00  0.00    +0.000 C 
BRANCH  17  18
ATOM     18  C   UNL     1       7.092   6.183  17.356  0.00  0.00    +0.000 C 
BRANCH  18  20
ATOM     19  O   UNL     1       7.589   5.222  19.530  0.00  0.00    +0.000 OA
ATOM     20  C   UNL     1       7.636   5.150  18.316  0.00  0.00    +0.000 C 
BRANCH  20  21
ATOM     21  O   UNL     1       8.178   4.086  17.677  0.00  0.00    +0.000 OA
ATOM     22  H   UNL     1       8.864   4.345  17.032  0.00  0.00    +0.000 HD
ENDBRANCH  20  21
ENDBRANCH  18  20
ENDBRANCH  17  18
ENDBRANCH  16  17
ENDBRANCH  14  16
ENDBRANCH  13  15
ENDBRANCH   1  13
TORSDOF 8
ENDMDL
MODEL 8
REMARK VINA RESULT:      -7.2      0.621      1.304
REMARK  Name = 
REMARK  8 active torsions:
REMARK  status: ('A' for Active; 'I' for Inactive)
REMARK    1  A    between atoms: C_2  and  O_3
REMARK    2  A    between atoms: C_2  and  C_4
REMARK    3  A    between atoms: C_4  and  C_5
REMARK    4  A    between atoms: C_5  and  C_6
REMARK    5  A    between atoms: C_6  and  C_7
REMARK    6  A    between atoms: C_8  and  C_9
REMARK    7  A    between atoms: C_9  and  C_10
REMARK    8  A    between atoms: C_15  and  C_16
REMARK                            x       y       z     vdW  Elec       q    Type
REMARK                         _______ _______ _______ _____ _____    ______ ____
ROOT
ATOM      1  C   UNL     1       5.284   4.659  17.301  0.00  0.00    +0.000 C 
ATOM      2  C   UNL     1       5.540   4.661  18.821  0.00  0.00    +0.000 C 
ATOM      3  O   UNL     1       6.498   5.659  19.174  0.00  0.00    +0.000 OA
ATOM      4  C   UNL     1       7.720   5.456  18.485  0.00  0.00    +0.000 C 
ATOM      5  O   UNL     1       7.545   5.531  17.079  0.00  0.00    +0.000 OA
ATOM      6  C   UNL     1       6.664   4.497  16.630  0.00  0.00    +0.000 C 
ENDROOT
BRANCH   6   7
ATOM      7  C   UNL     1       6.721   4.392  15.115  0.00  0.00    +0.000 A 
ATOM      8  C   UNL     1       7.634   5.174  14.387  0.00  0.00    +0.000 A 
ATOM      9  C   UNL     1       7.649   5.151  12.989  0.00  0.00    +0.000 A 
ATOM     10  C   UNL     1       6.743   4.351  12.295  0.00  0.00    +0.000 A 
ATOM     11  C   UNL     1       5.829   3.573  12.997  0.00  0.00    +0.000 A 
ATOM     12  C   UNL     1       5.819   3.594  14.395  0.00  0.00    +0.000 A 
ENDBRANCH   6   7
BRANCH   1  13
ATOM     13  C   UNL     1       4.499   5.947  16.965  0.00  0.00    +0.000 C 
BRANCH  13  15
ATOM     14  C   UNL     1       2.322   5.676  18.262  0.00  0.00    +0.000 C 
ATOM     15  C   UNL     1       3.456   6.333  17.974  0.00  0.00    +0.000 C 
BRANCH  14  16
ATOM     16  C   UNL     1       1.818   4.427  17.594  0.00  0.00    +0.000 C 
BRANCH  16  17
ATOM     17  C   UNL     1       1.403   3.339  18.592  0.00  0.00    +0.000 C 
BRANCH  17  18
ATOM     18  C   UNL     1       1.226   3.834  20.027  0.00  0.00    +0.000 C 
BRANCH  18  20
ATOM     19  O   UNL     1       2.041   3.146  22.209  0.00  0.00    +0.000 OA
ATOM     20  C   UNL     1       2.168   3.161  20.999  0.00  0.00    +0.000 C 
BRANCH  20  21
ATOM     21  O   UNL     1       3.190   2.529  20.374  0.00  0.00    +0.000 OA
ATOM     22  H   UNL     1       3.082   1.559  20.365  0.00  0.00    +0.000 HD
ENDBRANCH  20  21
ENDBRANCH  18  20
ENDBRANCH  17  18
ENDBRANCH  16  17
ENDBRANCH  14  16
ENDBRANCH  13  15
ENDBRANCH   1  13
TORSDOF 8
ENDMDL
MODEL 9
REMARK VINA RESULT:      -7.1      2.260      6.580
REMARK  Name = 
REMARK  8 active torsions:
REMARK  status: ('A' for Active; 'I' for Inactive)
REMARK    1  A    between atoms: C_2  and  O_3
REMARK    2  A    between atoms: C_2  and  C_4
REMARK    3  A    between atoms: C_4  and  C_5
REMARK    4  A    between atoms: C_5  and  C_6
REMARK    5  A    between atoms: C_6  and  C_7
REMARK    6  A    between atoms: C_8  and  C_9
REMARK    7  A    between atoms: C_9  and  C_10
REMARK    8  A    between atoms: C_15  and  C_16
REMARK                            x       y       z     vdW  Elec       q    Type
REMARK                         _______ _______ _______ _____ _____    ______ ____
ROOT
ATOM      1  C   UNL     1       4.025   3.564  19.631  0.00  0.00    +0.000 C 
ATOM      2  C   UNL     1       3.977   2.023  19.601  0.00  0.00    +0.000 C 
ATOM      3  O   UNL     1       3.614   1.551  18.303  0.00  0.00    +0.000 OA
ATOM      4  C   UNL     1       2.358   2.075  17.905  0.00  0.00    +0.000 C 
ATOM      5  O   UNL     1       2.382   3.492  17.837  0.00  0.00    +0.000 OA
ATOM      6  C   UNL     1       2.649   4.050  19.127  0.00  0.00    +0.000 C 
ENDROOT
BRANCH   6   7
ATOM      7  C   UNL     1       2.374   5.544  19.111  0.00  0.00    +0.000 A 
ATOM      8  C   UNL     1       2.558   6.283  17.931  0.00  0.00    +0.000 A 
ATOM      9  C   UNL     1       2.386   7.671  17.914  0.00  0.00    +0.000 A 
ATOM     10  C   UNL     1       2.035   8.343  19.083  0.00  0.00    +0.000 A 
ATOM     11  C   UNL     1       1.852   7.630  20.263  0.00  0.00    +0.000 A 
ATOM     12  C   UNL     1       2.020   6.243  20.276  0.00  0.00    +0.000 A 
ENDBRANCH   6   7
BRANCH   1  13
ATOM     13  C   UNL     1       5.256   4.002  18.807  0.00  0.00    +0.000 C 
BRANCH  13  15
ATOM     14  C   UNL     1       6.569   6.153  18.430  0.00  0.00    +0.000 C 
ATOM     15  C   UNL     1       5.837   5.331  19.197  0.00  0.00    +0.000 C 
BRANCH  14  16
ATOM     16  C   UNL     1       7.017   5.897  17.018  0.00  0.00    +0.000 C 
BRANCH  16  17
ATOM     17  C   UNL     1       5.864   5.935  16.007  0.00  0.00    +0.000 C 
BRANCH  17  18
ATOM     18  C   UNL     1       5.637   4.622  15.259  0.00  0.00    +0.000 C 
BRANCH  18  20
ATOM     19  O   UNL     1       7.393   5.267  13.710  0.00  0.00    +0.000 OA
ATOM     20  C   UNL     1       6.535   4.474  14.052  0.00  0.00    +0.000 C 
BRANCH  20  21
ATOM     21  O   UNL     1       6.306   3.324  13.376  0.00  0.00    +0.000 OA
ATOM     22  H   UNL     1       6.825   2.574  13.724  0.00  0.00    +0.000 HD
ENDBRANCH  20  21
ENDBRANCH  18  20
ENDBRANCH  17  18
ENDBRANCH  16  17
ENDBRANCH  14  16
ENDBRANCH  13  15
ENDBRANCH   1  13
TORSDOF 8
ENDMDL
