MODEL 1
REMARK VINA RESULT:      -7.7      0.000      0.000
REMARK  Name = 
REMARK  11 active torsions:
REMARK  status: ('A' for Active; 'I' for Inactive)
REMARK    1  A    between atoms: C_1  and  C_2
REMARK    2  A    between atoms: C_2  and  C_3
REMARK    3  A    between atoms: C_3  and  N_4
REMARK    4  A    between atoms: N_4  and  C_5
REMARK    5  A    between atoms: N_4  and  C_8
REMARK    6  A    between atoms: C_5  and  C_6
REMARK    7  A    between atoms: C_6  and  C_7
REMARK    8  A    between atoms: C_8  and  C_9
REMARK    9  A    between atoms: C_12  and  N_13
REMARK   10  A    between atoms: N_13  and  C_14
REMARK   11  A    between atoms: C_26  and  O_27
REMARK                            x       y       z     vdW  Elec       q    Type
REMARK                         _______ _______ _______ _____ _____    ______ ____
ROOT
ATOM      1  C   UNL     1       0.722  10.037  19.599  0.00  0.00    +0.000 A 
ATOM      2  C   UNL     1       0.635   9.319  20.802  0.00  0.00    +0.000 A 
ATOM      3  C   UNL     1       1.292   8.090  20.956  0.00  0.00    +0.000 A 
ATOM      4  C   UNL     1       2.042   7.544  19.909  0.00  0.00    +0.000 A 
ATOM      5  C   UNL     1       2.146   8.276  18.718  0.00  0.00    +0.000 A 
ATOM      6  C   UNL     1       1.494   9.500  18.566  0.00  0.00    +0.000 A 
ENDROOT
BRANCH   4   7
ATOM      7  N   UNL     1       2.678   6.294  20.050  0.00  0.00    +0.000 N 
ATOM      8  H   UNL     1       2.872   6.006  21.003  0.00  0.00    +0.000 HD
BRANCH   7   9
ATOM      9  C   UNL     1       2.668   5.219  19.125  0.00  0.00    +0.000 A 
ATOM     10  C   UNL     1       1.593   4.326  19.106  0.00  0.00    +0.000 A 
ATOM     11  C   UNL     1       1.573   3.331  18.153  0.00  0.00    +0.000 A 
ATOM     12  N   UNL     1       2.537   3.166  17.228  0.00  0.00    +0.000 NA
ATOM     13  C   UNL     1       3.586   4.002  17.248  0.00  0.00    +0.000 A 
ATOM     14  C   UNL     1       4.558   3.841  16.272  0.00  0.00    +0.000 A 
ATOM     15  C   UNL     1       5.671   4.674  16.221  0.00  0.00    +0.000 A 
ATOM     16 CL   UNL     1       6.838   4.463  14.973  0.00  0.00    +0.000 Cl
ATOM     17  C   UNL     1       5.841   5.680  17.160  0.00  0.00    +0.000 A 
ATOM     18  C   UNL     1       4.870   5.867  18.145  0.00  0.00    +0.000 A 
ATOM     19  C   UNL     1       3.725   5.041  18.199  0.00  0.00    +0.000 A 
ENDBRANCH   7   9
ENDBRANCH   4   7
BRANCH   6  20
ATOM     20  O   UNL     1       1.614  10.184  17.388  0.00  0.00    +0.000 OA
ATOM     21  H   UNL     1       2.173   9.667  16.783  0.00  0.00    +0.000 HD
ENDBRANCH   6  20
BRANCH   1  22
ATOM     22  C   UNL     1      -0.040  11.335  19.419  0.00  0.00    +0.000 C 
BRANCH  22  23
ATOM     23  N   UNL     1      -1.513  11.195  19.246  0.00  0.00    +0.000 NA
BRANCH  23  24
ATOM     24  C   UNL     1      -2.192  12.305  19.961  0.00  0.00    +0.000 C 
BRANCH  24  26
ATOM     25  C   UNL     1      -4.466  12.831  21.013  0.00  0.00    +0.000 C 
ATOM     26  C   UNL     1      -3.710  12.437  19.754  0.00  0.00    +0.000 C 
ENDBRANCH  24  26
ENDBRANCH  23  24
BRANCH  23  27
ATOM     27  C   UNL     1      -1.845  11.226  17.802  0.00  0.00    +0.000 C 
BRANCH  27  28
ATOM     28  C   UNL     1      -2.375   9.913  17.197  0.00  0.00    +0.000 C 
ATOM     29  C   UNL     1      -2.694  10.015  15.714  0.00  0.00    +0.000 C 
ENDBRANCH  27  28
ENDBRANCH  23  27
ENDBRANCH  22  23
ENDBRANCH   1  22
TORSDOF 9
ENDMDL
MODEL 2
REMARK VINA RESULT:      -7.5      1.213      1.571
REMARK  Name = 
REMARK  11 active torsions:
REMARK  status: ('A' for Active; 'I' for Inactive)
REMARK    1  A    between atoms: C_1  and  C_2
REMARK    2  A    between atoms: C_2  and  C_3
REMARK    3  A    between atoms: C_3  and  N_4
REMARK    4  A    between atoms: N_4  and  C_5
REMARK    5  A    between atoms: N_4  and  C_8
REMARK    6  A    between atoms: C_5  and  C_6
REMARK    7  A    between atoms: C_6  and  C_7
REMARK    8  A    between atoms: C_8  and  C_9
REMARK    9  A    between atoms: C_12  and  N_13
REMARK   10  A    between atoms: N_13  and  C_14
REMARK   11  A    between atoms: C_26  and  O_27
REMARK                            x       y       z     vdW  Elec       q    Type
REMARK                         _______ _______ _______ _____ _____    ______ ____
ROOT
ATOM      1  C   UNL     1       0.325  10.217  19.601  0.00  0.00    +0.000 A 
ATOM      2  C   UNL     1       1.128   9.667  18.589  0.00  0.00    +0.000 A 
ATOM      3  C   UNL     1       1.864   8.495  18.812  0.00  0.00    +0.000 A 
ATOM      4  C   UNL     1       1.825   7.851  20.052  0.00  0.00    +0.000 A 
ATOM      5  C   UNL     1       1.003   8.390  21.052  0.00  0.00    +0.000 A 
ATOM      6  C   UNL     1       0.269   9.555  20.829  0.00  0.00    +0.000 A 
ENDROOT
BRANCH   4   7
ATOM      7  N   UNL     1       2.588   6.690  20.289  0.00  0.00    +0.000 N 
ATOM      8  H   UNL     1       2.998   6.616  21.214  0.00  0.00    +0.000 HD
BRANCH   7   9
ATOM      9  C   UNL     1       2.487   5.446  19.614  0.00  0.00    +0.000 A 
ATOM     10  C   UNL     1       1.491   4.535  19.977  0.00  0.00    +0.000 A 
ATOM     11  C   UNL     1       1.370   3.364  19.262  0.00  0.00    +0.000 A 
ATOM     12  N   UNL     1       2.161   3.041  18.221  0.00  0.00    +0.000 NA
ATOM     13  C   UNL     1       3.135   3.897  17.874  0.00  0.00    +0.000 A 
ATOM     14  C   UNL     1       3.923   3.569  16.782  0.00  0.00    +0.000 A 
ATOM     15  C   UNL     1       4.947   4.407  16.356  0.00  0.00    +0.000 A 
ATOM     16 CL   UNL     1       5.882   3.981  14.975  0.00  0.00    +0.000 Cl
ATOM     17  C   UNL     1       5.212   5.592  17.028  0.00  0.00    +0.000 A 
ATOM     18  C   UNL     1       4.424   5.947  18.123  0.00  0.00    +0.000 A 
ATOM     19  C   UNL     1       3.369   5.114  18.557  0.00  0.00    +0.000 A 
ENDBRANCH   7   9
ENDBRANCH   4   7
BRANCH   6  20
ATOM     20  O   UNL     1      -0.518  10.055  21.829  0.00  0.00    +0.000 OA
ATOM     21  H   UNL     1      -1.438  10.087  21.516  0.00  0.00    +0.000 HD
ENDBRANCH   6  20
BRANCH   1  22
ATOM     22  C   UNL     1      -0.419  11.518  19.373  0.00  0.00    +0.000 C 
BRANCH  22  23
ATOM     23  N   UNL     1      -1.899  11.398  19.255  0.00  0.00    +0.000 NA
BRANCH  23  24
ATOM     24  C   UNL     1      -2.533  12.582  19.886  0.00  0.00    +0.000 C 
BRANCH  24  26
ATOM     25  C   UNL     1      -2.978  12.545  22.407  0.00  0.00    +0.000 C 
ATOM     26  C   UNL     1      -2.039  12.970  21.288  0.00  0.00    +0.000 C 
ENDBRANCH  24  26
ENDBRANCH  23  24
BRANCH  23  27
ATOM     27  C   UNL     1      -2.274  11.307  17.824  0.00  0.00    +0.000 C 
BRANCH  27  28
ATOM     28  C   UNL     1      -2.529   9.891  17.276  0.00  0.00    +0.000 C 
ATOM     29  C   UNL     1      -2.821   9.863  15.784  0.00  0.00    +0.000 C 
ENDBRANCH  27  28
ENDBRANCH  23  27
ENDBRANCH  22  23
ENDBRANCH   1  22
TORSDOF 9
ENDMDL
MODEL 3
REMARK VINA RESULT:      -7.5      1.162      2.195
REMARK  Name = 
REMARK  11 active torsions:
REMARK  status: ('A' for Active; 'I' for Inactive)
REMARK    1  A    between atoms: C_1  and  C_2
REMARK    2  A    between atoms: C_2  and  C_3
REMARK    3  A    between atoms: C_3  and  N_4
REMARK    4  A    between atoms: N_4  and  C_5
REMARK    5  A    between atoms: N_4  and  C_8
REMARK    6  A    between atoms: C_5  and  C_6
REMARK    7  A    between atoms: C_6  and  C_7
REMARK    8  A    between atoms: C_8  and  C_9
REMARK    9  A    between atoms: C_12  and  N_13
REMARK   10  A    between atoms: N_13  and  C_14
REMARK   11  A    between atoms: C_26  and  O_27
REMARK                            x       y       z     vdW  Elec       q    Type
REMARK                         _______ _______ _______ _____ _____    ______ ____
ROOT
ATOM      1  C   UNL     1       0.506   9.991  19.869  0.00  0.00    +0.000 A 
ATOM      2  C   UNL     1       0.430   9.195  21.023  0.00  0.00    +0.000 A 
ATOM      3  C   UNL     1       1.148   7.994  21.118  0.00  0.00    +0.000 A 
ATOM      4  C   UNL     1       1.950   7.555  20.060  0.00  0.00    +0.000 A 
ATOM      5  C   UNL     1       2.042   8.365  18.919  0.00  0.00    +0.000 A 
ATOM      6  C   UNL     1       1.330   9.561  18.826  0.00  0.00    +0.000 A 
ENDROOT
BRANCH   4   7
ATOM      7  N   UNL     1       2.648   6.334  20.140  0.00  0.00    +0.000 N 
ATOM      8  H   UNL     1       2.936   6.054  21.072  0.00  0.00    +0.000 HD
BRANCH   7   9
ATOM      9  C   UNL     1       2.604   5.259  19.216  0.00  0.00    +0.000 A 
ATOM     10  C   UNL     1       1.505   4.396  19.203  0.00  0.00    +0.000 A 
ATOM     11  C   UNL     1       1.453   3.402  18.250  0.00  0.00    +0.000 A 
ATOM     12  N   UNL     1       2.407   3.211  17.319  0.00  0.00    +0.000 NA
ATOM     13  C   UNL     1       3.478   4.018  17.333  0.00  0.00    +0.000 A 
ATOM     14  C   UNL     1       4.439   3.832  16.351  0.00  0.00    +0.000 A 
ATOM     15  C   UNL     1       5.574   4.634  16.293  0.00  0.00    +0.000 A 
ATOM     16 CL   UNL     1       6.727   4.392  15.039  0.00  0.00    +0.000 Cl
ATOM     17  C   UNL     1       5.776   5.635  17.231  0.00  0.00    +0.000 A 
ATOM     18  C   UNL     1       4.816   5.848  18.221  0.00  0.00    +0.000 A 
ATOM     19  C   UNL     1       3.650   5.053  18.282  0.00  0.00    +0.000 A 
ENDBRANCH   7   9
ENDBRANCH   4   7
BRANCH   6  20
ATOM     20  O   UNL     1       1.440  10.323  17.696  0.00  0.00    +0.000 OA
ATOM     21  H   UNL     1       1.636   9.739  16.944  0.00  0.00    +0.000 HD
ENDBRANCH   6  20
BRANCH   1  22
ATOM     22  C   UNL     1      -0.320  11.256  19.749  0.00  0.00    +0.000 C 
BRANCH  22  23
ATOM     23  N   UNL     1      -0.458  11.805  18.372  0.00  0.00    +0.000 NA
BRANCH  23  24
ATOM     24  C   UNL     1      -1.848  11.587  17.900  0.00  0.00    +0.000 C 
BRANCH  24  26
ATOM     25  C   UNL     1      -3.374   9.545  17.664  0.00  0.00    +0.000 C 
ATOM     26  C   UNL     1      -2.133  10.268  17.164  0.00  0.00    +0.000 C 
ENDBRANCH  24  26
ENDBRANCH  23  24
BRANCH  23  27
ATOM     27  C   UNL     1      -0.132  13.251  18.382  0.00  0.00    +0.000 C 
BRANCH  27  28
ATOM     28  C   UNL     1       1.071  13.671  19.246  0.00  0.00    +0.000 C 
ATOM     29  C   UNL     1       2.378  13.743  18.471  0.00  0.00    +0.000 C 
ENDBRANCH  27  28
ENDBRANCH  23  27
ENDBRANCH  22  23
ENDBRANCH   1  22
TORSDOF 9
ENDMDL
MODEL 4
REMARK VINA RESULT:      -7.4      1.444      1.822
REMARK  Name = 
REMARK  11 active torsions:
REMARK  status: ('A' for Active; 'I' for Inactive)
REMARK    1  A    between atoms: C_1  and  C_2
REMARK    2  A    between atoms: C_2  and  C_3
REMARK    3  A    between atoms: C_3  and  N_4
REMARK    4  A    between atoms: N_4  and  C_5
REMARK    5  A    between atoms: N_4  and  C_8
REMARK    6  A    between atoms: C_5  and  C_6
REMARK    7  A    between atoms: C_6  and  C_7
REMARK    8  A    between atoms: C_8  and  C_9
REMARK    9  A    between atoms: C_12  and  N_13
REMARK   10  A    between atoms: N_13  and  C_14
REMARK   11  A    between atoms: C_26  and  O_27
REMARK                            x       y       z     vdW  Elec       q    Type
REMARK                         _______ _______ _______ _____ _____    ______ ____
ROOT
ATOM      1  C   UNL     1      -0.127  10.263  19.031  0.00  0.00    +0.000 A 
ATOM      2  C   UNL     1       0.673   9.682  18.034  0.00  0.00    +0.000 A 
ATOM      3  C   UNL     1       1.590   8.668  18.347  0.00  0.00    +0.000 A 
ATOM      4  C   UNL     1       1.737   8.218  19.662  0.00  0.00    +0.000 A 
ATOM      5  C   UNL     1       0.918   8.784  20.650  0.00  0.00    +0.000 A 
ATOM      6  C   UNL     1       0.004   9.790  20.338  0.00  0.00    +0.000 A 
ENDROOT
BRANCH   4   7
ATOM      7  N   UNL     1       2.679   7.221  19.985  0.00  0.00    +0.000 N 
ATOM      8  H   UNL     1       3.184   7.360  20.854  0.00  0.00    +0.000 HD
BRANCH   7   9
ATOM      9  C   UNL     1       2.694   5.877  19.532  0.00  0.00    +0.000 A 
ATOM     10  C   UNL     1       1.878   4.925  20.149  0.00  0.00    +0.000 A 
ATOM     11  C   UNL     1       1.858   3.642  19.646  0.00  0.00    +0.000 A 
ATOM     12  N   UNL     1       2.584   3.247  18.583  0.00  0.00    +0.000 NA
ATOM     13  C   UNL     1       3.387   4.145  17.993  0.00  0.00    +0.000 A 
ATOM     14  C   UNL     1       4.107   3.735  16.881  0.00  0.00    +0.000 A 
ATOM     15  C   UNL     1       4.955   4.610  16.210  0.00  0.00    +0.000 A 
ATOM     16 CL   UNL     1       5.804   4.072  14.813  0.00  0.00    +0.000 Cl
ATOM     17  C   UNL     1       5.110   5.916  16.651  0.00  0.00    +0.000 A 
ATOM     18  C   UNL     1       4.387   6.353  17.761  0.00  0.00    +0.000 A 
ATOM     19  C   UNL     1       3.509   5.481  18.443  0.00  0.00    +0.000 A 
ENDBRANCH   7   9
ENDBRANCH   4   7
BRANCH   6  20
ATOM     20  O   UNL     1      -0.774  10.322  21.328  0.00  0.00    +0.000 OA
ATOM     21  H   UNL     1      -0.465  11.224  21.518  0.00  0.00    +0.000 HD
ENDBRANCH   6  20
BRANCH   1  22
ATOM     22  C   UNL     1      -1.072  11.400  18.695  0.00  0.00    +0.000 C 
BRANCH  22  23
ATOM     23  N   UNL     1      -2.410  10.993  18.182  0.00  0.00    +0.000 NA
BRANCH  23  24
ATOM     24  C   UNL     1      -3.448  11.858  18.796  0.00  0.00    +0.000 C 
BRANCH  24  26
ATOM     25  C   UNL     1      -5.672  12.368  17.634  0.00  0.00    +0.000 C 
ATOM     26  C   UNL     1      -4.913  11.446  18.577  0.00  0.00    +0.000 C 
ENDBRANCH  24  26
ENDBRANCH  23  24
BRANCH  23  27
ATOM     27  C   UNL     1      -2.431  11.121  16.706  0.00  0.00    +0.000 C 
BRANCH  27  28
ATOM     28  C   UNL     1      -2.776   9.844  15.917  0.00  0.00    +0.000 C 
ATOM     29  C   UNL     1      -3.057  10.100  14.445  0.00  0.00    +0.000 C 
ENDBRANCH  27  28
ENDBRANCH  23  27
ENDBRANCH  22  23
ENDBRANCH   1  22
TORSDOF 9
ENDMDL
MODEL 5
REMARK VINA RESULT:      -7.4      1.530      2.808
REMARK  Name = 
REMARK  11 active torsions:
REMARK  status: ('A' for Active; 'I' for Inactive)
REMARK    1  A    between atoms: C_1  and  C_2
REMARK    2  A    between atoms: C_2  and  C_3
REMARK    3  A    between atoms: C_3  and  N_4
REMARK    4  A    between atoms: N_4  and  C_5
REMARK    5  A    between atoms: N_4  and  C_8
REMARK    6  A    between atoms: C_5  and  C_6
REMARK    7  A    between atoms: C_6  and  C_7
REMARK    8  A    between atoms: C_8  and  C_9
REMARK    9  A    between atoms: C_12  and  N_13
REMARK   10  A    between atoms: N_13  and  C_14
REMARK   11  A    between atoms: C_26  and  O_27
REMARK                            x       y       z     vdW  Elec       q    Type
REMARK                         _______ _______ _______ _____ _____    ______ ____
ROOT
ATOM      1  C   UNL     1       0.622   9.795  19.626  0.00  0.00    +0.000 A 
ATOM      2  C   UNL     1       0.604   9.035  20.807  0.00  0.00    +0.000 A 
ATOM      3  C   UNL     1       1.369   7.865  20.921  0.00  0.00    +0.000 A 
ATOM      4  C   UNL     1       2.159   7.420  19.856  0.00  0.00    +0.000 A 
ATOM      5  C   UNL     1       2.192   8.196  18.688  0.00  0.00    +0.000 A 
ATOM      6  C   UNL     1       1.434   9.361  18.576  0.00  0.00    +0.000 A 
ENDROOT
BRANCH   4   7
ATOM      7  N   UNL     1       2.904   6.229  19.956  0.00  0.00    +0.000 N 
ATOM      8  H   UNL     1       3.152   5.945  20.898  0.00  0.00    +0.000 HD
BRANCH   7   9
ATOM      9  C   UNL     1       2.959   5.170  19.014  0.00  0.00    +0.000 A 
ATOM     10  C   UNL     1       1.960   4.192  19.007  0.00  0.00    +0.000 A 
ATOM     11  C   UNL     1       1.997   3.213  18.037  0.00  0.00    +0.000 A 
ATOM     12  N   UNL     1       2.947   3.142  17.085  0.00  0.00    +0.000 NA
ATOM     13  C   UNL     1       3.923   4.063  17.093  0.00  0.00    +0.000 A 
ATOM     14  C   UNL     1       4.878   3.998  16.090  0.00  0.00    +0.000 A 
ATOM     15  C   UNL     1       5.917   4.920  16.024  0.00  0.00    +0.000 A 
ATOM     16 CL   UNL     1       7.063   4.826  14.743  0.00  0.00    +0.000 Cl
ATOM     17  C   UNL     1       6.028   5.923  16.976  0.00  0.00    +0.000 A 
ATOM     18  C   UNL     1       5.072   6.014  17.988  0.00  0.00    +0.000 A 
ATOM     19  C   UNL     1       4.001   5.094  18.057  0.00  0.00    +0.000 A 
ENDBRANCH   7   9
ENDBRANCH   4   7
BRANCH   6  20
ATOM     20  O   UNL     1       1.487  10.089  17.420  0.00  0.00    +0.000 OA
ATOM     21  H   UNL     1       0.585  10.183  17.069  0.00  0.00    +0.000 HD
ENDBRANCH   6  20
BRANCH   1  22
ATOM     22  C   UNL     1      -0.254  11.025  19.489  0.00  0.00    +0.000 C 
BRANCH  22  23
ATOM     23  N   UNL     1      -0.057  12.072  20.529  0.00  0.00    +0.000 NA
BRANCH  23  24
ATOM     24  C   UNL     1       0.624  13.241  19.918  0.00  0.00    +0.000 C 
BRANCH  24  26
ATOM     25  C   UNL     1       2.477  13.393  18.157  0.00  0.00    +0.000 C 
ATOM     26  C   UNL     1       2.120  13.085  19.604  0.00  0.00    +0.000 C 
ENDBRANCH  24  26
ENDBRANCH  23  24
BRANCH  23  27
ATOM     27  C   UNL     1      -1.373  12.468  21.085  0.00  0.00    +0.000 C 
BRANCH  27  28
ATOM     28  C   UNL     1      -1.539  12.328  22.609  0.00  0.00    +0.000 C 
ATOM     29  C   UNL     1      -1.230  10.931  23.125  0.00  0.00    +0.000 C 
ENDBRANCH  27  28
ENDBRANCH  23  27
ENDBRANCH  22  23
ENDBRANCH   1  22
TORSDOF 9
ENDMDL
MODEL 6
REMARK VINA RESULT:      -7.3      3.253      8.717
REMARK  Name = 
REMARK  11 active torsions:
REMARK  status: ('A' for Active; 'I' for Inactive)
REMARK    1  A    between atoms: C_1  and  C_2
REMARK    2  A    between atoms: C_2  and  C_3
REMARK    3  A    between atoms: C_3  and  N_4
REMARK    4  A    between atoms: N_4  and  C_5
REMARK    5  A    between atoms: N_4  and  C_8
REMARK    6  A    between atoms: C_5  and  C_6
REMARK    7  A    between atoms: C_6  and  C_7
REMARK    8  A    between atoms: C_8  and  C_9
REMARK    9  A    between atoms: C_12  and  N_13
REMARK   10  A    between atoms: N_13  and  C_14
REMARK   11  A    between atoms: C_26  and  O_27
REMARK                            x       y       z     vdW  Elec       q    Type
REMARK                         _______ _______ _______ _____ _____    ______ ____
ROOT
ATOM      1  C   UNL     1       3.200   6.462  18.987  0.00  0.00    +0.000 A 
ATOM      2  C   UNL     1       3.534   7.127  17.796  0.00  0.00    +0.000 A 
ATOM      3  C   UNL     1       2.894   8.321  17.435  0.00  0.00    +0.000 A 
ATOM      4  C   UNL     1       1.900   8.874  18.249  0.00  0.00    +0.000 A 
ATOM      5  C   UNL     1       1.587   8.220  19.449  0.00  0.00    +0.000 A 
ATOM      6  C   UNL     1       2.226   7.033  19.809  0.00  0.00    +0.000 A 
ENDROOT
BRANCH   4   7
ATOM      7  N   UNL     1       1.234  10.058  17.874  0.00  0.00    +0.000 N 
ATOM      8  H   UNL     1       1.111  10.194  16.876  0.00  0.00    +0.000 HD
BRANCH   7   9
ATOM      9  C   UNL     1       0.339  10.824  18.664  0.00  0.00    +0.000 A 
ATOM     10  C   UNL     1       0.832  11.622  19.700  0.00  0.00    +0.000 A 
ATOM     11  C   UNL     1      -0.049  12.410  20.408  0.00  0.00    +0.000 A 
ATOM     12  N   UNL     1      -1.371  12.460  20.157  0.00  0.00    +0.000 NA
ATOM     13  C   UNL     1      -1.862  11.684  19.179  0.00  0.00    +0.000 A 
ATOM     14  C   UNL     1      -3.220  11.766  18.910  0.00  0.00    +0.000 A 
ATOM     15  C   UNL     1      -3.802  11.000  17.907  0.00  0.00    +0.000 A 
ATOM     16 CL   UNL     1      -5.485  11.156  17.581  0.00  0.00    +0.000 Cl
ATOM     17  C   UNL     1      -3.034  10.120  17.157  0.00  0.00    +0.000 A 
ATOM     18  C   UNL     1      -1.664  10.030  17.404  0.00  0.00    +0.000 A 
ATOM     19  C   UNL     1      -1.055  10.815  18.408  0.00  0.00    +0.000 A 
ENDBRANCH   7   9
ENDBRANCH   4   7
BRANCH   6  20
ATOM     20  O   UNL     1       1.892   6.419  20.984  0.00  0.00    +0.000 OA
ATOM     21  H   UNL     1       0.968   6.634  21.197  0.00  0.00    +0.000 HD
ENDBRANCH   6  20
BRANCH   1  22
ATOM     22  C   UNL     1       3.852   5.140  19.340  0.00  0.00    +0.000 C 
BRANCH  22  23
ATOM     23  N   UNL     1       3.716   4.064  18.319  0.00  0.00    +0.000 NA
BRANCH  23  24
ATOM     24  C   UNL     1       5.018   3.884  17.629  0.00  0.00    +0.000 C 
BRANCH  24  26
ATOM     25  C   UNL     1       5.921   5.244  15.656  0.00  0.00    +0.000 C 
ATOM     26  C   UNL     1       5.030   4.096  16.106  0.00  0.00    +0.000 C 
ENDBRANCH  24  26
ENDBRANCH  23  24
BRANCH  23  27
ATOM     27  C   UNL     1       3.300   2.806  18.982  0.00  0.00    +0.000 C 
BRANCH  27  28
ATOM     28  C   UNL     1       1.988   2.861  19.786  0.00  0.00    +0.000 C 
ATOM     29  C   UNL     1       0.762   2.480  18.972  0.00  0.00    +0.000 C 
ENDBRANCH  27  28
ENDBRANCH  23  27
ENDBRANCH  22  23
ENDBRANCH   1  22
TORSDOF 9
ENDMDL
MODEL 7
REMARK VINA RESULT:      -7.3      1.464      2.576
REMARK  Name = 
REMARK  11 active torsions:
REMARK  status: ('A' for Active; 'I' for Inactive)
REMARK    1  A    between atoms: C_1  and  C_2
REMARK    2  A    between atoms: C_2  and  C_3
REMARK    3  A    between atoms: C_3  and  N_4
REMARK    4  A    between atoms: N_4  and  C_5
REMARK    5  A    between atoms: N_4  and  C_8
REMARK    6  A    between atoms: C_5  and  C_6
REMARK    7  A    between atoms: C_6  and  C_7
REMARK    8  A    between atoms: C_8  and  C_9
REMARK    9  A    between atoms: C_12  and  N_13
REMARK   10  A    between atoms: N_13  and  C_14
REMARK   11  A    between atoms: C_26  and  O_27
REMARK                            x       y       z     vdW  Elec       q    Type
REMARK                         _______ _______ _______ _____ _____    ______ ____
ROOT
ATOM      1  C   UNL     1       0.303   9.760  20.321  0.00  0.00    +0.000 A 
ATOM      2  C   UNL     1       1.113   9.519  19.199  0.00  0.00    +0.000 A 
ATOM      3  C   UNL     1       1.910   8.369  19.121  0.00  0.00    +0.000 A 
ATOM      4  C   UNL     1       1.928   7.438  20.164  0.00  0.00    +0.000 A 
ATOM      5  C   UNL     1       1.099   7.670  21.272  0.00  0.00    +0.000 A 
ATOM      6  C   UNL     1       0.304   8.814  21.348  0.00  0.00    +0.000 A 
ENDROOT
BRANCH   4   7
ATOM      7  N   UNL     1       2.751   6.296  20.103  0.00  0.00    +0.000 N 
ATOM      8  H   UNL     1       3.184   6.020  20.978  0.00  0.00    +0.000 HD
BRANCH   7   9
ATOM      9  C   UNL     1       2.698   5.252  19.144  0.00  0.00    +0.000 A 
ATOM     10  C   UNL     1       1.592   4.399  19.104  0.00  0.00    +0.000 A 
ATOM     11  C   UNL     1       1.531   3.436  18.120  0.00  0.00    +0.000 A 
ATOM     12  N   UNL     1       2.484   3.268  17.183  0.00  0.00    +0.000 NA
ATOM     13  C   UNL     1       3.561   4.066  17.222  0.00  0.00    +0.000 A 
ATOM     14  C   UNL     1       4.521   3.904  16.234  0.00  0.00    +0.000 A 
ATOM     15  C   UNL     1       5.662   4.698  16.201  0.00  0.00    +0.000 A 
ATOM     16 CL   UNL     1       6.813   4.488  14.939  0.00  0.00    +0.000 Cl
ATOM     17  C   UNL     1       5.872   5.667  17.171  0.00  0.00    +0.000 A 
ATOM     18  C   UNL     1       4.915   5.855  18.168  0.00  0.00    +0.000 A 
ATOM     19  C   UNL     1       3.742   5.068  18.204  0.00  0.00    +0.000 A 
ENDBRANCH   7   9
ENDBRANCH   4   7
BRANCH   6  20
ATOM     20  O   UNL     1      -0.488   9.010  22.445  0.00  0.00    +0.000 OA
ATOM     21  H   UNL     1      -1.089   9.754  22.268  0.00  0.00    +0.000 HD
ENDBRANCH   6  20
BRANCH   1  22
ATOM     22  C   UNL     1      -0.510  11.035  20.425  0.00  0.00    +0.000 C 
BRANCH  22  23
ATOM     23  N   UNL     1      -0.565  11.864  19.188  0.00  0.00    +0.000 NA
BRANCH  23  24
ATOM     24  C   UNL     1      -1.975  11.960  18.732  0.00  0.00    +0.000 C 
BRANCH  24  26
ATOM     25  C   UNL     1      -1.878   9.984  17.106  0.00  0.00    +0.000 C 
ATOM     26  C   UNL     1      -2.285  11.434  17.322  0.00  0.00    +0.000 C 
ENDBRANCH  24  26
ENDBRANCH  23  24
BRANCH  23  27
ATOM     27  C   UNL     1      -0.017  13.211  19.472  0.00  0.00    +0.000 C 
BRANCH  27  28
ATOM     28  C   UNL     1       1.516  13.346  19.422  0.00  0.00    +0.000 C 
ATOM     29  C   UNL     1       2.119  12.911  18.095  0.00  0.00    +0.000 C 
ENDBRANCH  27  28
ENDBRANCH  23  27
ENDBRANCH  22  23
ENDBRANCH   1  22
TORSDOF 9
ENDMDL
MODEL 8
REMARK VINA RESULT:      -7.3      0.987      1.735
REMARK  Name = 
REMARK  11 active torsions:
REMARK  status: ('A' for Active; 'I' for Inactive)
REMARK    1  A    between atoms: C_1  and  C_2
REMARK    2  A    between atoms: C_2  and  C_3
REMARK    3  A    between atoms: C_3  and  N_4
REMARK    4  A    between atoms: N_4  and  C_5
REMARK    5  A    between atoms: N_4  and  C_8
REMARK    6  A    between atoms: C_5  and  C_6
REMARK    7  A    between atoms: C_6  and  C_7
REMARK    8  A    between atoms: C_8  and  C_9
REMARK    9  A    between atoms: C_12  and  N_13
REMARK   10  A    between atoms: N_13  and  C_14
REMARK   11  A    between atoms: C_26  and  O_27
REMARK                            x       y       z     vdW  Elec       q    Type
REMARK                         _______ _______ _______ _____ _____    ______ ____
ROOT
ATOM      1  C   UNL     1       0.746  10.038  19.784  0.00  0.00    +0.000 A 
ATOM      2  C   UNL     1       0.694   9.314  20.987  0.00  0.00    +0.000 A 
ATOM      3  C   UNL     1       1.320   8.065  21.102  0.00  0.00    +0.000 A 
ATOM      4  C   UNL     1       2.002   7.504  20.017  0.00  0.00    +0.000 A 
ATOM      5  C   UNL     1       2.071   8.241  18.826  0.00  0.00    +0.000 A 
ATOM      6  C   UNL     1       1.451   9.486  18.714  0.00  0.00    +0.000 A 
ENDROOT
BRANCH   4   7
ATOM      7  N   UNL     1       2.605   6.235  20.120  0.00  0.00    +0.000 N 
ATOM      8  H   UNL     1       2.759   5.898  21.064  0.00  0.00    +0.000 HD
BRANCH   7   9
ATOM      9  C   UNL     1       2.606   5.204  19.145  0.00  0.00    +0.000 A 
ATOM     10  C   UNL     1       1.507   4.347  19.037  0.00  0.00    +0.000 A 
ATOM     11  C   UNL     1       1.501   3.399  18.037  0.00  0.00    +0.000 A 
ATOM     12  N   UNL     1       2.500   3.248  17.147  0.00  0.00    +0.000 NA
ATOM     13  C   UNL     1       3.570   4.050  17.252  0.00  0.00    +0.000 A 
ATOM     14  C   UNL     1       4.579   3.906  16.312  0.00  0.00    +0.000 A 
ATOM     15  C   UNL     1       5.716   4.705  16.348  0.00  0.00    +0.000 A 
ATOM     16 CL   UNL     1       6.930   4.518  15.142  0.00  0.00    +0.000 Cl
ATOM     17  C   UNL     1       5.873   5.661  17.341  0.00  0.00    +0.000 A 
ATOM     18  C   UNL     1       4.865   5.831  18.291  0.00  0.00    +0.000 A 
ATOM     19  C   UNL     1       3.697   5.038  18.256  0.00  0.00    +0.000 A 
ENDBRANCH   7   9
ENDBRANCH   4   7
BRANCH   6  20
ATOM     20  O   UNL     1       1.535  10.174  17.535  0.00  0.00    +0.000 OA
ATOM     21  H   UNL     1       1.945   9.600  16.866  0.00  0.00    +0.000 HD
ENDBRANCH   6  20
BRANCH   1  22
ATOM     22  C   UNL     1       0.016  11.360  19.649  0.00  0.00    +0.000 C 
BRANCH  22  23
ATOM     23  N   UNL     1      -0.790  11.523  18.407  0.00  0.00    +0.000 NA
BRANCH  23  24
ATOM     24  C   UNL     1      -2.204  11.177  18.699  0.00  0.00    +0.000 C 
BRANCH  24  26
ATOM     25  C   UNL     1      -4.462  12.244  19.263  0.00  0.00    +0.000 C 
ATOM     26  C   UNL     1      -2.983  12.145  19.604  0.00  0.00    +0.000 C 
ENDBRANCH  24  26
ENDBRANCH  23  24
BRANCH  23  27
ATOM     27  C   UNL     1      -0.684  12.923  17.931  0.00  0.00    +0.000 C 
BRANCH  27  28
ATOM     28  C   UNL     1       0.279  13.836  18.711  0.00  0.00    +0.000 C 
ATOM     29  C   UNL     1      -0.406  15.031  19.354  0.00  0.00    +0.000 C 
ENDBRANCH  27  28
ENDBRANCH  23  27
ENDBRANCH  22  23
ENDBRANCH   1  22
TORSDOF 9
ENDMDL
MODEL 9
REMARK VINA RESULT:      -7.3      1.620      2.432
REMARK  Name = 
REMARK  11 active torsions:
REMARK  status: ('A' for Active; 'I' for Inactive)
REMARK    1  A    between atoms: C_1  and  C_2
REMARK    2  A    between atoms: C_2  and  C_3
REMARK    3  A    between atoms: C_3  and  N_4
REMARK    4  A    between atoms: N_4  and  C_5
REMARK    5  A    between atoms: N_4  and  C_8
REMARK    6  A    between atoms: C_5  and  C_6
REMARK    7  A    between atoms: C_6  and  C_7
REMARK    8  A    between atoms: C_8  and  C_9
REMARK    9  A    between atoms: C_12  and  N_13
REMARK   10  A    between atoms: N_13  and  C_14
REMARK   11  A    between atoms: C_26  and  O_27
REMARK                            x       y       z     vdW  Elec       q    Type
REMARK                         _______ _______ _______ _____ _____    ______ ____
ROOT
ATOM      1  C   UNL     1       0.324  10.084  19.478  0.00  0.00    +0.000 A 
ATOM      2  C   UNL     1       0.076   9.458  20.710  0.00  0.00    +0.000 A 
ATOM      3  C   UNL     1       0.771   8.298  21.080  0.00  0.00    +0.000 A 
ATOM      4  C   UNL     1       1.720   7.729  20.225  0.00  0.00    +0.000 A 
ATOM      5  C   UNL     1       1.981   8.370  19.006  0.00  0.00    +0.000 A 
ATOM      6  C   UNL     1       1.292   9.527  18.640  0.00  0.00    +0.000 A 
ENDROOT
BRANCH   4   7
ATOM      7  N   UNL     1       2.397   6.545  20.581  0.00  0.00    +0.000 N 
ATOM      8  H   UNL     1       2.708   6.492  21.545  0.00  0.00    +0.000 HD
BRANCH   7   9
ATOM      9  C   UNL     1       2.304   5.281  19.946  0.00  0.00    +0.000 A 
ATOM     10  C   UNL     1       1.272   4.403  20.288  0.00  0.00    +0.000 A 
ATOM     11  C   UNL     1       1.162   3.210  19.608  0.00  0.00    +0.000 A 
ATOM     12  N   UNL     1       1.998   2.835  18.621  0.00  0.00    +0.000 NA
ATOM     13  C   UNL     1       3.006   3.658  18.296  0.00  0.00    +0.000 A 
ATOM     14  C   UNL     1       3.842   3.276  17.258  0.00  0.00    +0.000 A 
ATOM     15  C   UNL     1       4.904   4.078  16.857  0.00  0.00    +0.000 A 
ATOM     16 CL   UNL     1       5.898   3.584  15.541  0.00  0.00    +0.000 Cl
ATOM     17  C   UNL     1       5.160   5.280  17.500  0.00  0.00    +0.000 A 
ATOM     18  C   UNL     1       4.325   5.690  18.539  0.00  0.00    +0.000 A 
ATOM     19  C   UNL     1       3.232   4.894  18.947  0.00  0.00    +0.000 A 
ENDBRANCH   7   9
ENDBRANCH   4   7
BRANCH   6  20
ATOM     20  O   UNL     1       1.569  10.123  17.441  0.00  0.00    +0.000 OA
ATOM     21  H   UNL     1       0.913   9.828  16.786  0.00  0.00    +0.000 HD
ENDBRANCH   6  20
BRANCH   1  22
ATOM     22  C   UNL     1      -0.474  11.303  19.058  0.00  0.00    +0.000 C 
BRANCH  22  23
ATOM     23  N   UNL     1      -0.107  12.575  19.740  0.00  0.00    +0.000 NA
BRANCH  23  24
ATOM     24  C   UNL     1      -1.110  12.866  20.796  0.00  0.00    +0.000 C 
BRANCH  24  26
ATOM     25  C   UNL     1      -1.487  11.814  23.099  0.00  0.00    +0.000 C 
ATOM     26  C   UNL     1      -0.636  12.749  22.253  0.00  0.00    +0.000 C 
ENDBRANCH  24  26
ENDBRANCH  23  24
BRANCH  23  27
ATOM     27  C   UNL     1       1.247  12.447  20.329  0.00  0.00    +0.000 C 
BRANCH  27  28
ATOM     28  C   UNL     1       2.303  13.451  19.831  0.00  0.00    +0.000 C 
ATOM     29  C   UNL     1       2.730  13.216  18.391  0.00  0.00    +0.000 C 
ENDBRANCH  27  28
ENDBRANCH  23  27
ENDBRANCH  22  23
ENDBRANCH   1  22
TORSDOF 9
ENDMDL
