MODEL 1
REMARK VINA RESULT:      -6.8      0.000      0.000
REMARK  Name = 
REMARK  12 active torsions:
REMARK  status: ('A' for Active; 'I' for Inactive)
REMARK    1  A    between atoms: C_1  and  C_2
REMARK    2  A    between atoms: C_2  and  O_3
REMARK    3  A    between atoms: C_2  and  C_4
REMARK    4  A    between atoms: C_8  and  C_9
REMARK    5  A    between atoms: C_12  and  C_13
REMARK    6  A    between atoms: C_13  and  S_14
REMARK    7  A    between atoms: S_14  and  C_15
REMARK    8  A    between atoms: C_15  and  N_17
REMARK    9  A    between atoms: N_17  and  C_18
REMARK   10  A    between atoms: N_17  and  O_19
REMARK   11  A    between atoms: O_19  and  C_20
REMARK   12  A    between atoms: C_20  and  C_21
REMARK                            x       y       z     vdW  Elec       q    Type
REMARK                         _______ _______ _______ _____ _____    ______ ____
ROOT
ATOM      1  C   UNL     1       0.716  12.267  19.110  0.00  0.00    +0.000 C 
ATOM      2  C   UNL     1       0.518  11.743  20.552  0.00  0.00    +0.000 C 
ATOM      3  O   UNL     1       0.563  12.205  21.668  0.00  0.00    +0.000 OA
ATOM      4  N   UNL     1       0.113  10.516  20.108  0.00  0.00    +0.000 N 
ATOM      5  C   UNL     1       0.770   9.355  20.523  0.00  0.00    +0.000 C 
ATOM      6  C   UNL     1       1.530   8.740  19.597  0.00  0.00    +0.000 C 
ATOM      7  S   UNL     1       1.660   9.721  18.133  0.00  0.00    +0.000 S 
ATOM      8  C   UNL     1       0.321  10.832  18.682  0.00  0.00    +0.000 C 
ENDROOT
BRANCH   5   9
ATOM      9  C   UNL     1       0.660   8.871  21.996  0.00  0.00    +0.000 C 
ATOM     10  O   UNL     1      -0.368   8.140  22.191  0.00  0.00    +0.000 OA
ATOM     11  O   UNL     1       1.542   9.242  22.800  0.00  0.00    +0.000 OA
ENDBRANCH   5   9
BRANCH   1  13
ATOM     12  C   UNL     1       0.394  14.736  18.693  0.00  0.00    +0.000 C 
ATOM     13  C   UNL     1      -0.276  13.368  18.746  0.00  0.00    +0.000 C 
BRANCH  13  14
ATOM     14  O   UNL     1      -0.861  13.072  17.482  0.00  0.00    +0.000 OA
ATOM     15  H   UNL     1      -0.232  12.539  16.963  0.00  0.00    +0.000 HD
ENDBRANCH  13  14
ENDBRANCH   1  13
BRANCH   6  16
ATOM     16  C   UNL     1       2.291   7.427  19.771  0.00  0.00    +0.000 C 
BRANCH  16  17
ATOM     17  S   UNL     1       2.290   6.414  18.253  0.00  0.00    +0.000 S 
BRANCH  17  18
ATOM     18  C   UNL     1       3.993   6.170  17.806  0.00  0.00    +0.000 C 
ATOM     19  S   UNL     1       4.840   7.148  16.726  0.00  0.00    +0.000 S 
BRANCH  18  20
ATOM     20  N   UNL     1       4.603   5.055  18.423  0.00  0.00    +0.000 N 
ATOM     21  C   UNL     1       5.888   5.069  19.126  0.00  0.00    +0.000 C 
BRANCH  20  22
ATOM     22  O   UNL     1       4.482   3.869  17.606  0.00  0.00    +0.000 OA
BRANCH  22  23
ATOM     23  C   UNL     1       4.363   2.691  18.421  0.00  0.00    +0.000 C 
BRANCH  23  24
ATOM     24  C   UNL     1       3.146   2.708  19.319  0.00  0.00    +0.000 A 
ATOM     25  C   UNL     1       3.308   2.693  20.716  0.00  0.00    +0.000 A 
ATOM     26  C   UNL     1       2.207   2.787  21.568  0.00  0.00    +0.000 A 
ATOM     27  C   UNL     1       0.928   2.911  21.041  0.00  0.00    +0.000 A 
ATOM     28  C   UNL     1       0.755   2.918  19.649  0.00  0.00    +0.000 A 
ATOM     29  C   UNL     1       1.857   2.833  18.798  0.00  0.00    +0.000 A 
ENDBRANCH  23  24
ENDBRANCH  22  23
ENDBRANCH  20  22
ENDBRANCH  18  20
ENDBRANCH  17  18
ENDBRANCH  16  17
ENDBRANCH   6  16
TORSDOF 10
ENDMDL
MODEL 2
REMARK VINA RESULT:      -6.8      3.887      8.065
REMARK  Name = 
REMARK  12 active torsions:
REMARK  status: ('A' for Active; 'I' for Inactive)
REMARK    1  A    between atoms: C_1  and  C_2
REMARK    2  A    between atoms: C_2  and  O_3
REMARK    3  A    between atoms: C_2  and  C_4
REMARK    4  A    between atoms: C_8  and  C_9
REMARK    5  A    between atoms: C_12  and  C_13
REMARK    6  A    between atoms: C_13  and  S_14
REMARK    7  A    between atoms: S_14  and  C_15
REMARK    8  A    between atoms: C_15  and  N_17
REMARK    9  A    between atoms: N_17  and  C_18
REMARK   10  A    between atoms: N_17  and  O_19
REMARK   11  A    between atoms: O_19  and  C_20
REMARK   12  A    between atoms: C_20  and  C_21
REMARK                            x       y       z     vdW  Elec       q    Type
REMARK                         _______ _______ _______ _____ _____    ______ ____
ROOT
ATOM      1  C   UNL     1       6.027   3.849  14.081  0.00  0.00    +0.000 C 
ATOM      2  C   UNL     1       6.901   4.959  14.711  0.00  0.00    +0.000 C 
ATOM      3  O   UNL     1       8.025   5.379  14.568  0.00  0.00    +0.000 OA
ATOM      4  N   UNL     1       5.856   5.434  15.453  0.00  0.00    +0.000 N 
ATOM      5  C   UNL     1       5.956   5.535  16.842  0.00  0.00    +0.000 C 
ATOM      6  C   UNL     1       5.237   4.648  17.556  0.00  0.00    +0.000 C 
ATOM      7  S   UNL     1       4.515   3.428  16.501  0.00  0.00    +0.000 S 
ATOM      8  C   UNL     1       4.911   4.394  15.005  0.00  0.00    +0.000 C 
ENDROOT
BRANCH   5   9
ATOM      9  C   UNL     1       6.906   6.581  17.490  0.00  0.00    +0.000 C 
ATOM     10  O   UNL     1       7.787   6.040  18.238  0.00  0.00    +0.000 OA
ATOM     11  O   UNL     1       6.708   7.788  17.232  0.00  0.00    +0.000 OA
ENDBRANCH   5   9
BRANCH   1  13
ATOM     12  C   UNL     1       7.095   3.826  11.793  0.00  0.00    +0.000 C 
ATOM     13  C   UNL     1       5.812   4.054  12.584  0.00  0.00    +0.000 C 
BRANCH  13  14
ATOM     14  O   UNL     1       4.803   3.157  12.128  0.00  0.00    +0.000 OA
ATOM     15  H   UNL     1       4.064   3.677  11.765  0.00  0.00    +0.000 HD
ENDBRANCH  13  14
ENDBRANCH   1  13
BRANCH   6  16
ATOM     16  C   UNL     1       5.117   4.588  19.077  0.00  0.00    +0.000 C 
BRANCH  16  17
ATOM     17  S   UNL     1       4.465   2.987  19.662  0.00  0.00    +0.000 S 
BRANCH  17  18
ATOM     18  C   UNL     1       2.694   3.141  19.689  0.00  0.00    +0.000 C 
ATOM     19  S   UNL     1       1.678   2.631  18.446  0.00  0.00    +0.000 S 
BRANCH  18  20
ATOM     20  N   UNL     1       2.182   3.756  20.854  0.00  0.00    +0.000 N 
ATOM     21  C   UNL     1       1.656   3.051  22.026  0.00  0.00    +0.000 C 
BRANCH  20  22
ATOM     22  O   UNL     1       1.351   4.893  20.529  0.00  0.00    +0.000 OA
BRANCH  22  23
ATOM     23  C   UNL     1       1.971   6.121  20.947  0.00  0.00    +0.000 C 
BRANCH  23  24
ATOM     24  C   UNL     1       1.920   7.203  19.892  0.00  0.00    +0.000 A 
ATOM     25  C   UNL     1       1.298   8.430  20.180  0.00  0.00    +0.000 A 
ATOM     26  C   UNL     1       1.305   9.474  19.253  0.00  0.00    +0.000 A 
ATOM     27  C   UNL     1       1.945   9.315  18.031  0.00  0.00    +0.000 A 
ATOM     28  C   UNL     1       2.561   8.091  17.731  0.00  0.00    +0.000 A 
ATOM     29  C   UNL     1       2.561   7.051  18.661  0.00  0.00    +0.000 A 
ENDBRANCH  23  24
ENDBRANCH  22  23
ENDBRANCH  20  22
ENDBRANCH  18  20
ENDBRANCH  17  18
ENDBRANCH  16  17
ENDBRANCH   6  16
TORSDOF 10
ENDMDL
MODEL 3
REMARK VINA RESULT:      -6.7      2.785      8.391
REMARK  Name = 
REMARK  12 active torsions:
REMARK  status: ('A' for Active; 'I' for Inactive)
REMARK    1  A    between atoms: C_1  and  C_2
REMARK    2  A    between atoms: C_2  and  O_3
REMARK    3  A    between atoms: C_2  and  C_4
REMARK    4  A    between atoms: C_8  and  C_9
REMARK    5  A    between atoms: C_12  and  C_13
REMARK    6  A    between atoms: C_13  and  S_14
REMARK    7  A    between atoms: S_14  and  C_15
REMARK    8  A    between atoms: C_15  and  N_17
REMARK    9  A    between atoms: N_17  and  C_18
REMARK   10  A    between atoms: N_17  and  O_19
REMARK   11  A    between atoms: O_19  and  C_20
REMARK   12  A    between atoms: C_20  and  C_21
REMARK                            x       y       z     vdW  Elec       q    Type
REMARK                         _______ _______ _______ _____ _____    ______ ____
ROOT
ATOM      1  C   UNL     1       4.772   4.549  16.202  0.00  0.00    +0.000 C 
ATOM      2  C   UNL     1       3.859   3.812  17.210  0.00  0.00    +0.000 C 
ATOM      3  O   UNL     1       3.199   2.799  17.221  0.00  0.00    +0.000 OA
ATOM      4  N   UNL     1       4.172   4.686  18.213  0.00  0.00    +0.000 N 
ATOM      5  C   UNL     1       3.169   5.389  18.886  0.00  0.00    +0.000 C 
ATOM      6  C   UNL     1       3.087   6.707  18.620  0.00  0.00    +0.000 C 
ATOM      7  S   UNL     1       4.165   7.151  17.291  0.00  0.00    +0.000 S 
ATOM      8  C   UNL     1       5.022   5.541  17.364  0.00  0.00    +0.000 C 
ENDROOT
BRANCH   5   9
ATOM      9  C   UNL     1       2.181   4.645  19.827  0.00  0.00    +0.000 C 
ATOM     10  O   UNL     1       2.587   4.622  21.037  0.00  0.00    +0.000 OA
ATOM     11  O   UNL     1       1.147   4.158  19.321  0.00  0.00    +0.000 OA
ENDBRANCH   5   9
BRANCH   1  13
ATOM     12  C   UNL     1       6.271   3.864  14.289  0.00  0.00    +0.000 C 
ATOM     13  C   UNL     1       5.971   3.707  15.775  0.00  0.00    +0.000 C 
BRANCH  13  14
ATOM     14  O   UNL     1       7.111   4.094  16.537  0.00  0.00    +0.000 OA
ATOM     15  H   UNL     1       6.948   4.977  16.916  0.00  0.00    +0.000 HD
ENDBRANCH  13  14
ENDBRANCH   1  13
BRANCH   6  16
ATOM     16  C   UNL     1       2.132   7.707  19.268  0.00  0.00    +0.000 C 
BRANCH  16  17
ATOM     17  S   UNL     1       1.412   8.867  18.057  0.00  0.00    +0.000 S 
BRANCH  17  18
ATOM     18  C   UNL     1       1.310  10.446  18.866  0.00  0.00    +0.000 C 
ATOM     19  S   UNL     1       2.107  11.835  18.341  0.00  0.00    +0.000 S 
BRANCH  18  20
ATOM     20  N   UNL     1       0.504  10.454  20.027  0.00  0.00    +0.000 N 
ATOM     21  C   UNL     1       0.885   9.905  21.330  0.00  0.00    +0.000 C 
BRANCH  20  22
ATOM     22  O   UNL     1      -0.869  10.124  19.717  0.00  0.00    +0.000 OA
BRANCH  22  23
ATOM     23  C   UNL     1      -1.614  11.300  19.361  0.00  0.00    +0.000 C 
BRANCH  23  24
ATOM     24  C   UNL     1      -2.418  11.134  18.091  0.00  0.00    +0.000 A 
ATOM     25  C   UNL     1      -1.876  10.416  17.010  0.00  0.00    +0.000 A 
ATOM     26  C   UNL     1      -2.625  10.181  15.856  0.00  0.00    +0.000 A 
ATOM     27  C   UNL     1      -3.930  10.646  15.766  0.00  0.00    +0.000 A 
ATOM     28  C   UNL     1      -4.476  11.370  16.835  0.00  0.00    +0.000 A 
ATOM     29  C   UNL     1      -3.731  11.598  17.992  0.00  0.00    +0.000 A 
ENDBRANCH  23  24
ENDBRANCH  22  23
ENDBRANCH  20  22
ENDBRANCH  18  20
ENDBRANCH  17  18
ENDBRANCH  16  17
ENDBRANCH   6  16
TORSDOF 10
ENDMDL
MODEL 4
REMARK VINA RESULT:      -6.6      3.675      8.256
REMARK  Name = 
REMARK  12 active torsions:
REMARK  status: ('A' for Active; 'I' for Inactive)
REMARK    1  A    between atoms: C_1  and  C_2
REMARK    2  A    between atoms: C_2  and  O_3
REMARK    3  A    between atoms: C_2  and  C_4
REMARK    4  A    between atoms: C_8  and  C_9
REMARK    5  A    between atoms: C_12  and  C_13
REMARK    6  A    between atoms: C_13  and  S_14
REMARK    7  A    between atoms: S_14  and  C_15
REMARK    8  A    between atoms: C_15  and  N_17
REMARK    9  A    between atoms: N_17  and  C_18
REMARK   10  A    between atoms: N_17  and  O_19
REMARK   11  A    between atoms: O_19  and  C_20
REMARK   12  A    between atoms: C_20  and  C_21
REMARK                            x       y       z     vdW  Elec       q    Type
REMARK                         _______ _______ _______ _____ _____    ______ ____
ROOT
ATOM      1  C   UNL     1       6.473   3.579  13.863  0.00  0.00    +0.000 C 
ATOM      2  C   UNL     1       7.115   4.893  14.369  0.00  0.00    +0.000 C 
ATOM      3  O   UNL     1       8.144   5.498  14.180  0.00  0.00    +0.000 OA
ATOM      4  N   UNL     1       5.987   5.240  15.059  0.00  0.00    +0.000 N 
ATOM      5  C   UNL     1       6.042   5.504  16.430  0.00  0.00    +0.000 C 
ATOM      6  C   UNL     1       5.488   4.577  17.236  0.00  0.00    +0.000 C 
ATOM      7  S   UNL     1       5.023   3.140  16.319  0.00  0.00    +0.000 S 
ATOM      8  C   UNL     1       5.260   4.001  14.727  0.00  0.00    +0.000 C 
ENDROOT
BRANCH   5   9
ATOM      9  C   UNL     1       6.771   6.770  16.960  0.00  0.00    +0.000 C 
ATOM     10  O   UNL     1       7.923   6.504  17.439  0.00  0.00    +0.000 OA
ATOM     11  O   UNL     1       6.172   7.865  16.878  0.00  0.00    +0.000 OA
ENDBRANCH   5   9
BRANCH   1  13
ATOM     12  C   UNL     1       4.782   3.791  12.001  0.00  0.00    +0.000 C 
ATOM     13  C   UNL     1       6.250   3.582  12.354  0.00  0.00    +0.000 C 
BRANCH  13  14
ATOM     14  O   UNL     1       7.035   4.614  11.765  0.00  0.00    +0.000 OA
ATOM     15  H   UNL     1       7.384   4.294  10.913  0.00  0.00    +0.000 HD
ENDBRANCH  13  14
ENDBRANCH   1  13
BRANCH   6  16
ATOM     16  C   UNL     1       5.355   4.656  18.755  0.00  0.00    +0.000 C 
BRANCH  16  17
ATOM     17  S   UNL     1       4.586   3.162  19.465  0.00  0.00    +0.000 S 
BRANCH  17  18
ATOM     18  C   UNL     1       2.832   3.457  19.488  0.00  0.00    +0.000 C 
ATOM     19  S   UNL     1       1.782   3.032  18.241  0.00  0.00    +0.000 S 
BRANCH  18  20
ATOM     20  N   UNL     1       2.368   4.109  20.653  0.00  0.00    +0.000 N 
ATOM     21  C   UNL     1       1.724   3.453  21.794  0.00  0.00    +0.000 C 
BRANCH  20  22
ATOM     22  O   UNL     1       1.696   5.348  20.332  0.00  0.00    +0.000 OA
BRANCH  22  23
ATOM     23  C   UNL     1       2.641   6.363  19.954  0.00  0.00    +0.000 C 
BRANCH  23  24
ATOM     24  C   UNL     1       1.992   7.692  19.639  0.00  0.00    +0.000 A 
ATOM     25  C   UNL     1       2.048   8.204  18.330  0.00  0.00    +0.000 A 
ATOM     26  C   UNL     1       1.392   9.389  17.994  0.00  0.00    +0.000 A 
ATOM     27  C   UNL     1       0.659  10.075  18.953  0.00  0.00    +0.000 A 
ATOM     28  C   UNL     1       0.605   9.578  20.263  0.00  0.00    +0.000 A 
ATOM     29  C   UNL     1       1.254   8.389  20.597  0.00  0.00    +0.000 A 
ENDBRANCH  23  24
ENDBRANCH  22  23
ENDBRANCH  20  22
ENDBRANCH  18  20
ENDBRANCH  17  18
ENDBRANCH  16  17
ENDBRANCH   6  16
TORSDOF 10
ENDMDL
MODEL 5
REMARK VINA RESULT:      -6.6      2.791      9.088
REMARK  Name = 
REMARK  12 active torsions:
REMARK  status: ('A' for Active; 'I' for Inactive)
REMARK    1  A    between atoms: C_1  and  C_2
REMARK    2  A    between atoms: C_2  and  O_3
REMARK    3  A    between atoms: C_2  and  C_4
REMARK    4  A    between atoms: C_8  and  C_9
REMARK    5  A    between atoms: C_12  and  C_13
REMARK    6  A    between atoms: C_13  and  S_14
REMARK    7  A    between atoms: S_14  and  C_15
REMARK    8  A    between atoms: C_15  and  N_17
REMARK    9  A    between atoms: N_17  and  C_18
REMARK   10  A    between atoms: N_17  and  O_19
REMARK   11  A    between atoms: O_19  and  C_20
REMARK   12  A    between atoms: C_20  and  C_21
REMARK                            x       y       z     vdW  Elec       q    Type
REMARK                         _______ _______ _______ _____ _____    ______ ____
ROOT
ATOM      1  C   UNL     1       3.964   3.712  19.616  0.00  0.00    +0.000 C 
ATOM      2  C   UNL     1       5.138   4.295  18.794  0.00  0.00    +0.000 C 
ATOM      3  O   UNL     1       6.345   4.235  18.821  0.00  0.00    +0.000 OA
ATOM      4  N   UNL     1       4.291   4.843  17.872  0.00  0.00    +0.000 N 
ATOM      5  C   UNL     1       4.330   6.210  17.591  0.00  0.00    +0.000 C 
ATOM      6  C   UNL     1       3.293   6.940  18.045  0.00  0.00    +0.000 C 
ATOM      7  S   UNL     1       2.248   5.970  19.089  0.00  0.00    +0.000 S 
ATOM      8  C   UNL     1       3.064   4.421  18.575  0.00  0.00    +0.000 C 
ENDROOT
BRANCH   5   9
ATOM      9  C   UNL     1       5.550   6.828  16.853  0.00  0.00    +0.000 C 
ATOM     10  O   UNL     1       5.472   6.692  15.587  0.00  0.00    +0.000 OA
ATOM     11  O   UNL     1       6.445   7.358  17.546  0.00  0.00    +0.000 OA
ENDBRANCH   5   9
BRANCH   1  13
ATOM     12  C   UNL     1       3.408   1.652  18.265  0.00  0.00    +0.000 C 
ATOM     13  C   UNL     1       3.936   2.186  19.591  0.00  0.00    +0.000 C 
BRANCH  13  14
ATOM     14  O   UNL     1       5.251   1.689  19.818  0.00  0.00    +0.000 OA
ATOM     15  H   UNL     1       5.490   1.092  19.086  0.00  0.00    +0.000 HD
ENDBRANCH  13  14
ENDBRANCH   1  13
BRANCH   6  16
ATOM     16  C   UNL     1       3.061   8.432  17.815  0.00  0.00    +0.000 C 
BRANCH  16  17
ATOM     17  S   UNL     1       1.291   8.846  17.663  0.00  0.00    +0.000 S 
BRANCH  17  18
ATOM     18  C   UNL     1       0.860   9.774  19.117  0.00  0.00    +0.000 C 
ATOM     19  S   UNL     1       0.834   9.137  20.676  0.00  0.00    +0.000 S 
BRANCH  18  20
ATOM     20  N   UNL     1       0.513  11.121  18.866  0.00  0.00    +0.000 N 
ATOM     21  C   UNL     1       1.335  12.287  19.200  0.00  0.00    +0.000 C 
BRANCH  20  22
ATOM     22  O   UNL     1      -0.877  11.373  19.170  0.00  0.00    +0.000 OA
BRANCH  22  23
ATOM     23  C   UNL     1      -1.719  11.039  18.054  0.00  0.00    +0.000 C 
BRANCH  23  24
ATOM     24  C   UNL     1      -3.124  11.582  18.184  0.00  0.00    +0.000 A 
ATOM     25  C   UNL     1      -4.014  11.482  17.101  0.00  0.00    +0.000 A 
ATOM     26  C   UNL     1      -5.340  11.904  17.219  0.00  0.00    +0.000 A 
ATOM     27  C   UNL     1      -5.801  12.419  18.423  0.00  0.00    +0.000 A 
ATOM     28  C   UNL     1      -4.919  12.530  19.507  0.00  0.00    +0.000 A 
ATOM     29  C   UNL     1      -3.596  12.101  19.391  0.00  0.00    +0.000 A 
ENDBRANCH  23  24
ENDBRANCH  22  23
ENDBRANCH  20  22
ENDBRANCH  18  20
ENDBRANCH  17  18
ENDBRANCH  16  17
ENDBRANCH   6  16
TORSDOF 10
ENDMDL
MODEL 6
REMARK VINA RESULT:      -6.6      2.457      9.016
REMARK  Name = 
REMARK  12 active torsions:
REMARK  status: ('A' for Active; 'I' for Inactive)
REMARK    1  A    between atoms: C_1  and  C_2
REMARK    2  A    between atoms: C_2  and  O_3
REMARK    3  A    between atoms: C_2  and  C_4
REMARK    4  A    between atoms: C_8  and  C_9
REMARK    5  A    between atoms: C_12  and  C_13
REMARK    6  A    between atoms: C_13  and  S_14
REMARK    7  A    between atoms: S_14  and  C_15
REMARK    8  A    between atoms: C_15  and  N_17
REMARK    9  A    between atoms: N_17  and  C_18
REMARK   10  A    between atoms: N_17  and  O_19
REMARK   11  A    between atoms: O_19  and  C_20
REMARK   12  A    between atoms: C_20  and  C_21
REMARK                            x       y       z     vdW  Elec       q    Type
REMARK                         _______ _______ _______ _____ _____    ______ ____
ROOT
ATOM      1  C   UNL     1       3.956   3.706  19.673  0.00  0.00    +0.000 C 
ATOM      2  C   UNL     1       5.102   4.276  18.805  0.00  0.00    +0.000 C 
ATOM      3  O   UNL     1       6.310   4.224  18.799  0.00  0.00    +0.000 OA
ATOM      4  N   UNL     1       4.225   4.795  17.894  0.00  0.00    +0.000 N 
ATOM      5  C   UNL     1       4.247   6.155  17.577  0.00  0.00    +0.000 C 
ATOM      6  C   UNL     1       3.218   6.890  18.042  0.00  0.00    +0.000 C 
ATOM      7  S   UNL     1       2.209   5.940  19.139  0.00  0.00    +0.000 S 
ATOM      8  C   UNL     1       3.022   4.384  18.641  0.00  0.00    +0.000 C 
ENDROOT
BRANCH   5   9
ATOM      9  C   UNL     1       5.441   6.762  16.790  0.00  0.00    +0.000 C 
ATOM     10  O   UNL     1       5.296   6.654  15.527  0.00  0.00    +0.000 OA
ATOM     11  O   UNL     1       6.382   7.258  17.447  0.00  0.00    +0.000 OA
ENDBRANCH   5   9
BRANCH   1  13
ATOM     12  C   UNL     1       3.465   1.608  18.356  0.00  0.00    +0.000 C 
ATOM     13  C   UNL     1       3.937   2.180  19.688  0.00  0.00    +0.000 C 
BRANCH  13  14
ATOM     14  O   UNL     1       5.246   1.698  19.979  0.00  0.00    +0.000 OA
ATOM     15  H   UNL     1       5.783   2.438  20.317  0.00  0.00    +0.000 HD
ENDBRANCH  13  14
ENDBRANCH   1  13
BRANCH   6  16
ATOM     16  C   UNL     1       2.969   8.374  17.782  0.00  0.00    +0.000 C 
BRANCH  16  17
ATOM     17  S   UNL     1       1.207   8.822  17.936  0.00  0.00    +0.000 S 
BRANCH  17  18
ATOM     18  C   UNL     1       1.036   9.684  19.482  0.00  0.00    +0.000 C 
ATOM     19  S   UNL     1       0.921   8.926  20.982  0.00  0.00    +0.000 S 
BRANCH  18  20
ATOM     20  N   UNL     1       0.985  11.091  19.360  0.00  0.00    +0.000 N 
ATOM     21  C   UNL     1       1.924  11.912  18.593  0.00  0.00    +0.000 C 
BRANCH  20  22
ATOM     22  O   UNL     1       0.675  11.718  20.625  0.00  0.00    +0.000 OA
BRANCH  22  23
ATOM     23  C   UNL     1      -0.201  12.842  20.442  0.00  0.00    +0.000 C 
BRANCH  23  24
ATOM     24  C   UNL     1      -1.412  12.807  21.347  0.00  0.00    +0.000 A 
ATOM     25  C   UNL     1      -2.606  13.430  20.942  0.00  0.00    +0.000 A 
ATOM     26  C   UNL     1      -3.761  13.346  21.721  0.00  0.00    +0.000 A 
ATOM     27  C   UNL     1      -3.747  12.629  22.910  0.00  0.00    +0.000 A 
ATOM     28  C   UNL     1      -2.559  12.011  23.327  0.00  0.00    +0.000 A 
ATOM     29  C   UNL     1      -1.407  12.088  22.544  0.00  0.00    +0.000 A 
ENDBRANCH  23  24
ENDBRANCH  22  23
ENDBRANCH  20  22
ENDBRANCH  18  20
ENDBRANCH  17  18
ENDBRANCH  16  17
ENDBRANCH   6  16
TORSDOF 10
ENDMDL
MODEL 7
REMARK VINA RESULT:      -6.4      0.746      1.095
REMARK  Name = 
REMARK  12 active torsions:
REMARK  status: ('A' for Active; 'I' for Inactive)
REMARK    1  A    between atoms: C_1  and  C_2
REMARK    2  A    between atoms: C_2  and  O_3
REMARK    3  A    between atoms: C_2  and  C_4
REMARK    4  A    between atoms: C_8  and  C_9
REMARK    5  A    between atoms: C_12  and  C_13
REMARK    6  A    between atoms: C_13  and  S_14
REMARK    7  A    between atoms: S_14  and  C_15
REMARK    8  A    between atoms: C_15  and  N_17
REMARK    9  A    between atoms: N_17  and  C_18
REMARK   10  A    between atoms: N_17  and  O_19
REMARK   11  A    between atoms: O_19  and  C_20
REMARK   12  A    between atoms: C_20  and  C_21
REMARK                            x       y       z     vdW  Elec       q    Type
REMARK                         _______ _______ _______ _____ _____    ______ ____
ROOT
ATOM      1  C   UNL     1       0.685  12.022  18.860  0.00  0.00    +0.000 C 
ATOM      2  C   UNL     1       0.434  11.492  20.292  0.00  0.00    +0.000 C 
ATOM      3  O   UNL     1       0.397  11.958  21.407  0.00  0.00    +0.000 OA
ATOM      4  N   UNL     1       0.112  10.246  19.832  0.00  0.00    +0.000 N 
ATOM      5  C   UNL     1       0.800   9.119  20.286  0.00  0.00    +0.000 C 
ATOM      6  C   UNL     1       1.637   8.538  19.405  0.00  0.00    +0.000 C 
ATOM      7  S   UNL     1       1.800   9.523  17.947  0.00  0.00    +0.000 S 
ATOM      8  C   UNL     1       0.382  10.570  18.418  0.00  0.00    +0.000 C 
ENDROOT
BRANCH   5   9
ATOM      9  C   UNL     1       0.633   8.632  21.753  0.00  0.00    +0.000 C 
ATOM     10  O   UNL     1       1.622   8.959  22.489  0.00  0.00    +0.000 OA
ATOM     11  O   UNL     1      -0.400   7.989  22.041  0.00  0.00    +0.000 OA
ENDBRANCH   5   9
BRANCH   1  13
ATOM     12  C   UNL     1      -1.731  12.477  18.284  0.00  0.00    +0.000 C 
ATOM     13  C   UNL     1      -0.337  13.074  18.439  0.00  0.00    +0.000 C 
BRANCH  13  14
ATOM     14  O   UNL     1      -0.366  14.115  19.411  0.00  0.00    +0.000 OA
ATOM     15  H   UNL     1      -0.799  14.896  19.019  0.00  0.00    +0.000 HD
ENDBRANCH  13  14
ENDBRANCH   1  13
BRANCH   6  16
ATOM     16  C   UNL     1       2.449   7.264  19.627  0.00  0.00    +0.000 C 
BRANCH  16  17
ATOM     17  S   UNL     1       2.525   6.219  18.133  0.00  0.00    +0.000 S 
BRANCH  17  18
ATOM     18  C   UNL     1       4.249   5.994  17.758  0.00  0.00    +0.000 C 
ATOM     19  S   UNL     1       5.012   6.620  16.393  0.00  0.00    +0.000 S 
BRANCH  18  20
ATOM     20  N   UNL     1       4.953   5.217  18.705  0.00  0.00    +0.000 N 
ATOM     21  C   UNL     1       6.226   5.585  19.329  0.00  0.00    +0.000 C 
BRANCH  20  22
ATOM     22  O   UNL     1       4.948   3.817  18.346  0.00  0.00    +0.000 OA
BRANCH  22  23
ATOM     23  C   UNL     1       4.649   2.993  19.486  0.00  0.00    +0.000 C 
BRANCH  23  24
ATOM     24  C   UNL     1       3.166   2.848  19.743  0.00  0.00    +0.000 A 
ATOM     25  C   UNL     1       2.671   2.956  21.055  0.00  0.00    +0.000 A 
ATOM     26  C   UNL     1       1.300   2.905  21.311  0.00  0.00    +0.000 A 
ATOM     27  C   UNL     1       0.400   2.758  20.264  0.00  0.00    +0.000 A 
ATOM     28  C   UNL     1       0.885   2.641  18.953  0.00  0.00    +0.000 A 
ATOM     29  C   UNL     1       2.255   2.701  18.696  0.00  0.00    +0.000 A 
ENDBRANCH  23  24
ENDBRANCH  22  23
ENDBRANCH  20  22
ENDBRANCH  18  20
ENDBRANCH  17  18
ENDBRANCH  16  17
ENDBRANCH   6  16
TORSDOF 10
ENDMDL
MODEL 8
REMARK VINA RESULT:      -6.4      2.564      9.197
REMARK  Name = 
REMARK  12 active torsions:
REMARK  status: ('A' for Active; 'I' for Inactive)
REMARK    1  A    between atoms: C_1  and  C_2
REMARK    2  A    between atoms: C_2  and  O_3
REMARK    3  A    between atoms: C_2  and  C_4
REMARK    4  A    between atoms: C_8  and  C_9
REMARK    5  A    between atoms: C_12  and  C_13
REMARK    6  A    between atoms: C_13  and  S_14
REMARK    7  A    between atoms: S_14  and  C_15
REMARK    8  A    between atoms: C_15  and  N_17
REMARK    9  A    between atoms: N_17  and  C_18
REMARK   10  A    between atoms: N_17  and  O_19
REMARK   11  A    between atoms: O_19  and  C_20
REMARK   12  A    between atoms: C_20  and  C_21
REMARK                            x       y       z     vdW  Elec       q    Type
REMARK                         _______ _______ _______ _____ _____    ______ ____
ROOT
ATOM      1  C   UNL     1       4.008   3.704  19.633  0.00  0.00    +0.000 C 
ATOM      2  C   UNL     1       5.123   4.235  18.701  0.00  0.00    +0.000 C 
ATOM      3  O   UNL     1       6.325   4.141  18.628  0.00  0.00    +0.000 OA
ATOM      4  N   UNL     1       4.215   4.786  17.841  0.00  0.00    +0.000 N 
ATOM      5  C   UNL     1       4.266   6.146  17.525  0.00  0.00    +0.000 C 
ATOM      6  C   UNL     1       3.291   6.915  18.048  0.00  0.00    +0.000 C 
ATOM      7  S   UNL     1       2.313   5.998  19.199  0.00  0.00    +0.000 S 
ATOM      8  C   UNL     1       3.042   4.416  18.656  0.00  0.00    +0.000 C 
ENDROOT
BRANCH   5   9
ATOM      9  C   UNL     1       5.435   6.713  16.671  0.00  0.00    +0.000 C 
ATOM     10  O   UNL     1       6.356   7.225  17.389  0.00  0.00    +0.000 OA
ATOM     11  O   UNL     1       5.346   6.623  15.427  0.00  0.00    +0.000 OA
ENDBRANCH   5   9
BRANCH   1  13
ATOM     12  C   UNL     1       3.450   1.623  18.315  0.00  0.00    +0.000 C 
ATOM     13  C   UNL     1       3.937   2.179  19.648  0.00  0.00    +0.000 C 
BRANCH  13  14
ATOM     14  O   UNL     1       5.227   1.653  19.944  0.00  0.00    +0.000 OA
ATOM     15  H   UNL     1       5.841   1.910  19.232  0.00  0.00    +0.000 HD
ENDBRANCH  13  14
ENDBRANCH   1  13
BRANCH   6  16
ATOM     16  C   UNL     1       3.080   8.407  17.802  0.00  0.00    +0.000 C 
BRANCH  16  17
ATOM     17  S   UNL     1       1.319   8.880  17.857  0.00  0.00    +0.000 S 
BRANCH  17  18
ATOM     18  C   UNL     1       1.045   9.631  19.445  0.00  0.00    +0.000 C 
ATOM     19  S   UNL     1       1.129   8.807  20.912  0.00  0.00    +0.000 S 
BRANCH  18  20
ATOM     20  N   UNL     1       0.727  11.007  19.390  0.00  0.00    +0.000 N 
ATOM     21  C   UNL     1       1.567  12.051  18.800  0.00  0.00    +0.000 C 
BRANCH  20  22
ATOM     22  O   UNL     1       0.143  11.464  20.632  0.00  0.00    +0.000 OA
BRANCH  22  23
ATOM     23  C   UNL     1      -1.052  12.223  20.391  0.00  0.00    +0.000 C 
BRANCH  23  24
ATOM     24  C   UNL     1      -1.616  12.859  21.642  0.00  0.00    +0.000 A 
ATOM     25  C   UNL     1      -2.962  12.647  21.988  0.00  0.00    +0.000 A 
ATOM     26  C   UNL     1      -3.487  13.157  23.176  0.00  0.00    +0.000 A 
ATOM     27  C   UNL     1      -2.676  13.875  24.045  0.00  0.00    +0.000 A 
ATOM     28  C   UNL     1      -1.334  14.099  23.704  0.00  0.00    +0.000 A 
ATOM     29  C   UNL     1      -0.807  13.582  22.521  0.00  0.00    +0.000 A 
ENDBRANCH  23  24
ENDBRANCH  22  23
ENDBRANCH  20  22
ENDBRANCH  18  20
ENDBRANCH  17  18
ENDBRANCH  16  17
ENDBRANCH   6  16
TORSDOF 10
ENDMDL
MODEL 9
REMARK VINA RESULT:      -6.3      2.865      4.371
REMARK  Name = 
REMARK  12 active torsions:
REMARK  status: ('A' for Active; 'I' for Inactive)
REMARK    1  A    between atoms: C_1  and  C_2
REMARK    2  A    between atoms: C_2  and  O_3
REMARK    3  A    between atoms: C_2  and  C_4
REMARK    4  A    between atoms: C_8  and  C_9
REMARK    5  A    between atoms: C_12  and  C_13
REMARK    6  A    between atoms: C_13  and  S_14
REMARK    7  A    between atoms: S_14  and  C_15
REMARK    8  A    between atoms: C_15  and  N_17
REMARK    9  A    between atoms: N_17  and  C_18
REMARK   10  A    between atoms: N_17  and  O_19
REMARK   11  A    between atoms: O_19  and  C_20
REMARK   12  A    between atoms: C_20  and  C_21
REMARK                            x       y       z     vdW  Elec       q    Type
REMARK                         _______ _______ _______ _____ _____    ______ ____
ROOT
ATOM      1  C   UNL     1       1.581  12.003  18.830  0.00  0.00    +0.000 C 
ATOM      2  C   UNL     1       1.231  11.623  20.288  0.00  0.00    +0.000 C 
ATOM      3  O   UNL     1       1.348  12.127  21.380  0.00  0.00    +0.000 OA
ATOM      4  N   UNL     1       0.573  10.493  19.891  0.00  0.00    +0.000 N 
ATOM      5  C   UNL     1       0.941   9.241  20.390  0.00  0.00    +0.000 C 
ATOM      6  C   UNL     1       1.568   8.418  19.527  0.00  0.00    +0.000 C 
ATOM      7  S   UNL     1       1.956   9.259  18.022  0.00  0.00    +0.000 S 
ATOM      8  C   UNL     1       0.886  10.671  18.460  0.00  0.00    +0.000 C 
ENDROOT
BRANCH   5   9
ATOM      9  C   UNL     1       0.684   8.880  21.880  0.00  0.00    +0.000 C 
ATOM     10  O   UNL     1       1.681   9.158  22.626  0.00  0.00    +0.000 OA
ATOM     11  O   UNL     1      -0.417   8.366  22.174  0.00  0.00    +0.000 OA
ENDBRANCH   5   9
BRANCH   1  13
ATOM     12  C   UNL     1      -0.631  13.065  18.235  0.00  0.00    +0.000 C 
ATOM     13  C   UNL     1       0.872  13.275  18.372  0.00  0.00    +0.000 C 
BRANCH  13  14
ATOM     14  O   UNL     1       1.127  14.318  19.308  0.00  0.00    +0.000 OA
ATOM     15  H   UNL     1       0.288  14.773  19.504  0.00  0.00    +0.000 HD
ENDBRANCH  13  14
ENDBRANCH   1  13
BRANCH   6  16
ATOM     16  C   UNL     1       2.010   6.982  19.798  0.00  0.00    +0.000 C 
BRANCH  16  17
ATOM     17  S   UNL     1       3.530   6.538  18.891  0.00  0.00    +0.000 S 
BRANCH  17  18
ATOM     18  C   UNL     1       3.263   4.913  18.220  0.00  0.00    +0.000 C 
ATOM     19  S   UNL     1       1.754   4.174  18.096  0.00  0.00    +0.000 S 
BRANCH  18  20
ATOM     20  N   UNL     1       4.442   4.257  17.799  0.00  0.00    +0.000 N 
ATOM     21  C   UNL     1       5.782   4.487  18.342  0.00  0.00    +0.000 C 
BRANCH  20  22
ATOM     22  O   UNL     1       4.490   4.130  16.360  0.00  0.00    +0.000 OA
BRANCH  22  23
ATOM     23  C   UNL     1       5.349   5.126  15.783  0.00  0.00    +0.000 C 
BRANCH  23  24
ATOM     24  C   UNL     1       5.997   4.679  14.492  0.00  0.00    +0.000 A 
ATOM     25  C   UNL     1       5.323   3.781  13.646  0.00  0.00    +0.000 A 
ATOM     26  C   UNL     1       5.862   3.413  12.413  0.00  0.00    +0.000 A 
ATOM     27  C   UNL     1       7.076   3.944  11.998  0.00  0.00    +0.000 A 
ATOM     28  C   UNL     1       7.761   4.833  12.838  0.00  0.00    +0.000 A 
ATOM     29  C   UNL     1       7.217   5.208  14.067  0.00  0.00    +0.000 A 
ENDBRANCH  23  24
ENDBRANCH  22  23
ENDBRANCH  20  22
ENDBRANCH  18  20
ENDBRANCH  17  18
ENDBRANCH  16  17
ENDBRANCH   6  16
TORSDOF 10
ENDMDL
