MODEL 1
REMARK VINA RESULT:      -7.9      0.000      0.000
REMARK  Name = 
REMARK  3 active torsions:
REMARK  status: ('A' for Active; 'I' for Inactive)
REMARK    1  A    between atoms: C_1  and  C_2
REMARK    2  A    between atoms: N_4  and  C_5
REMARK    3  A    between atoms: C_17  and  N_18
REMARK                            x       y       z     vdW  Elec       q    Type
REMARK                         _______ _______ _______ _____ _____    ______ ____
ROOT
ATOM      1  C   UNL     1       0.441   9.456  20.630  0.00  0.00    +0.000 A 
ATOM      2  C   UNL     1       1.086   9.915  19.466  0.00  0.00    +0.000 A 
ATOM      3  C   UNL     1       1.948   9.094  18.735  0.00  0.00    +0.000 A 
ATOM      4  C   UNL     1       2.160   7.805  19.178  0.00  0.00    +0.000 A 
ATOM      5  C   UNL     1       1.547   7.342  20.357  0.00  0.00    +0.000 A 
ATOM      6  C   UNL     1       0.705   8.159  21.101  0.00  0.00    +0.000 A 
ATOM      7  C   UNL     1       1.929   5.892  20.603  0.00  0.00    +0.000 C 
ATOM      8  C   UNL     1       2.825   5.589  19.412  0.00  0.00    +0.000 A 
ATOM      9  C   UNL     1       2.943   6.736  18.602  0.00  0.00    +0.000 A 
ATOM     10  C   UNL     1       3.716   6.722  17.455  0.00  0.00    +0.000 A 
ATOM     11  C   UNL     1       4.375   5.537  17.114  0.00  0.00    +0.000 A 
ATOM     12 BR   UNL     1       5.442   5.552  15.536  0.00  0.00    +0.000 Br
ATOM     13  C   UNL     1       4.241   4.354  17.887  0.00  0.00    +0.000 A 
ATOM     14  C   UNL     1       3.476   4.410  19.073  0.00  0.00    +0.000 A 
ATOM     15 BR   UNL     1       3.298   2.883  20.189  0.00  0.00    +0.000 Br
ENDROOT
BRANCH   1  19
ATOM     16  C   UNL     1      -1.639  11.306  23.177  0.00  0.00    +0.000 C 
ATOM     17  C   UNL     1      -0.508  10.421  22.724  0.00  0.00    +0.000 C 
ATOM     18  O   UNL     1       0.273   9.947  23.544  0.00  0.00    +0.000 OA
ATOM     19  N   UNL     1      -0.482  10.246  21.350  0.00  0.00    +0.000 N 
ATOM     20  H   UNL     1      -1.102  10.827  20.801  0.00  0.00    +0.000 HD
ENDBRANCH   1  19
BRANCH  13  21
ATOM     21  N   UNL     1       5.030   3.220  17.590  0.00  0.00    +0.000 N 
ATOM     22  H   UNL     1       4.761   2.396  18.120  0.00  0.00    +0.000 HD
ATOM     23  H   UNL     1       6.029   3.409  17.615  0.00  0.00    +0.000 HD
ENDBRANCH  13  21
TORSDOF 2
ENDMDL
MODEL 2
REMARK VINA RESULT:      -7.8      1.537      1.608
REMARK  Name = 
REMARK  3 active torsions:
REMARK  status: ('A' for Active; 'I' for Inactive)
REMARK    1  A    between atoms: C_1  and  C_2
REMARK    2  A    between atoms: N_4  and  C_5
REMARK    3  A    between atoms: C_17  and  N_18
REMARK                            x       y       z     vdW  Elec       q    Type
REMARK                         _______ _______ _______ _____ _____    ______ ____
ROOT
ATOM      1  C   UNL     1       0.920  10.007  19.448  0.00  0.00    +0.000 A 
ATOM      2  C   UNL     1       1.671   9.974  18.259  0.00  0.00    +0.000 A 
ATOM      3  C   UNL     1       2.394   8.840  17.882  0.00  0.00    +0.000 A 
ATOM      4  C   UNL     1       2.359   7.734  18.706  0.00  0.00    +0.000 A 
ATOM      5  C   UNL     1       1.638   7.764  19.914  0.00  0.00    +0.000 A 
ATOM      6  C   UNL     1       0.933   8.895  20.307  0.00  0.00    +0.000 A 
ATOM      7  C   UNL     1       1.747   6.420  20.614  0.00  0.00    +0.000 C 
ATOM      8  C   UNL     1       2.610   5.624  19.648  0.00  0.00    +0.000 A 
ATOM      9  C   UNL     1       2.956   6.429  18.544  0.00  0.00    +0.000 A 
ATOM     10  C   UNL     1       3.748   5.937  17.523  0.00  0.00    +0.000 A 
ATOM     11  C   UNL     1       4.195   4.615  17.609  0.00  0.00    +0.000 A 
ATOM     12 BR   UNL     1       5.296   3.970  16.194  0.00  0.00    +0.000 Br
ATOM     13  C   UNL     1       3.829   3.767  18.687  0.00  0.00    +0.000 A 
ATOM     14  C   UNL     1       3.051   4.310  19.733  0.00  0.00    +0.000 A 
ATOM     15 BR   UNL     1       2.569   3.252  21.236  0.00  0.00    +0.000 Br
ENDROOT
BRANCH   1  19
ATOM     16  C   UNL     1      -0.575  13.161  20.883  0.00  0.00    +0.000 C 
ATOM     17  C   UNL     1       0.511  12.139  20.677  0.00  0.00    +0.000 C 
ATOM     18  O   UNL     1       1.595  12.266  21.239  0.00  0.00    +0.000 OA
ATOM     19  N   UNL     1       0.131  11.119  19.819  0.00  0.00    +0.000 N 
ATOM     20  H   UNL     1      -0.740  11.240  19.319  0.00  0.00    +0.000 HD
ENDBRANCH   1  19
BRANCH  13  21
ATOM     21  N   UNL     1       4.412   2.485  18.810  0.00  0.00    +0.000 N 
ATOM     22  H   UNL     1       3.803   1.737  18.489  0.00  0.00    +0.000 HD
ATOM     23  H   UNL     1       4.815   2.314  19.728  0.00  0.00    +0.000 HD
ENDBRANCH  13  21
TORSDOF 2
ENDMDL
MODEL 3
REMARK VINA RESULT:      -7.8      1.857      1.945
REMARK  Name = 
REMARK  3 active torsions:
REMARK  status: ('A' for Active; 'I' for Inactive)
REMARK    1  A    between atoms: C_1  and  C_2
REMARK    2  A    between atoms: N_4  and  C_5
REMARK    3  A    between atoms: C_17  and  N_18
REMARK                            x       y       z     vdW  Elec       q    Type
REMARK                         _______ _______ _______ _____ _____    ______ ____
ROOT
ATOM      1  C   UNL     1       0.941   9.972  19.397  0.00  0.00    +0.000 A 
ATOM      2  C   UNL     1       1.700   9.934  18.214  0.00  0.00    +0.000 A 
ATOM      3  C   UNL     1       2.428   8.799  17.848  0.00  0.00    +0.000 A 
ATOM      4  C   UNL     1       2.387   7.697  18.676  0.00  0.00    +0.000 A 
ATOM      5  C   UNL     1       1.656   7.732  19.879  0.00  0.00    +0.000 A 
ATOM      6  C   UNL     1       0.948   8.864  20.261  0.00  0.00    +0.000 A 
ATOM      7  C   UNL     1       1.761   6.391  20.585  0.00  0.00    +0.000 C 
ATOM      8  C   UNL     1       2.632   5.591  19.629  0.00  0.00    +0.000 A 
ATOM      9  C   UNL     1       2.986   6.391  18.525  0.00  0.00    +0.000 A 
ATOM     10  C   UNL     1       3.786   5.896  17.512  0.00  0.00    +0.000 A 
ATOM     11  C   UNL     1       4.233   4.574  17.607  0.00  0.00    +0.000 A 
ATOM     12 BR   UNL     1       5.345   3.923  16.203  0.00  0.00    +0.000 Br
ATOM     13  C   UNL     1       3.858   3.730  18.685  0.00  0.00    +0.000 A 
ATOM     14  C   UNL     1       3.073   4.277  19.724  0.00  0.00    +0.000 A 
ATOM     15 BR   UNL     1       2.580   3.225  21.227  0.00  0.00    +0.000 Br
ENDROOT
BRANCH   1  19
ATOM     16  C   UNL     1      -1.711  12.609  19.904  0.00  0.00    +0.000 C 
ATOM     17  C   UNL     1      -1.163  11.313  19.370  0.00  0.00    +0.000 C 
ATOM     18  O   UNL     1      -1.865  10.583  18.676  0.00  0.00    +0.000 OA
ATOM     19  N   UNL     1       0.148  11.086  19.757  0.00  0.00    +0.000 N 
ATOM     20  H   UNL     1       0.536  11.708  20.454  0.00  0.00    +0.000 HD
ENDBRANCH   1  19
BRANCH  13  21
ATOM     21  N   UNL     1       4.441   2.450  18.819  0.00  0.00    +0.000 N 
ATOM     22  H   UNL     1       5.211   2.292  18.173  0.00  0.00    +0.000 HD
ATOM     23  H   UNL     1       3.759   1.696  18.826  0.00  0.00    +0.000 HD
ENDBRANCH  13  21
TORSDOF 2
ENDMDL
MODEL 4
REMARK VINA RESULT:      -7.7      2.009      3.481
REMARK  Name = 
REMARK  3 active torsions:
REMARK  status: ('A' for Active; 'I' for Inactive)
REMARK    1  A    between atoms: C_1  and  C_2
REMARK    2  A    between atoms: N_4  and  C_5
REMARK    3  A    between atoms: C_17  and  N_18
REMARK                            x       y       z     vdW  Elec       q    Type
REMARK                         _______ _______ _______ _____ _____    ______ ____
ROOT
ATOM      1  C   UNL     1       1.358  10.424  18.797  0.00  0.00    +0.000 A 
ATOM      2  C   UNL     1       0.824   9.787  19.933  0.00  0.00    +0.000 A 
ATOM      3  C   UNL     1       1.106   8.450  20.221  0.00  0.00    +0.000 A 
ATOM      4  C   UNL     1       1.932   7.752  19.363  0.00  0.00    +0.000 A 
ATOM      5  C   UNL     1       2.448   8.368  18.208  0.00  0.00    +0.000 A 
ATOM      6  C   UNL     1       2.155   9.691  17.902  0.00  0.00    +0.000 A 
ATOM      7  C   UNL     1       3.337   7.391  17.456  0.00  0.00    +0.000 C 
ATOM      8  C   UNL     1       3.268   6.152  18.335  0.00  0.00    +0.000 A 
ATOM      9  C   UNL     1       2.429   6.398  19.440  0.00  0.00    +0.000 A 
ATOM     10  C   UNL     1       2.194   5.420  20.389  0.00  0.00    +0.000 A 
ATOM     11  C   UNL     1       2.816   4.178  20.228  0.00  0.00    +0.000 A 
ATOM     12 BR   UNL     1       2.462   2.846  21.544  0.00  0.00    +0.000 Br
ATOM     13  C   UNL     1       3.699   3.914  19.149  0.00  0.00    +0.000 A 
ATOM     14  C   UNL     1       3.888   4.919  18.175  0.00  0.00    +0.000 A 
ATOM     15 BR   UNL     1       5.010   4.619  16.672  0.00  0.00    +0.000 Br
ENDROOT
BRANCH   1  19
ATOM     16  C   UNL     1       1.112  14.189  18.743  0.00  0.00    +0.000 C 
ATOM     17  C   UNL     1       1.523  12.859  19.314  0.00  0.00    +0.000 C 
ATOM     18  O   UNL     1       2.139  12.805  20.375  0.00  0.00    +0.000 OA
ATOM     19  N   UNL     1       1.138  11.792  18.519  0.00  0.00    +0.000 N 
ATOM     20  H   UNL     1       0.772  12.011  17.601  0.00  0.00    +0.000 HD
ENDBRANCH   1  19
BRANCH  13  21
ATOM     21  N   UNL     1       4.195   2.607  18.943  0.00  0.00    +0.000 N 
ATOM     22  H   UNL     1       4.421   2.414  17.971  0.00  0.00    +0.000 HD
ATOM     23  H   UNL     1       3.623   1.887  19.377  0.00  0.00    +0.000 HD
ENDBRANCH  13  21
TORSDOF 2
ENDMDL
MODEL 5
REMARK VINA RESULT:      -7.7      2.044      3.465
REMARK  Name = 
REMARK  3 active torsions:
REMARK  status: ('A' for Active; 'I' for Inactive)
REMARK    1  A    between atoms: C_1  and  C_2
REMARK    2  A    between atoms: N_4  and  C_5
REMARK    3  A    between atoms: C_17  and  N_18
REMARK                            x       y       z     vdW  Elec       q    Type
REMARK                         _______ _______ _______ _____ _____    ______ ____
ROOT
ATOM      1  C   UNL     1       1.150  10.355  19.270  0.00  0.00    +0.000 A 
ATOM      2  C   UNL     1       0.699   9.635  20.392  0.00  0.00    +0.000 A 
ATOM      3  C   UNL     1       1.031   8.291  20.581  0.00  0.00    +0.000 A 
ATOM      4  C   UNL     1       1.823   7.671  19.636  0.00  0.00    +0.000 A 
ATOM      5  C   UNL     1       2.254   8.370  18.493  0.00  0.00    +0.000 A 
ATOM      6  C   UNL     1       1.911   9.700  18.287  0.00  0.00    +0.000 A 
ATOM      7  C   UNL     1       3.123   7.467  17.634  0.00  0.00    +0.000 C 
ATOM      8  C   UNL     1       3.136   6.175  18.437  0.00  0.00    +0.000 A 
ATOM      9  C   UNL     1       2.358   6.330  19.601  0.00  0.00    +0.000 A 
ATOM     10  C   UNL     1       2.203   5.290  20.499  0.00  0.00    +0.000 A 
ATOM     11  C   UNL     1       2.845   4.078  20.226  0.00  0.00    +0.000 A 
ATOM     12 BR   UNL     1       2.603   2.660  21.475  0.00  0.00    +0.000 Br
ATOM     13  C   UNL     1       3.670   3.905  19.085  0.00  0.00    +0.000 A 
ATOM     14  C   UNL     1       3.777   4.973  18.166  0.00  0.00    +0.000 A 
ATOM     15 BR   UNL     1       4.818   4.796  16.586  0.00  0.00    +0.000 Br
ENDROOT
BRANCH   1  19
ATOM     16  C   UNL     1      -0.241  13.772  18.478  0.00  0.00    +0.000 C 
ATOM     17  C   UNL     1      -0.282  12.269  18.559  0.00  0.00    +0.000 C 
ATOM     18  O   UNL     1      -1.276  11.656  18.181  0.00  0.00    +0.000 OA
ATOM     19  N   UNL     1       0.879  11.729  19.089  0.00  0.00    +0.000 N 
ATOM     20  H   UNL     1       1.543  12.377  19.493  0.00  0.00    +0.000 HD
ENDBRANCH   1  19
BRANCH  13  21
ATOM     21  N   UNL     1       4.187   2.628  18.771  0.00  0.00    +0.000 N 
ATOM     22  H   UNL     1       3.677   1.870  19.216  0.00  0.00    +0.000 HD
ATOM     23  H   UNL     1       5.195   2.562  18.890  0.00  0.00    +0.000 HD
ENDBRANCH  13  21
TORSDOF 2
ENDMDL
MODEL 6
REMARK VINA RESULT:      -7.5      1.388      2.809
REMARK  Name = 
REMARK  3 active torsions:
REMARK  status: ('A' for Active; 'I' for Inactive)
REMARK    1  A    between atoms: C_1  and  C_2
REMARK    2  A    between atoms: N_4  and  C_5
REMARK    3  A    between atoms: C_17  and  N_18
REMARK                            x       y       z     vdW  Elec       q    Type
REMARK                         _______ _______ _______ _____ _____    ______ ____
ROOT
ATOM      1  C   UNL     1       0.562   9.679  20.314  0.00  0.00    +0.000 A 
ATOM      2  C   UNL     1       0.498   8.591  21.204  0.00  0.00    +0.000 A 
ATOM      3  C   UNL     1       1.202   7.408  20.964  0.00  0.00    +0.000 A 
ATOM      4  C   UNL     1       1.974   7.322  19.825  0.00  0.00    +0.000 A 
ATOM      5  C   UNL     1       2.023   8.391  18.910  0.00  0.00    +0.000 A 
ATOM      6  C   UNL     1       1.309   9.562  19.129  0.00  0.00    +0.000 A 
ATOM      7  C   UNL     1       2.957   8.046  17.762  0.00  0.00    +0.000 C 
ATOM      8  C   UNL     1       3.438   6.656  18.146  0.00  0.00    +0.000 A 
ATOM      9  C   UNL     1       2.836   6.261  19.358  0.00  0.00    +0.000 A 
ATOM     10  C   UNL     1       3.105   5.026  19.919  0.00  0.00    +0.000 A 
ATOM     11  C   UNL     1       3.997   4.177  19.256  0.00  0.00    +0.000 A 
ATOM     12 BR   UNL     1       4.338   2.477  20.047  0.00  0.00    +0.000 Br
ATOM     13  C   UNL     1       4.652   4.564  18.058  0.00  0.00    +0.000 A 
ATOM     14  C   UNL     1       4.327   5.815  17.489  0.00  0.00    +0.000 A 
ATOM     15 BR   UNL     1       5.120   6.376  15.856  0.00  0.00    +0.000 Br
ENDROOT
BRANCH   1  19
ATOM     16  C   UNL     1      -0.475  13.194  21.216  0.00  0.00    +0.000 C 
ATOM     17  C   UNL     1       0.507  12.069  21.026  0.00  0.00    +0.000 C 
ATOM     18  O   UNL     1       1.699  12.240  21.268  0.00  0.00    +0.000 OA
ATOM     19  N   UNL     1      -0.091  10.907  20.565  0.00  0.00    +0.000 N 
ATOM     20  H   UNL     1      -1.056  10.973  20.270  0.00  0.00    +0.000 HD
ENDBRANCH   1  19
BRANCH  13  21
ATOM     21  N   UNL     1       5.436   3.628  17.345  0.00  0.00    +0.000 N 
ATOM     22  H   UNL     1       5.800   3.996  16.470  0.00  0.00    +0.000 HD
ATOM     23  H   UNL     1       4.988   2.720  17.248  0.00  0.00    +0.000 HD
ENDBRANCH  13  21
TORSDOF 2
ENDMDL
MODEL 7
REMARK VINA RESULT:      -7.5      1.637      2.964
REMARK  Name = 
REMARK  3 active torsions:
REMARK  status: ('A' for Active; 'I' for Inactive)
REMARK    1  A    between atoms: C_1  and  C_2
REMARK    2  A    between atoms: N_4  and  C_5
REMARK    3  A    between atoms: C_17  and  N_18
REMARK                            x       y       z     vdW  Elec       q    Type
REMARK                         _______ _______ _______ _____ _____    ______ ____
ROOT
ATOM      1  C   UNL     1       0.670   9.676  20.257  0.00  0.00    +0.000 A 
ATOM      2  C   UNL     1       0.594   8.600  21.161  0.00  0.00    +0.000 A 
ATOM      3  C   UNL     1       1.276   7.403  20.934  0.00  0.00    +0.000 A 
ATOM      4  C   UNL     1       2.041   7.290  19.791  0.00  0.00    +0.000 A 
ATOM      5  C   UNL     1       2.102   8.346  18.863  0.00  0.00    +0.000 A 
ATOM      6  C   UNL     1       1.410   9.531  19.071  0.00  0.00    +0.000 A 
ATOM      7  C   UNL     1       3.025   7.971  17.715  0.00  0.00    +0.000 C 
ATOM      8  C   UNL     1       3.485   6.578  18.114  0.00  0.00    +0.000 A 
ATOM      9  C   UNL     1       2.883   6.208  19.334  0.00  0.00    +0.000 A 
ATOM     10  C   UNL     1       3.134   4.976  19.909  0.00  0.00    +0.000 A 
ATOM     11  C   UNL     1       4.009   4.104  19.253  0.00  0.00    +0.000 A 
ATOM     12 BR   UNL     1       4.325   2.409  20.063  0.00  0.00    +0.000 Br
ATOM     13  C   UNL     1       4.664   4.465  18.047  0.00  0.00    +0.000 A 
ATOM     14  C   UNL     1       4.356   5.714  17.463  0.00  0.00    +0.000 A 
ATOM     15 BR   UNL     1       5.150   6.241  15.820  0.00  0.00    +0.000 Br
ENDROOT
BRANCH   1  19
ATOM     16  C   UNL     1      -1.493  12.767  20.325  0.00  0.00    +0.000 C 
ATOM     17  C   UNL     1      -1.091  11.394  19.855  0.00  0.00    +0.000 C 
ATOM     18  O   UNL     1      -1.751  10.818  18.994  0.00  0.00    +0.000 OA
ATOM     19  N   UNL     1       0.040  10.917  20.497  0.00  0.00    +0.000 N 
ATOM     20  H   UNL     1       0.377  11.448  21.289  0.00  0.00    +0.000 HD
ENDBRANCH   1  19
BRANCH  13  21
ATOM     21  N   UNL     1       5.428   3.507  17.342  0.00  0.00    +0.000 N 
ATOM     22  H   UNL     1       4.858   2.823  16.852  0.00  0.00    +0.000 HD
ATOM     23  H   UNL     1       6.167   3.091  17.904  0.00  0.00    +0.000 HD
ENDBRANCH  13  21
TORSDOF 2
ENDMDL
MODEL 8
REMARK VINA RESULT:      -7.2      3.762      6.939
REMARK  Name = 
REMARK  3 active torsions:
REMARK  status: ('A' for Active; 'I' for Inactive)
REMARK    1  A    between atoms: C_1  and  C_2
REMARK    2  A    between atoms: N_4  and  C_5
REMARK    3  A    between atoms: C_17  and  N_18
REMARK                            x       y       z     vdW  Elec       q    Type
REMARK                         _______ _______ _______ _____ _____    ______ ____
ROOT
ATOM      1  C   UNL     1       3.000   5.399  18.787  0.00  0.00    +0.000 A 
ATOM      2  C   UNL     1       3.224   6.359  17.783  0.00  0.00    +0.000 A 
ATOM      3  C   UNL     1       2.757   7.670  17.908  0.00  0.00    +0.000 A 
ATOM      4  C   UNL     1       2.065   8.016  19.050  0.00  0.00    +0.000 A 
ATOM      5  C   UNL     1       1.807   7.057  20.049  0.00  0.00    +0.000 A 
ATOM      6  C   UNL     1       2.248   5.746  19.922  0.00  0.00    +0.000 A 
ATOM      7  C   UNL     1       1.052   7.701  21.199  0.00  0.00    +0.000 C 
ATOM      8  C   UNL     1       0.924   9.143  20.733  0.00  0.00    +0.000 A 
ATOM      9  C   UNL     1       1.523   9.289  19.466  0.00  0.00    +0.000 A 
ATOM     10  C   UNL     1       1.532  10.510  18.817  0.00  0.00    +0.000 A 
ATOM     11  C   UNL     1       0.936  11.603  19.454  0.00  0.00    +0.000 A 
ATOM     12 BR   UNL     1       0.952  13.269  18.530  0.00  0.00    +0.000 Br
ATOM     13  C   UNL     1       0.362  11.497  20.748  0.00  0.00    +0.000 A 
ATOM     14  C   UNL     1       0.334  10.228  21.368  0.00  0.00    +0.000 A 
ATOM     15 BR   UNL     1      -0.468   9.998  23.075  0.00  0.00    +0.000 Br
ENDROOT
BRANCH   1  19
ATOM     16  C   UNL     1       3.707   1.737  18.217  0.00  0.00    +0.000 C 
ATOM     17  C   UNL     1       2.905   3.005  18.095  0.00  0.00    +0.000 C 
ATOM     18  O   UNL     1       1.835   3.005  17.492  0.00  0.00    +0.000 OA
ATOM     19  N   UNL     1       3.515   4.086  18.711  0.00  0.00    +0.000 N 
ATOM     20  H   UNL     1       4.465   3.955  19.032  0.00  0.00    +0.000 HD
ENDBRANCH   1  19
BRANCH  13  21
ATOM     21  N   UNL     1      -0.353  12.585  21.297  0.00  0.00    +0.000 N 
ATOM     22  H   UNL     1       0.197  13.136  21.951  0.00  0.00    +0.000 HD
ATOM     23  H   UNL     1      -1.267  12.324  21.657  0.00  0.00    +0.000 HD
ENDBRANCH  13  21
TORSDOF 2
ENDMDL
MODEL 9
REMARK VINA RESULT:      -7.0      3.740      7.525
REMARK  Name = 
REMARK  3 active torsions:
REMARK  status: ('A' for Active; 'I' for Inactive)
REMARK    1  A    between atoms: C_1  and  C_2
REMARK    2  A    between atoms: N_4  and  C_5
REMARK    3  A    between atoms: C_17  and  N_18
REMARK                            x       y       z     vdW  Elec       q    Type
REMARK                         _______ _______ _______ _____ _____    ______ ____
ROOT
ATOM      1  C   UNL     1       3.869   5.885  17.547  0.00  0.00    +0.000 A 
ATOM      2  C   UNL     1       3.543   5.439  18.840  0.00  0.00    +0.000 A 
ATOM      3  C   UNL     1       2.801   6.229  19.722  0.00  0.00    +0.000 A 
ATOM      4  C   UNL     1       2.383   7.473  19.296  0.00  0.00    +0.000 A 
ATOM      5  C   UNL     1       2.729   7.945  18.016  0.00  0.00    +0.000 A 
ATOM      6  C   UNL     1       3.485   7.175  17.142  0.00  0.00    +0.000 A 
ATOM      7  C   UNL     1       2.128   9.323  17.795  0.00  0.00    +0.000 C 
ATOM      8  C   UNL     1       1.393   9.567  19.103  0.00  0.00    +0.000 A 
ATOM      9  C   UNL     1       1.570   8.464  19.962  0.00  0.00    +0.000 A 
ATOM     10  C   UNL     1       1.005   8.444  21.223  0.00  0.00    +0.000 A 
ATOM     11  C   UNL     1       0.245   9.547  21.626  0.00  0.00    +0.000 A 
ATOM     12 BR   UNL     1      -0.511   9.496  23.375  0.00  0.00    +0.000 Br
ATOM     13  C   UNL     1       0.013  10.653  20.769  0.00  0.00    +0.000 A 
ATOM     14  C   UNL     1       0.636  10.662  19.501  0.00  0.00    +0.000 A 
ATOM     15 BR   UNL     1       0.418  12.134  18.320  0.00  0.00    +0.000 Br
ENDROOT
BRANCH   1  19
ATOM     16  C   UNL     1       6.254   4.309  15.083  0.00  0.00    +0.000 C 
ATOM     17  C   UNL     1       5.803   5.361  16.061  0.00  0.00    +0.000 C 
ATOM     18  O   UNL     1       6.514   6.334  16.295  0.00  0.00    +0.000 OA
ATOM     19  N   UNL     1       4.565   5.080  16.617  0.00  0.00    +0.000 N 
ATOM     20  H   UNL     1       4.177   4.164  16.436  0.00  0.00    +0.000 HD
ENDBRANCH   1  19
BRANCH  13  21
ATOM     21  N   UNL     1      -0.641  11.806  21.260  0.00  0.00    +0.000 N 
ATOM     22  H   UNL     1      -0.110  12.290  21.979  0.00  0.00    +0.000 HD
ATOM     23  H   UNL     1      -1.611  11.640  21.515  0.00  0.00    +0.000 HD
ENDBRANCH  13  21
TORSDOF 2
ENDMDL
