MODEL 1
REMARK VINA RESULT:      -6.8      0.000      0.000
REMARK  Name = 
REMARK  18 active torsions:
REMARK  status: ('A' for Active; 'I' for Inactive)
REMARK    1  A    between atoms: C_1  and  C_2
REMARK    2  A    between atoms: C_2  and  C_3
REMARK    3  A    between atoms: C_3  and  C_4
REMARK    4  A    between atoms: C_4  and  C_5
REMARK    5  A    between atoms: C_5  and  C_6
REMARK    6  A    between atoms: C_7  and  C_8
REMARK    7  A    between atoms: C_8  and  C_9
REMARK    8  A    between atoms: C_10  and  C_11
REMARK    9  A    between atoms: C_11  and  C_12
REMARK   10  A    between atoms: C_12  and  C_13
REMARK   11  A    between atoms: C_13  and  C_14
REMARK   12  A    between atoms: C_14  and  C_15
REMARK   13  A    between atoms: C_15  and  C_16
REMARK   14  A    between atoms: C_16  and  C_17
REMARK   15  A    between atoms: C_17  and  C_18
REMARK   16  A    between atoms: N_20  and  C_21
REMARK   17  A    between atoms: C_21  and  C_22
REMARK   18  A    between atoms: C_22  and  C_23
REMARK                            x       y       z     vdW  Elec       q    Type
REMARK                         _______ _______ _______ _____ _____    ______ ____
ROOT
ATOM      1  C   UNL     1       2.082   6.552  20.852  0.00  0.00    +0.000 C 
ENDROOT
BRANCH   1   2
ATOM      2  C   UNL     1       2.126   7.390  19.589  0.00  0.00    +0.000 C 
ATOM      3  O   UNL     1       2.555   6.977  18.517  0.00  0.00    +0.000 OA
ATOM      4  N   UNL     1       1.639   8.665  19.755  0.00  0.00    +0.000 N 
ATOM      5  H   UNL     1       1.174   8.923  20.619  0.00  0.00    +0.000 HD
BRANCH   4   6
ATOM      6  C   UNL     1       1.548   9.543  18.605  0.00  0.00    +0.000 C 
BRANCH   6   7
ATOM      7  C   UNL     1       0.285   9.343  17.771  0.00  0.00    +0.000 C 
BRANCH   7   8
ATOM      8  C   UNL     1      -0.851  10.224  18.209  0.00  0.00    +0.000 A 
ATOM      9  C   UNL     1      -0.935  10.936  19.390  0.00  0.00    +0.000 A 
ATOM     10  N   UNL     1      -2.120  11.620  19.395  0.00  0.00    +0.000 N 
ATOM     11  C   UNL     1      -2.829  11.352  18.251  0.00  0.00    +0.000 A 
ATOM     12  C   UNL     1      -4.089  11.807  17.840  0.00  0.00    +0.000 A 
ATOM     13  C   UNL     1      -4.574  11.353  16.613  0.00  0.00    +0.000 A 
ATOM     14  C   UNL     1      -3.826  10.482  15.821  0.00  0.00    +0.000 A 
ATOM     15  C   UNL     1      -2.567  10.042  16.244  0.00  0.00    +0.000 A 
ATOM     16  C   UNL     1      -2.059  10.477  17.485  0.00  0.00    +0.000 A 
ATOM     17  H   UNL     1      -2.435  12.237  20.133  0.00  0.00    +0.000 HD
ENDBRANCH   7   8
ENDBRANCH   6   7
ENDBRANCH   4   6
ENDBRANCH   1   2
BRANCH   1  18
ATOM     18  C   UNL     1       1.458   5.194  20.559  0.00  0.00    +0.000 C 
BRANCH  18  19
ATOM     19  C   UNL     1       2.004   4.100  21.470  0.00  0.00    +0.000 C 
BRANCH  19  20
ATOM     20  C   UNL     1       1.564   2.742  20.942  0.00  0.00    +0.000 C 
BRANCH  20  21
ATOM     21  C   UNL     1       0.667   2.861  19.711  0.00  0.00    +0.000 C 
BRANCH  21  22
ATOM     22  C   UNL     1       1.395   2.450  18.427  0.00  0.00    +0.000 C 
BRANCH  22  23
ATOM     23  C   UNL     1       1.899   3.670  17.669  0.00  0.00    +0.000 C 
BRANCH  23  25
ATOM     24  C   UNL     1       4.328   3.249  17.433  0.00  0.00    +0.000 C 
ATOM     25  C   UNL     1       3.128   3.424  16.854  0.00  0.00    +0.000 C 
BRANCH  24  26
ATOM     26  C   UNL     1       4.555   3.297  18.915  0.00  0.00    +0.000 C 
BRANCH  26  28
ATOM     27  C   UNL     1       5.950   5.376  19.015  0.00  0.00    +0.000 C 
ATOM     28  C   UNL     1       4.864   4.684  19.391  0.00  0.00    +0.000 C 
BRANCH  27  29
ATOM     29  C   UNL     1       6.986   4.800  18.096  0.00  0.00    +0.000 C 
BRANCH  29  30
ATOM     30  C   UNL     1       7.307   5.706  16.919  0.00  0.00    +0.000 C 
BRANCH  30  31
ATOM     31  C   UNL     1       6.019   6.310  16.362  0.00  0.00    +0.000 C 
BRANCH  31  33
ATOM     32  C   UNL     1       6.695   4.756  14.512  0.00  0.00    +0.000 C 
ATOM     33  C   UNL     1       5.555   5.547  15.128  0.00  0.00    +0.000 C 
ENDBRANCH  31  33
ENDBRANCH  30  31
ENDBRANCH  29  30
ENDBRANCH  27  29
ENDBRANCH  26  28
ENDBRANCH  24  26
ENDBRANCH  23  25
ENDBRANCH  22  23
ENDBRANCH  21  22
ENDBRANCH  20  21
ENDBRANCH  19  20
ENDBRANCH  18  19
ENDBRANCH   1  18
TORSDOF 17
ENDMDL
MODEL 2
REMARK VINA RESULT:      -6.7      6.550     10.275
REMARK  Name = 
REMARK  18 active torsions:
REMARK  status: ('A' for Active; 'I' for Inactive)
REMARK    1  A    between atoms: C_1  and  C_2
REMARK    2  A    between atoms: C_2  and  C_3
REMARK    3  A    between atoms: C_3  and  C_4
REMARK    4  A    between atoms: C_4  and  C_5
REMARK    5  A    between atoms: C_5  and  C_6
REMARK    6  A    between atoms: C_7  and  C_8
REMARK    7  A    between atoms: C_8  and  C_9
REMARK    8  A    between atoms: C_10  and  C_11
REMARK    9  A    between atoms: C_11  and  C_12
REMARK   10  A    between atoms: C_12  and  C_13
REMARK   11  A    between atoms: C_13  and  C_14
REMARK   12  A    between atoms: C_14  and  C_15
REMARK   13  A    between atoms: C_15  and  C_16
REMARK   14  A    between atoms: C_16  and  C_17
REMARK   15  A    between atoms: C_17  and  C_18
REMARK   16  A    between atoms: N_20  and  C_21
REMARK   17  A    between atoms: C_21  and  C_22
REMARK   18  A    between atoms: C_22  and  C_23
REMARK                            x       y       z     vdW  Elec       q    Type
REMARK                         _______ _______ _______ _____ _____    ______ ____
ROOT
ATOM      1  C   UNL     1       8.467   8.233  18.453  0.00  0.00    +0.000 C 
ENDROOT
BRANCH   1   2
ATOM      2  C   UNL     1       7.608   7.050  18.054  0.00  0.00    +0.000 C 
ATOM      3  O   UNL     1       7.699   5.942  18.570  0.00  0.00    +0.000 OA
ATOM      4  N   UNL     1       6.712   7.332  17.049  0.00  0.00    +0.000 N 
ATOM      5  H   UNL     1       6.578   8.289  16.741  0.00  0.00    +0.000 HD
BRANCH   4   6
ATOM      6  C   UNL     1       5.774   6.309  16.630  0.00  0.00    +0.000 C 
BRANCH   6   7
ATOM      7  C   UNL     1       4.442   6.347  17.373  0.00  0.00    +0.000 C 
BRANCH   7   8
ATOM      8  C   UNL     1       3.920   4.979  17.710  0.00  0.00    +0.000 A 
ATOM      9  C   UNL     1       4.265   3.790  17.098  0.00  0.00    +0.000 A 
ATOM     10  N   UNL     1       3.580   2.777  17.711  0.00  0.00    +0.000 N 
ATOM     11  C   UNL     1       2.771   3.279  18.700  0.00  0.00    +0.000 A 
ATOM     12  C   UNL     1       1.885   2.623  19.564  0.00  0.00    +0.000 A 
ATOM     13  C   UNL     1       1.173   3.402  20.477  0.00  0.00    +0.000 A 
ATOM     14  C   UNL     1       1.344   4.785  20.530  0.00  0.00    +0.000 A 
ATOM     15  C   UNL     1       2.237   5.423  19.663  0.00  0.00    +0.000 A 
ATOM     16  C   UNL     1       2.961   4.660  18.725  0.00  0.00    +0.000 A 
ATOM     17  H   UNL     1       3.655   1.795  17.476  0.00  0.00    +0.000 HD
ENDBRANCH   7   8
ENDBRANCH   6   7
ENDBRANCH   4   6
ENDBRANCH   1   2
BRANCH   1  18
ATOM     18  C   UNL     1       8.074   9.463  17.646  0.00  0.00    +0.000 C 
BRANCH  18  19
ATOM     19  C   UNL     1       8.705  10.739  18.193  0.00  0.00    +0.000 C 
BRANCH  19  20
ATOM     20  C   UNL     1       9.448  10.417  19.483  0.00  0.00    +0.000 C 
BRANCH  20  21
ATOM     21  C   UNL     1      10.637  11.348  19.715  0.00  0.00    +0.000 C 
BRANCH  21  22
ATOM     22  C   UNL     1      11.522  11.473  18.470  0.00  0.00    +0.000 C 
BRANCH  22  23
ATOM     23  C   UNL     1      12.011  12.903  18.288  0.00  0.00    +0.000 C 
BRANCH  23  25
ATOM     24  C   UNL     1      11.205  14.838  19.607  0.00  0.00    +0.000 C 
ATOM     25  C   UNL     1      11.964  13.733  19.532  0.00  0.00    +0.000 C 
BRANCH  24  26
ATOM     26  C   UNL     1      10.361  15.351  18.477  0.00  0.00    +0.000 C 
BRANCH  26  28
ATOM     27  C   UNL     1       8.178  14.238  19.000  0.00  0.00    +0.000 C 
ATOM     28  C   UNL     1       9.216  14.435  18.172  0.00  0.00    +0.000 C 
BRANCH  27  29
ATOM     29  C   UNL     1       8.089  14.901  20.341  0.00  0.00    +0.000 C 
BRANCH  29  30
ATOM     30  C   UNL     1       7.974  13.911  21.488  0.00  0.00    +0.000 C 
BRANCH  30  31
ATOM     31  C   UNL     1       9.156  14.081  22.441  0.00  0.00    +0.000 C 
BRANCH  31  33
ATOM     32  C   UNL     1       9.693  15.870  24.115  0.00  0.00    +0.000 C 
ATOM     33  C   UNL     1       9.477  15.555  22.646  0.00  0.00    +0.000 C 
ENDBRANCH  31  33
ENDBRANCH  30  31
ENDBRANCH  29  30
ENDBRANCH  27  29
ENDBRANCH  26  28
ENDBRANCH  24  26
ENDBRANCH  23  25
ENDBRANCH  22  23
ENDBRANCH  21  22
ENDBRANCH  20  21
ENDBRANCH  19  20
ENDBRANCH  18  19
ENDBRANCH   1  18
TORSDOF 17
ENDMDL
MODEL 3
REMARK VINA RESULT:      -6.6      1.521      2.709
REMARK  Name = 
REMARK  18 active torsions:
REMARK  status: ('A' for Active; 'I' for Inactive)
REMARK    1  A    between atoms: C_1  and  C_2
REMARK    2  A    between atoms: C_2  and  C_3
REMARK    3  A    between atoms: C_3  and  C_4
REMARK    4  A    between atoms: C_4  and  C_5
REMARK    5  A    between atoms: C_5  and  C_6
REMARK    6  A    between atoms: C_7  and  C_8
REMARK    7  A    between atoms: C_8  and  C_9
REMARK    8  A    between atoms: C_10  and  C_11
REMARK    9  A    between atoms: C_11  and  C_12
REMARK   10  A    between atoms: C_12  and  C_13
REMARK   11  A    between atoms: C_13  and  C_14
REMARK   12  A    between atoms: C_14  and  C_15
REMARK   13  A    between atoms: C_15  and  C_16
REMARK   14  A    between atoms: C_16  and  C_17
REMARK   15  A    between atoms: C_17  and  C_18
REMARK   16  A    between atoms: N_20  and  C_21
REMARK   17  A    between atoms: C_21  and  C_22
REMARK   18  A    between atoms: C_22  and  C_23
REMARK                            x       y       z     vdW  Elec       q    Type
REMARK                         _______ _______ _______ _____ _____    ______ ____
ROOT
ATOM      1  C   UNL     1       1.532   8.508  17.784  0.00  0.00    +0.000 C 
ENDROOT
BRANCH   1   2
ATOM      2  C   UNL     1       1.121   9.700  18.625  0.00  0.00    +0.000 C 
ATOM      3  O   UNL     1       0.315   9.633  19.547  0.00  0.00    +0.000 OA
ATOM      4  N   UNL     1       1.737  10.874  18.258  0.00  0.00    +0.000 N 
ATOM      5  H   UNL     1       2.491  10.862  17.580  0.00  0.00    +0.000 HD
BRANCH   4   6
ATOM      6  C   UNL     1       1.494  12.073  19.036  0.00  0.00    +0.000 C 
BRANCH   6   7
ATOM      7  C   UNL     1       0.527  13.053  18.379  0.00  0.00    +0.000 C 
BRANCH   7   8
ATOM      8  C   UNL     1      -0.891  12.878  18.845  0.00  0.00    +0.000 A 
ATOM      9  C   UNL     1      -1.486  13.497  19.928  0.00  0.00    +0.000 A 
ATOM     10  N   UNL     1      -2.786  13.080  20.000  0.00  0.00    +0.000 N 
ATOM     11  C   UNL     1      -3.053  12.179  18.999  0.00  0.00    +0.000 A 
ATOM     12  C   UNL     1      -4.232  11.482  18.700  0.00  0.00    +0.000 A 
ATOM     13  C   UNL     1      -4.210  10.608  17.613  0.00  0.00    +0.000 A 
ATOM     14  C   UNL     1      -3.056  10.441  16.847  0.00  0.00    +0.000 A 
ATOM     15  C   UNL     1      -1.890  11.149  17.156  0.00  0.00    +0.000 A 
ATOM     16  C   UNL     1      -1.882  12.030  18.256  0.00  0.00    +0.000 A 
ATOM     17  H   UNL     1      -3.461  13.387  20.689  0.00  0.00    +0.000 HD
ENDBRANCH   7   8
ENDBRANCH   6   7
ENDBRANCH   4   6
ENDBRANCH   1   2
BRANCH   1  18
ATOM     18  C   UNL     1       2.674   7.760  18.456  0.00  0.00    +0.000 C 
BRANCH  18  19
ATOM     19  C   UNL     1       2.267   7.177  19.806  0.00  0.00    +0.000 C 
BRANCH  19  20
ATOM     20  C   UNL     1       2.568   5.685  19.819  0.00  0.00    +0.000 C 
BRANCH  20  21
ATOM     21  C   UNL     1       1.519   4.888  20.593  0.00  0.00    +0.000 C 
BRANCH  21  22
ATOM     22  C   UNL     1       1.050   3.651  19.821  0.00  0.00    +0.000 C 
BRANCH  22  23
ATOM     23  C   UNL     1       1.413   3.757  18.346  0.00  0.00    +0.000 C 
BRANCH  23  25
ATOM     24  C   UNL     1       3.438   2.980  17.152  0.00  0.00    +0.000 C 
ATOM     25  C   UNL     1       2.336   2.686  17.861  0.00  0.00    +0.000 C 
BRANCH  24  26
ATOM     26  C   UNL     1       3.838   4.375  16.769  0.00  0.00    +0.000 C 
BRANCH  26  28
ATOM     27  C   UNL     1       5.883   5.331  15.681  0.00  0.00    +0.000 C 
ATOM     28  C   UNL     1       4.934   4.384  15.748  0.00  0.00    +0.000 C 
BRANCH  27  29
ATOM     29  C   UNL     1       5.909   6.503  16.617  0.00  0.00    +0.000 C 
BRANCH  29  30
ATOM     30  C   UNL     1       7.266   6.715  17.267  0.00  0.00    +0.000 C 
BRANCH  30  31
ATOM     31  C   UNL     1       7.532   5.607  18.286  0.00  0.00    +0.000 C 
BRANCH  31  33
ATOM     32  C   UNL     1       5.815   4.182  19.430  0.00  0.00    +0.000 C 
ATOM     33  C   UNL     1       6.432   5.566  19.337  0.00  0.00    +0.000 C 
ENDBRANCH  31  33
ENDBRANCH  30  31
ENDBRANCH  29  30
ENDBRANCH  27  29
ENDBRANCH  26  28
ENDBRANCH  24  26
ENDBRANCH  23  25
ENDBRANCH  22  23
ENDBRANCH  21  22
ENDBRANCH  20  21
ENDBRANCH  19  20
ENDBRANCH  18  19
ENDBRANCH   1  18
TORSDOF 17
ENDMDL
MODEL 4
REMARK VINA RESULT:      -6.5      6.809     10.140
REMARK  Name = 
REMARK  18 active torsions:
REMARK  status: ('A' for Active; 'I' for Inactive)
REMARK    1  A    between atoms: C_1  and  C_2
REMARK    2  A    between atoms: C_2  and  C_3
REMARK    3  A    between atoms: C_3  and  C_4
REMARK    4  A    between atoms: C_4  and  C_5
REMARK    5  A    between atoms: C_5  and  C_6
REMARK    6  A    between atoms: C_7  and  C_8
REMARK    7  A    between atoms: C_8  and  C_9
REMARK    8  A    between atoms: C_10  and  C_11
REMARK    9  A    between atoms: C_11  and  C_12
REMARK   10  A    between atoms: C_12  and  C_13
REMARK   11  A    between atoms: C_13  and  C_14
REMARK   12  A    between atoms: C_14  and  C_15
REMARK   13  A    between atoms: C_15  and  C_16
REMARK   14  A    between atoms: C_16  and  C_17
REMARK   15  A    between atoms: C_17  and  C_18
REMARK   16  A    between atoms: N_20  and  C_21
REMARK   17  A    between atoms: C_21  and  C_22
REMARK   18  A    between atoms: C_22  and  C_23
REMARK                            x       y       z     vdW  Elec       q    Type
REMARK                         _______ _______ _______ _____ _____    ______ ____
ROOT
ATOM      1  C   UNL     1       8.244   7.525  18.308  0.00  0.00    +0.000 C 
ENDROOT
BRANCH   1   2
ATOM      2  C   UNL     1       7.451   6.613  17.392  0.00  0.00    +0.000 C 
ATOM      3  O   UNL     1       7.645   6.531  16.184  0.00  0.00    +0.000 OA
ATOM      4  N   UNL     1       6.485   5.881  18.043  0.00  0.00    +0.000 N 
ATOM      5  H   UNL     1       6.444   5.880  19.056  0.00  0.00    +0.000 HD
BRANCH   4   6
ATOM      6  C   UNL     1       5.711   4.909  17.295  0.00  0.00    +0.000 C 
BRANCH   6   7
ATOM      7  C   UNL     1       4.281   5.350  17.000  0.00  0.00    +0.000 C 
BRANCH   7   8
ATOM      8  C   UNL     1       3.412   5.379  18.225  0.00  0.00    +0.000 A 
ATOM      9  C   UNL     1       3.358   6.381  19.175  0.00  0.00    +0.000 A 
ATOM     10  N   UNL     1       2.431   6.029  20.117  0.00  0.00    +0.000 N 
ATOM     11  C   UNL     1       1.890   4.803  19.819  0.00  0.00    +0.000 A 
ATOM     12  C   UNL     1       0.931   4.046  20.505  0.00  0.00    +0.000 A 
ATOM     13  C   UNL     1       0.574   2.809  19.966  0.00  0.00    +0.000 A 
ATOM     14  C   UNL     1       1.148   2.348  18.781  0.00  0.00    +0.000 A 
ATOM     15  C   UNL     1       2.100   3.119  18.106  0.00  0.00    +0.000 A 
ATOM     16  C   UNL     1       2.486   4.368  18.636  0.00  0.00    +0.000 A 
ATOM     17  H   UNL     1       2.174   6.588  20.921  0.00  0.00    +0.000 HD
ENDBRANCH   7   8
ENDBRANCH   6   7
ENDBRANCH   4   6
ENDBRANCH   1   2
BRANCH   1  18
ATOM     18  C   UNL     1       7.997   8.981  17.939  0.00  0.00    +0.000 C 
BRANCH  18  19
ATOM     19  C   UNL     1       8.930   9.931  18.683  0.00  0.00    +0.000 C 
BRANCH  19  20
ATOM     20  C   UNL     1       9.070  11.222  17.888  0.00  0.00    +0.000 C 
BRANCH  20  21
ATOM     21  C   UNL     1      10.527  11.659  17.744  0.00  0.00    +0.000 C 
BRANCH  21  22
ATOM     22  C   UNL     1      10.707  13.158  18.005  0.00  0.00    +0.000 C 
BRANCH  22  23
ATOM     23  C   UNL     1      11.456  13.400  19.308  0.00  0.00    +0.000 C 
BRANCH  23  25
ATOM     24  C   UNL     1      10.286  12.437  21.267  0.00  0.00    +0.000 C 
ATOM     25  C   UNL     1      11.254  12.338  20.341  0.00  0.00    +0.000 C 
BRANCH  24  26
ATOM     26  C   UNL     1       9.342  13.600  21.367  0.00  0.00    +0.000 C 
BRANCH  26  28
ATOM     27  C   UNL     1       9.654  16.075  21.610  0.00  0.00    +0.000 C 
ATOM     28  C   UNL     1      10.013  14.820  21.922  0.00  0.00    +0.000 C 
BRANCH  27  29
ATOM     29  C   UNL     1       8.554  16.373  20.636  0.00  0.00    +0.000 C 
BRANCH  29  30
ATOM     30  C   UNL     1       8.985  16.220  19.187  0.00  0.00    +0.000 C 
BRANCH  30  31
ATOM     31  C   UNL     1       8.916  17.572  18.479  0.00  0.00    +0.000 C 
BRANCH  31  33
ATOM     32  C   UNL     1      11.336  16.983  18.183  0.00  0.00    +0.000 C 
ATOM     33  C   UNL     1      10.313  18.105  18.194  0.00  0.00    +0.000 C 
ENDBRANCH  31  33
ENDBRANCH  30  31
ENDBRANCH  29  30
ENDBRANCH  27  29
ENDBRANCH  26  28
ENDBRANCH  24  26
ENDBRANCH  23  25
ENDBRANCH  22  23
ENDBRANCH  21  22
ENDBRANCH  20  21
ENDBRANCH  19  20
ENDBRANCH  18  19
ENDBRANCH   1  18
TORSDOF 17
ENDMDL
MODEL 5
REMARK VINA RESULT:      -6.5      2.262      3.296
REMARK  Name = 
REMARK  18 active torsions:
REMARK  status: ('A' for Active; 'I' for Inactive)
REMARK    1  A    between atoms: C_1  and  C_2
REMARK    2  A    between atoms: C_2  and  C_3
REMARK    3  A    between atoms: C_3  and  C_4
REMARK    4  A    between atoms: C_4  and  C_5
REMARK    5  A    between atoms: C_5  and  C_6
REMARK    6  A    between atoms: C_7  and  C_8
REMARK    7  A    between atoms: C_8  and  C_9
REMARK    8  A    between atoms: C_10  and  C_11
REMARK    9  A    between atoms: C_11  and  C_12
REMARK   10  A    between atoms: C_12  and  C_13
REMARK   11  A    between atoms: C_13  and  C_14
REMARK   12  A    between atoms: C_14  and  C_15
REMARK   13  A    between atoms: C_15  and  C_16
REMARK   14  A    between atoms: C_16  and  C_17
REMARK   15  A    between atoms: C_17  and  C_18
REMARK   16  A    between atoms: N_20  and  C_21
REMARK   17  A    between atoms: C_21  and  C_22
REMARK   18  A    between atoms: C_22  and  C_23
REMARK                            x       y       z     vdW  Elec       q    Type
REMARK                         _______ _______ _______ _____ _____    ______ ____
ROOT
ATOM      1  C   UNL     1       2.418   8.667  17.789  0.00  0.00    +0.000 C 
ENDROOT
BRANCH   1   2
ATOM      2  C   UNL     1       1.252   9.163  18.621  0.00  0.00    +0.000 C 
ATOM      3  O   UNL     1       1.118   8.916  19.814  0.00  0.00    +0.000 OA
ATOM      4  N   UNL     1       0.349   9.920  17.911  0.00  0.00    +0.000 N 
ATOM      5  H   UNL     1       0.563  10.209  16.962  0.00  0.00    +0.000 HD
BRANCH   4   6
ATOM      6  C   UNL     1      -0.770  10.524  18.608  0.00  0.00    +0.000 C 
BRANCH   6   7
ATOM      7  C   UNL     1      -0.418  11.812  19.346  0.00  0.00    +0.000 C 
BRANCH   7   8
ATOM      8  C   UNL     1      -0.875  11.810  20.777  0.00  0.00    +0.000 A 
ATOM      9  C   UNL     1      -0.154  11.376  21.873  0.00  0.00    +0.000 A 
ATOM     10  N   UNL     1      -0.921  11.558  22.991  0.00  0.00    +0.000 N 
ATOM     11  C   UNL     1      -2.144  12.081  22.649  0.00  0.00    +0.000 A 
ATOM     12  C   UNL     1      -3.245  12.408  23.453  0.00  0.00    +0.000 A 
ATOM     13  C   UNL     1      -4.378  12.920  22.822  0.00  0.00    +0.000 A 
ATOM     14  C   UNL     1      -4.410  13.106  21.440  0.00  0.00    +0.000 A 
ATOM     15  C   UNL     1      -3.301  12.780  20.653  0.00  0.00    +0.000 A 
ATOM     16  C   UNL     1      -2.146  12.251  21.265  0.00  0.00    +0.000 A 
ATOM     17  H   UNL     1      -0.635  11.341  23.938  0.00  0.00    +0.000 HD
ENDBRANCH   7   8
ENDBRANCH   6   7
ENDBRANCH   4   6
ENDBRANCH   1   2
BRANCH   1  18
ATOM     18  C   UNL     1       3.069   7.467  18.461  0.00  0.00    +0.000 C 
BRANCH  18  19
ATOM     19  C   UNL     1       2.847   6.176  17.679  0.00  0.00    +0.000 C 
BRANCH  19  20
ATOM     20  C   UNL     1       1.768   5.352  18.368  0.00  0.00    +0.000 C 
BRANCH  20  21
ATOM     21  C   UNL     1       1.474   4.048  17.628  0.00  0.00    +0.000 C 
BRANCH  21  22
ATOM     22  C   UNL     1       1.306   2.867  18.589  0.00  0.00    +0.000 C 
BRANCH  22  23
ATOM     23  C   UNL     1       2.576   2.029  18.653  0.00  0.00    +0.000 C 
BRANCH  23  25
ATOM     24  C   UNL     1       4.432   2.934  20.020  0.00  0.00    +0.000 C 
ATOM     25  C   UNL     1       3.336   2.162  19.934  0.00  0.00    +0.000 C 
BRANCH  24  26
ATOM     26  C   UNL     1       5.000   3.710  18.868  0.00  0.00    +0.000 C 
BRANCH  26  28
ATOM     27  C   UNL     1       6.812   5.430  18.682  0.00  0.00    +0.000 C 
ATOM     28  C   UNL     1       5.748   4.925  19.325  0.00  0.00    +0.000 C 
BRANCH  27  29
ATOM     29  C   UNL     1       7.379   4.792  17.449  0.00  0.00    +0.000 C 
BRANCH  29  30
ATOM     30  C   UNL     1       7.128   5.605  16.190  0.00  0.00    +0.000 C 
BRANCH  30  31
ATOM     31  C   UNL     1       5.644   5.562  15.831  0.00  0.00    +0.000 C 
BRANCH  31  33
ATOM     32  C   UNL     1       6.379   4.111  13.923  0.00  0.00    +0.000 C 
ATOM     33  C   UNL     1       5.326   4.332  14.993  0.00  0.00    +0.000 C 
ENDBRANCH  31  33
ENDBRANCH  30  31
ENDBRANCH  29  30
ENDBRANCH  27  29
ENDBRANCH  26  28
ENDBRANCH  24  26
ENDBRANCH  23  25
ENDBRANCH  22  23
ENDBRANCH  21  22
ENDBRANCH  20  21
ENDBRANCH  19  20
ENDBRANCH  18  19
ENDBRANCH   1  18
TORSDOF 17
ENDMDL
MODEL 6
REMARK VINA RESULT:      -6.5      2.621      4.879
REMARK  Name = 
REMARK  18 active torsions:
REMARK  status: ('A' for Active; 'I' for Inactive)
REMARK    1  A    between atoms: C_1  and  C_2
REMARK    2  A    between atoms: C_2  and  C_3
REMARK    3  A    between atoms: C_3  and  C_4
REMARK    4  A    between atoms: C_4  and  C_5
REMARK    5  A    between atoms: C_5  and  C_6
REMARK    6  A    between atoms: C_7  and  C_8
REMARK    7  A    between atoms: C_8  and  C_9
REMARK    8  A    between atoms: C_10  and  C_11
REMARK    9  A    between atoms: C_11  and  C_12
REMARK   10  A    between atoms: C_12  and  C_13
REMARK   11  A    between atoms: C_13  and  C_14
REMARK   12  A    between atoms: C_14  and  C_15
REMARK   13  A    between atoms: C_15  and  C_16
REMARK   14  A    between atoms: C_16  and  C_17
REMARK   15  A    between atoms: C_17  and  C_18
REMARK   16  A    between atoms: N_20  and  C_21
REMARK   17  A    between atoms: C_21  and  C_22
REMARK   18  A    between atoms: C_22  and  C_23
REMARK                            x       y       z     vdW  Elec       q    Type
REMARK                         _______ _______ _______ _____ _____    ______ ____
ROOT
ATOM      1  C   UNL     1       0.176   9.641  22.486  0.00  0.00    +0.000 C 
ENDROOT
BRANCH   1   2
ATOM      2  C   UNL     1      -0.779  10.816  22.565  0.00  0.00    +0.000 C 
ATOM      3  O   UNL     1      -1.681  10.901  23.391  0.00  0.00    +0.000 OA
ATOM      4  N   UNL     1      -0.541  11.785  21.618  0.00  0.00    +0.000 N 
ATOM      5  H   UNL     1       0.292  11.739  21.041  0.00  0.00    +0.000 HD
BRANCH   4   6
ATOM      6  C   UNL     1      -1.331  13.001  21.637  0.00  0.00    +0.000 C 
BRANCH   6   7
ATOM      7  C   UNL     1      -2.238  13.170  20.422  0.00  0.00    +0.000 C 
BRANCH   7   8
ATOM      8  C   UNL     1      -3.656  12.751  20.687  0.00  0.00    +0.000 A 
ATOM      9  C   UNL     1      -4.329  12.831  21.891  0.00  0.00    +0.000 A 
ATOM     10  N   UNL     1      -5.600  12.363  21.704  0.00  0.00    +0.000 N 
ATOM     11  C   UNL     1      -5.772  11.955  20.405  0.00  0.00    +0.000 A 
ATOM     12  C   UNL     1      -6.890  11.396  19.771  0.00  0.00    +0.000 A 
ATOM     13  C   UNL     1      -6.771  11.061  18.422  0.00  0.00    +0.000 A 
ATOM     14  C   UNL     1      -5.582  11.284  17.728  0.00  0.00    +0.000 A 
ATOM     15  C   UNL     1      -4.477  11.848  18.374  0.00  0.00    +0.000 A 
ATOM     16  C   UNL     1      -4.568  12.185  19.739  0.00  0.00    +0.000 A 
ATOM     17  H   UNL     1      -6.319  12.322  22.416  0.00  0.00    +0.000 HD
ENDBRANCH   7   8
ENDBRANCH   6   7
ENDBRANCH   4   6
ENDBRANCH   1   2
BRANCH   1  18
ATOM     18  C   UNL     1      -0.047   8.870  21.192  0.00  0.00    +0.000 C 
BRANCH  18  19
ATOM     19  C   UNL     1       1.168   8.924  20.272  0.00  0.00    +0.000 C 
BRANCH  19  20
ATOM     20  C   UNL     1       1.904   7.593  20.336  0.00  0.00    +0.000 C 
BRANCH  20  21
ATOM     21  C   UNL     1       2.132   6.989  18.951  0.00  0.00    +0.000 C 
BRANCH  21  22
ATOM     22  C   UNL     1       3.031   7.871  18.079  0.00  0.00    +0.000 C 
BRANCH  22  23
ATOM     23  C   UNL     1       3.823   7.032  17.086  0.00  0.00    +0.000 C 
BRANCH  23  25
ATOM     24  C   UNL     1       5.664   5.701  18.073  0.00  0.00    +0.000 C 
ATOM     25  C   UNL     1       5.256   6.824  17.460  0.00  0.00    +0.000 C 
BRANCH  24  26
ATOM     26  C   UNL     1       4.746   4.575  18.450  0.00  0.00    +0.000 C 
BRANCH  26  28
ATOM     27  C   UNL     1       3.167   3.279  16.998  0.00  0.00    +0.000 C 
ATOM     28  C   UNL     1       4.407   3.710  17.274  0.00  0.00    +0.000 C 
BRANCH  27  29
ATOM     29  C   UNL     1       1.995   3.602  17.876  0.00  0.00    +0.000 C 
BRANCH  29  30
ATOM     30  C   UNL     1       1.436   2.384  18.593  0.00  0.00    +0.000 C 
BRANCH  30  31
ATOM     31  C   UNL     1       0.566   2.828  19.768  0.00  0.00    +0.000 C 
BRANCH  31  33
ATOM     32  C   UNL     1       2.178   3.239  21.645  0.00  0.00    +0.000 C 
ATOM     33  C   UNL     1       1.281   3.882  20.602  0.00  0.00    +0.000 C 
ENDBRANCH  31  33
ENDBRANCH  30  31
ENDBRANCH  29  30
ENDBRANCH  27  29
ENDBRANCH  26  28
ENDBRANCH  24  26
ENDBRANCH  23  25
ENDBRANCH  22  23
ENDBRANCH  21  22
ENDBRANCH  20  21
ENDBRANCH  19  20
ENDBRANCH  18  19
ENDBRANCH   1  18
TORSDOF 17
ENDMDL
MODEL 7
REMARK VINA RESULT:      -6.5      2.073      9.846
REMARK  Name = 
REMARK  18 active torsions:
REMARK  status: ('A' for Active; 'I' for Inactive)
REMARK    1  A    between atoms: C_1  and  C_2
REMARK    2  A    between atoms: C_2  and  C_3
REMARK    3  A    between atoms: C_3  and  C_4
REMARK    4  A    between atoms: C_4  and  C_5
REMARK    5  A    between atoms: C_5  and  C_6
REMARK    6  A    between atoms: C_7  and  C_8
REMARK    7  A    between atoms: C_8  and  C_9
REMARK    8  A    between atoms: C_10  and  C_11
REMARK    9  A    between atoms: C_11  and  C_12
REMARK   10  A    between atoms: C_12  and  C_13
REMARK   11  A    between atoms: C_13  and  C_14
REMARK   12  A    between atoms: C_14  and  C_15
REMARK   13  A    between atoms: C_15  and  C_16
REMARK   14  A    between atoms: C_16  and  C_17
REMARK   15  A    between atoms: C_17  and  C_18
REMARK   16  A    between atoms: N_20  and  C_21
REMARK   17  A    between atoms: C_21  and  C_22
REMARK   18  A    between atoms: C_22  and  C_23
REMARK                            x       y       z     vdW  Elec       q    Type
REMARK                         _______ _______ _______ _____ _____    ______ ____
ROOT
ATOM      1  C   UNL     1       1.996   6.849  19.484  0.00  0.00    +0.000 C 
ENDROOT
BRANCH   1   2
ATOM      2  C   UNL     1       1.816   5.348  19.596  0.00  0.00    +0.000 C 
ATOM      3  O   UNL     1       1.804   4.745  20.664  0.00  0.00    +0.000 OA
ATOM      4  N   UNL     1       1.667   4.717  18.383  0.00  0.00    +0.000 N 
ATOM      5  H   UNL     1       1.551   5.264  17.536  0.00  0.00    +0.000 HD
BRANCH   4   6
ATOM      6  C   UNL     1       1.403   3.291  18.354  0.00  0.00    +0.000 C 
BRANCH   6   7
ATOM      7  C   UNL     1       2.609   2.446  17.954  0.00  0.00    +0.000 C 
BRANCH   7   8
ATOM      8  C   UNL     1       3.919   3.118  18.251  0.00  0.00    +0.000 A 
ATOM      9  C   UNL     1       4.602   3.102  19.452  0.00  0.00    +0.000 A 
ATOM     10  N   UNL     1       5.756   3.819  19.300  0.00  0.00    +0.000 N 
ATOM     11  C   UNL     1       5.836   4.328  18.027  0.00  0.00    +0.000 A 
ATOM     12  C   UNL     1       6.820   5.131  17.434  0.00  0.00    +0.000 A 
ATOM     13  C   UNL     1       6.630   5.513  16.105  0.00  0.00    +0.000 A 
ATOM     14  C   UNL     1       5.503   5.103  15.393  0.00  0.00    +0.000 A 
ATOM     15  C   UNL     1       4.534   4.297  15.998  0.00  0.00    +0.000 A 
ATOM     16  C   UNL     1       4.697   3.905  17.343  0.00  0.00    +0.000 A 
ATOM     17  H   UNL     1       6.457   3.958  20.017  0.00  0.00    +0.000 HD
ENDBRANCH   7   8
ENDBRANCH   6   7
ENDBRANCH   4   6
ENDBRANCH   1   2
BRANCH   1  18
ATOM     18  C   UNL     1       2.933   7.179  18.330  0.00  0.00    +0.000 C 
BRANCH  18  19
ATOM     19  C   UNL     1       2.566   8.492  17.646  0.00  0.00    +0.000 C 
BRANCH  19  20
ATOM     20  C   UNL     1       1.309   9.059  18.291  0.00  0.00    +0.000 C 
BRANCH  20  21
ATOM     21  C   UNL     1       1.431  10.554  18.585  0.00  0.00    +0.000 C 
BRANCH  21  22
ATOM     22  C   UNL     1       1.058  10.889  20.032  0.00  0.00    +0.000 C 
BRANCH  22  23
ATOM     23  C   UNL     1      -0.452  10.991  20.198  0.00  0.00    +0.000 C 
BRANCH  23  25
ATOM     24  C   UNL     1      -1.832  12.061  18.442  0.00  0.00    +0.000 C 
ATOM     25  C   UNL     1      -1.064  12.185  19.536  0.00  0.00    +0.000 C 
BRANCH  24  26
ATOM     26  C   UNL     1      -2.134  10.750  17.777  0.00  0.00    +0.000 C 
BRANCH  26  28
ATOM     27  C   UNL     1      -4.208  11.015  16.397  0.00  0.00    +0.000 C 
ATOM     28  C   UNL     1      -2.872  10.933  16.486  0.00  0.00    +0.000 C 
BRANCH  27  29
ATOM     29  C   UNL     1      -5.098  10.894  17.597  0.00  0.00    +0.000 C 
BRANCH  29  30
ATOM     30  C   UNL     1      -5.480  12.239  18.194  0.00  0.00    +0.000 C 
BRANCH  30  31
ATOM     31  C   UNL     1      -5.493  12.146  19.719  0.00  0.00    +0.000 C 
BRANCH  31  33
ATOM     32  C   UNL     1      -4.060  12.854  21.652  0.00  0.00    +0.000 C 
ATOM     33  C   UNL     1      -4.684  13.279  20.335  0.00  0.00    +0.000 C 
ENDBRANCH  31  33
ENDBRANCH  30  31
ENDBRANCH  29  30
ENDBRANCH  27  29
ENDBRANCH  26  28
ENDBRANCH  24  26
ENDBRANCH  23  25
ENDBRANCH  22  23
ENDBRANCH  21  22
ENDBRANCH  20  21
ENDBRANCH  19  20
ENDBRANCH  18  19
ENDBRANCH   1  18
TORSDOF 17
ENDMDL
MODEL 8
REMARK VINA RESULT:      -6.4      5.142      8.304
REMARK  Name = 
REMARK  18 active torsions:
REMARK  status: ('A' for Active; 'I' for Inactive)
REMARK    1  A    between atoms: C_1  and  C_2
REMARK    2  A    between atoms: C_2  and  C_3
REMARK    3  A    between atoms: C_3  and  C_4
REMARK    4  A    between atoms: C_4  and  C_5
REMARK    5  A    between atoms: C_5  and  C_6
REMARK    6  A    between atoms: C_7  and  C_8
REMARK    7  A    between atoms: C_8  and  C_9
REMARK    8  A    between atoms: C_10  and  C_11
REMARK    9  A    between atoms: C_11  and  C_12
REMARK   10  A    between atoms: C_12  and  C_13
REMARK   11  A    between atoms: C_13  and  C_14
REMARK   12  A    between atoms: C_14  and  C_15
REMARK   13  A    between atoms: C_15  and  C_16
REMARK   14  A    between atoms: C_16  and  C_17
REMARK   15  A    between atoms: C_17  and  C_18
REMARK   16  A    between atoms: N_20  and  C_21
REMARK   17  A    between atoms: C_21  and  C_22
REMARK   18  A    between atoms: C_22  and  C_23
REMARK                            x       y       z     vdW  Elec       q    Type
REMARK                         _______ _______ _______ _____ _____    ______ ____
ROOT
ATOM      1  C   UNL     1       7.637   6.171  18.653  0.00  0.00    +0.000 C 
ENDROOT
BRANCH   1   2
ATOM      2  C   UNL     1       7.865   7.534  18.028  0.00  0.00    +0.000 C 
ATOM      3  O   UNL     1       7.466   7.842  16.910  0.00  0.00    +0.000 OA
ATOM      4  N   UNL     1       8.569   8.400  18.833  0.00  0.00    +0.000 N 
ATOM      5  H   UNL     1       8.766   8.151  19.796  0.00  0.00    +0.000 HD
BRANCH   4   6
ATOM      6  C   UNL     1       8.783   9.763  18.387  0.00  0.00    +0.000 C 
BRANCH   6   7
ATOM      7  C   UNL     1       9.796  10.537  19.226  0.00  0.00    +0.000 C 
BRANCH   7   8
ATOM      8  C   UNL     1       9.443  11.989  19.376  0.00  0.00    +0.000 A 
ATOM      9  C   UNL     1       9.358  12.927  18.365  0.00  0.00    +0.000 A 
ATOM     10  N   UNL     1       8.995  14.124  18.918  0.00  0.00    +0.000 N 
ATOM     11  C   UNL     1       8.863  13.999  20.279  0.00  0.00    +0.000 A 
ATOM     12  C   UNL     1       8.530  14.955  21.248  0.00  0.00    +0.000 A 
ATOM     13  C   UNL     1       8.480  14.540  22.579  0.00  0.00    +0.000 A 
ATOM     14  C   UNL     1       8.745  13.216  22.929  0.00  0.00    +0.000 A 
ATOM     15  C   UNL     1       9.069  12.273  21.949  0.00  0.00    +0.000 A 
ATOM     16  C   UNL     1       9.137  12.669  20.598  0.00  0.00    +0.000 A 
ATOM     17  H   UNL     1       8.843  14.983  18.405  0.00  0.00    +0.000 HD
ENDBRANCH   7   8
ENDBRANCH   6   7
ENDBRANCH   4   6
ENDBRANCH   1   2
BRANCH   1  18
ATOM     18  C   UNL     1       7.657   5.092  17.579  0.00  0.00    +0.000 C 
BRANCH  18  19
ATOM     19  C   UNL     1       6.705   5.405  16.429  0.00  0.00    +0.000 C 
BRANCH  19  20
ATOM     20  C   UNL     1       6.422   4.127  15.651  0.00  0.00    +0.000 C 
BRANCH  20  21
ATOM     21  C   UNL     1       4.946   3.733  15.703  0.00  0.00    +0.000 C 
BRANCH  21  22
ATOM     22  C   UNL     1       4.228   4.345  16.909  0.00  0.00    +0.000 C 
BRANCH  22  23
ATOM     23  C   UNL     1       4.027   3.312  18.008  0.00  0.00    +0.000 C 
BRANCH  23  25
ATOM     24  C   UNL     1       2.203   1.699  18.462  0.00  0.00    +0.000 C 
ATOM     25  C   UNL     1       3.141   2.170  17.624  0.00  0.00    +0.000 C 
BRANCH  24  26
ATOM     26  C   UNL     1       1.964   2.244  19.840  0.00  0.00    +0.000 C 
BRANCH  26  28
ATOM     27  C   UNL     1       1.080   4.538  20.321  0.00  0.00    +0.000 C 
ATOM     28  C   UNL     1       0.897   3.296  19.849  0.00  0.00    +0.000 C 
BRANCH  27  29
ATOM     29  C   UNL     1       2.380   4.982  20.923  0.00  0.00    +0.000 C 
BRANCH  29  30
ATOM     30  C   UNL     1       3.150   5.944  20.035  0.00  0.00    +0.000 C 
BRANCH  30  31
ATOM     31  C   UNL     1       2.229   7.072  19.570  0.00  0.00    +0.000 C 
BRANCH  31  33
ATOM     32  C   UNL     1       2.058   8.818  17.778  0.00  0.00    +0.000 C 
ATOM     33  C   UNL     1       2.469   7.393  18.101  0.00  0.00    +0.000 C 
ENDBRANCH  31  33
ENDBRANCH  30  31
ENDBRANCH  29  30
ENDBRANCH  27  29
ENDBRANCH  26  28
ENDBRANCH  24  26
ENDBRANCH  23  25
ENDBRANCH  22  23
ENDBRANCH  21  22
ENDBRANCH  20  21
ENDBRANCH  19  20
ENDBRANCH  18  19
ENDBRANCH   1  18
TORSDOF 17
ENDMDL
MODEL 9
REMARK VINA RESULT:      -6.4      1.821      2.876
REMARK  Name = 
REMARK  18 active torsions:
REMARK  status: ('A' for Active; 'I' for Inactive)
REMARK    1  A    between atoms: C_1  and  C_2
REMARK    2  A    between atoms: C_2  and  C_3
REMARK    3  A    between atoms: C_3  and  C_4
REMARK    4  A    between atoms: C_4  and  C_5
REMARK    5  A    between atoms: C_5  and  C_6
REMARK    6  A    between atoms: C_7  and  C_8
REMARK    7  A    between atoms: C_8  and  C_9
REMARK    8  A    between atoms: C_10  and  C_11
REMARK    9  A    between atoms: C_11  and  C_12
REMARK   10  A    between atoms: C_12  and  C_13
REMARK   11  A    between atoms: C_13  and  C_14
REMARK   12  A    between atoms: C_14  and  C_15
REMARK   13  A    between atoms: C_15  and  C_16
REMARK   14  A    between atoms: C_16  and  C_17
REMARK   15  A    between atoms: C_17  and  C_18
REMARK   16  A    between atoms: N_20  and  C_21
REMARK   17  A    between atoms: C_21  and  C_22
REMARK   18  A    between atoms: C_22  and  C_23
REMARK                            x       y       z     vdW  Elec       q    Type
REMARK                         _______ _______ _______ _____ _____    ______ ____
ROOT
ATOM      1  C   UNL     1       1.342   8.187  17.928  0.00  0.00    +0.000 C 
ENDROOT
BRANCH   1   2
ATOM      2  C   UNL     1       0.949   9.585  18.362  0.00  0.00    +0.000 C 
ATOM      3  O   UNL     1       1.661  10.305  19.053  0.00  0.00    +0.000 OA
ATOM      4  N   UNL     1      -0.290   9.976  17.911  0.00  0.00    +0.000 N 
ATOM      5  H   UNL     1      -0.789   9.405  17.236  0.00  0.00    +0.000 HD
BRANCH   4   6
ATOM      6  C   UNL     1      -0.751  11.323  18.187  0.00  0.00    +0.000 C 
BRANCH   6   7
ATOM      7  C   UNL     1      -2.168  11.606  17.698  0.00  0.00    +0.000 C 
BRANCH   7   8
ATOM      8  C   UNL     1      -3.112  11.961  18.812  0.00  0.00    +0.000 A 
ATOM      9  C   UNL     1      -2.774  12.484  20.045  0.00  0.00    +0.000 A 
ATOM     10  N   UNL     1      -3.924  12.678  20.760  0.00  0.00    +0.000 N 
ATOM     11  C   UNL     1      -5.012  12.270  20.029  0.00  0.00    +0.000 A 
ATOM     12  C   UNL     1      -6.374  12.263  20.362  0.00  0.00    +0.000 A 
ATOM     13  C   UNL     1      -7.270  11.773  19.412  0.00  0.00    +0.000 A 
ATOM     14  C   UNL     1      -6.826  11.314  18.172  0.00  0.00    +0.000 A 
ATOM     15  C   UNL     1      -5.464  11.334  17.854  0.00  0.00    +0.000 A 
ATOM     16  C   UNL     1      -4.536  11.814  18.800  0.00  0.00    +0.000 A 
ATOM     17  H   UNL     1      -3.973  13.067  21.693  0.00  0.00    +0.000 HD
ENDBRANCH   7   8
ENDBRANCH   6   7
ENDBRANCH   4   6
ENDBRANCH   1   2
BRANCH   1  18
ATOM     18  C   UNL     1       2.838   7.979  18.120  0.00  0.00    +0.000 C 
BRANCH  18  19
ATOM     19  C   UNL     1       3.145   7.058  19.296  0.00  0.00    +0.000 C 
BRANCH  19  20
ATOM     20  C   UNL     1       1.840   6.520  19.867  0.00  0.00    +0.000 C 
BRANCH  20  21
ATOM     21  C   UNL     1       2.030   5.190  20.595  0.00  0.00    +0.000 C 
BRANCH  21  22
ATOM     22  C   UNL     1       0.896   4.205  20.299  0.00  0.00    +0.000 C 
BRANCH  22  23
ATOM     23  C   UNL     1       1.324   3.172  19.265  0.00  0.00    +0.000 C 
BRANCH  23  25
ATOM     24  C   UNL     1       2.868   3.716  17.406  0.00  0.00    +0.000 C 
ATOM     25  C   UNL     1       1.625   3.741  17.915  0.00  0.00    +0.000 C 
BRANCH  24  26
ATOM     26  C   UNL     1       4.054   3.144  18.126  0.00  0.00    +0.000 C 
BRANCH  26  28
ATOM     27  C   UNL     1       5.993   4.726  17.990  0.00  0.00    +0.000 C 
ATOM     28  C   UNL     1       4.952   4.215  18.666  0.00  0.00    +0.000 C 
BRANCH  27  29
ATOM     29  C   UNL     1       6.377   4.237  16.626  0.00  0.00    +0.000 C 
BRANCH  29  30
ATOM     30  C   UNL     1       5.771   5.065  15.504  0.00  0.00    +0.000 C 
BRANCH  30  31
ATOM     31  C   UNL     1       6.484   4.758  14.189  0.00  0.00    +0.000 C 
BRANCH  31  33
ATOM     32  C   UNL     1       6.447   3.319  12.135  0.00  0.00    +0.000 C 
ATOM     33  C   UNL     1       5.657   3.806  13.336  0.00  0.00    +0.000 C 
ENDBRANCH  31  33
ENDBRANCH  30  31
ENDBRANCH  29  30
ENDBRANCH  27  29
ENDBRANCH  26  28
ENDBRANCH  24  26
ENDBRANCH  23  25
ENDBRANCH  22  23
ENDBRANCH  21  22
ENDBRANCH  20  21
ENDBRANCH  19  20
ENDBRANCH  18  19
ENDBRANCH   1  18
TORSDOF 17
ENDMDL
