MODEL 1
REMARK VINA RESULT:      -6.5      0.000      0.000
REMARK  Name = 
REMARK  4 active torsions:
REMARK  status: ('A' for Active; 'I' for Inactive)
REMARK    1  A    between atoms: C_1  and  C_2
REMARK    2  A    between atoms: C_2  and  C_3
REMARK    3  A    between atoms: C_7  and  C_8
REMARK    4  A    between atoms: N_12  and  C_13
REMARK                            x       y       z     vdW  Elec       q    Type
REMARK                         _______ _______ _______ _____ _____    ______ ____
ROOT
ATOM      1  C   UNL     1       6.319   4.564  16.050  0.00  0.00    +0.000 A 
ATOM      2  C   UNL     1       7.128   4.609  17.179  0.00  0.00    +0.000 A 
ATOM      3  N   UNL     1       6.679   4.439  18.442  0.00  0.00    +0.000 NA
ATOM      4  C   UNL     1       5.354   4.209  18.586  0.00  0.00    +0.000 A 
ATOM      5  C   UNL     1       4.445   4.148  17.535  0.00  0.00    +0.000 A 
ATOM      6  C   UNL     1       4.957   4.328  16.244  0.00  0.00    +0.000 A 
ENDROOT
BRANCH   5   7
ATOM      7  C   UNL     1       2.986   3.884  17.796  0.00  0.00    +0.000 C 
ATOM      8  C   UNL     1       2.648   2.389  17.844  0.00  0.00    +0.000 C 
ATOM      9  C   UNL     1       1.437   2.288  18.764  0.00  0.00    +0.000 C 
ATOM     10  C   UNL     1       1.209   3.698  19.287  0.00  0.00    +0.000 C 
ATOM     11  N   UNL     1       2.512   4.345  19.114  0.00  0.00    +0.000 NA
ATOM     12  C   UNL     1       2.412   5.797  19.211  0.00  0.00    +0.000 C 
ENDBRANCH   5   7
BRANCH   1  14
ATOM     13  C   UNL     1       6.079   3.903  13.658  0.00  0.00    +0.000 C 
ATOM     14  C   UNL     1       6.893   4.696  14.669  0.00  0.00    +0.000 C 
ENDBRANCH   1  14
TORSDOF 2
ENDMDL
MODEL 2
REMARK VINA RESULT:      -6.5      1.003      1.707
REMARK  Name = 
REMARK  4 active torsions:
REMARK  status: ('A' for Active; 'I' for Inactive)
REMARK    1  A    between atoms: C_1  and  C_2
REMARK    2  A    between atoms: C_2  and  C_3
REMARK    3  A    between atoms: C_7  and  C_8
REMARK    4  A    between atoms: N_12  and  C_13
REMARK                            x       y       z     vdW  Elec       q    Type
REMARK                         _______ _______ _______ _____ _____    ______ ____
ROOT
ATOM      1  C   UNL     1       6.615   4.573  16.306  0.00  0.00    +0.000 A 
ATOM      2  C   UNL     1       7.536   4.775  17.328  0.00  0.00    +0.000 A 
ATOM      3  N   UNL     1       7.234   4.718  18.643  0.00  0.00    +0.000 NA
ATOM      4  C   UNL     1       5.947   4.440  18.957  0.00  0.00    +0.000 A 
ATOM      5  C   UNL     1       4.937   4.226  18.025  0.00  0.00    +0.000 A 
ATOM      6  C   UNL     1       5.298   4.292  16.673  0.00  0.00    +0.000 A 
ENDROOT
BRANCH   5   7
ATOM      7  C   UNL     1       3.532   3.920  18.472  0.00  0.00    +0.000 C 
ATOM      8  C   UNL     1       2.499   4.906  17.915  0.00  0.00    +0.000 C 
ATOM      9  C   UNL     1       1.199   4.114  17.838  0.00  0.00    +0.000 C 
ATOM     10  C   UNL     1       1.568   2.695  18.240  0.00  0.00    +0.000 C 
ATOM     11  N   UNL     1       3.010   2.628  17.988  0.00  0.00    +0.000 NA
ATOM     12  C   UNL     1       3.621   1.480  18.649  0.00  0.00    +0.000 C 
ENDBRANCH   5   7
BRANCH   1  14
ATOM     13  C   UNL     1       5.940   4.011  13.973  0.00  0.00    +0.000 C 
ATOM     14  C   UNL     1       7.031   4.586  14.863  0.00  0.00    +0.000 C 
ENDBRANCH   1  14
TORSDOF 2
ENDMDL
MODEL 3
REMARK VINA RESULT:      -6.4      1.603      1.949
REMARK  Name = 
REMARK  4 active torsions:
REMARK  status: ('A' for Active; 'I' for Inactive)
REMARK    1  A    between atoms: C_1  and  C_2
REMARK    2  A    between atoms: C_2  and  C_3
REMARK    3  A    between atoms: C_7  and  C_8
REMARK    4  A    between atoms: N_12  and  C_13
REMARK                            x       y       z     vdW  Elec       q    Type
REMARK                         _______ _______ _______ _____ _____    ______ ____
ROOT
ATOM      1  C   UNL     1       5.242   4.766  15.771  0.00  0.00    +0.000 A 
ATOM      2  C   UNL     1       5.540   6.088  16.079  0.00  0.00    +0.000 A 
ATOM      3  N   UNL     1       5.020   6.757  17.132  0.00  0.00    +0.000 NA
ATOM      4  C   UNL     1       4.161   6.070  17.920  0.00  0.00    +0.000 A 
ATOM      5  C   UNL     1       3.782   4.749  17.709  0.00  0.00    +0.000 A 
ATOM      6  C   UNL     1       4.349   4.095  16.608  0.00  0.00    +0.000 A 
ENDROOT
BRANCH   5   7
ATOM      7  C   UNL     1       2.820   4.067  18.646  0.00  0.00    +0.000 C 
ATOM      8  C   UNL     1       1.420   3.895  18.043  0.00  0.00    +0.000 C 
ATOM      9  C   UNL     1       0.846   2.659  18.727  0.00  0.00    +0.000 C 
ATOM     10  C   UNL     1       1.973   2.119  19.594  0.00  0.00    +0.000 C 
ATOM     11  N   UNL     1       3.180   2.676  18.979  0.00  0.00    +0.000 NA
ATOM     12  C   UNL     1       4.333   2.581  19.868  0.00  0.00    +0.000 C 
ENDBRANCH   5   7
BRANCH   1  14
ATOM     13  C   UNL     1       7.052   4.889  14.061  0.00  0.00    +0.000 C 
ATOM     14  C   UNL     1       5.906   4.061  14.623  0.00  0.00    +0.000 C 
ENDBRANCH   1  14
TORSDOF 2
ENDMDL
MODEL 4
REMARK VINA RESULT:      -6.3      1.783      2.737
REMARK  Name = 
REMARK  4 active torsions:
REMARK  status: ('A' for Active; 'I' for Inactive)
REMARK    1  A    between atoms: C_1  and  C_2
REMARK    2  A    between atoms: C_2  and  C_3
REMARK    3  A    between atoms: C_7  and  C_8
REMARK    4  A    between atoms: N_12  and  C_13
REMARK                            x       y       z     vdW  Elec       q    Type
REMARK                         _______ _______ _______ _____ _____    ______ ____
ROOT
ATOM      1  C   UNL     1       6.769   5.778  17.673  0.00  0.00    +0.000 A 
ATOM      2  C   UNL     1       6.882   5.271  16.384  0.00  0.00    +0.000 A 
ATOM      3  N   UNL     1       5.979   4.445  15.812  0.00  0.00    +0.000 NA
ATOM      4  C   UNL     1       4.904   4.111  16.564  0.00  0.00    +0.000 A 
ATOM      5  C   UNL     1       4.686   4.550  17.865  0.00  0.00    +0.000 A 
ATOM      6  C   UNL     1       5.648   5.406  18.416  0.00  0.00    +0.000 A 
ENDROOT
BRANCH   5   7
ATOM      7  C   UNL     1       3.455   4.124  18.623  0.00  0.00    +0.000 C 
ATOM      8  C   UNL     1       2.165   4.299  17.814  0.00  0.00    +0.000 C 
ATOM      9  C   UNL     1       1.212   3.241  18.358  0.00  0.00    +0.000 C 
ATOM     10  C   UNL     1       2.029   2.441  19.361  0.00  0.00    +0.000 C 
ATOM     11  N   UNL     1       3.414   2.687  18.953  0.00  0.00    +0.000 NA
ATOM     12  C   UNL     1       4.360   2.313  19.999  0.00  0.00    +0.000 C 
ENDBRANCH   5   7
BRANCH   1  14
ATOM     13  C   UNL     1       7.689   8.091  17.522  0.00  0.00    +0.000 C 
ATOM     14  C   UNL     1       7.778   6.745  18.225  0.00  0.00    +0.000 C 
ENDBRANCH   1  14
TORSDOF 2
ENDMDL
MODEL 5
REMARK VINA RESULT:      -6.3      1.541      2.153
REMARK  Name = 
REMARK  4 active torsions:
REMARK  status: ('A' for Active; 'I' for Inactive)
REMARK    1  A    between atoms: C_1  and  C_2
REMARK    2  A    between atoms: C_2  and  C_3
REMARK    3  A    between atoms: C_7  and  C_8
REMARK    4  A    between atoms: N_12  and  C_13
REMARK                            x       y       z     vdW  Elec       q    Type
REMARK                         _______ _______ _______ _____ _____    ______ ____
ROOT
ATOM      1  C   UNL     1       5.769   4.472  15.625  0.00  0.00    +0.000 A 
ATOM      2  C   UNL     1       7.132   4.526  15.896  0.00  0.00    +0.000 A 
ATOM      3  N   UNL     1       7.654   4.659  17.135  0.00  0.00    +0.000 NA
ATOM      4  C   UNL     1       6.771   4.738  18.158  0.00  0.00    +0.000 A 
ATOM      5  C   UNL     1       5.388   4.701  18.010  0.00  0.00    +0.000 A 
ATOM      6  C   UNL     1       4.893   4.560  16.708  0.00  0.00    +0.000 A 
ENDROOT
BRANCH   5   7
ATOM      7  C   UNL     1       4.486   4.794  19.212  0.00  0.00    +0.000 C 
ATOM      8  C   UNL     1       3.454   5.922  19.099  0.00  0.00    +0.000 C 
ATOM      9  C   UNL     1       2.268   5.458  19.938  0.00  0.00    +0.000 C 
ATOM     10  C   UNL     1       2.624   4.050  20.393  0.00  0.00    +0.000 C 
ATOM     11  N   UNL     1       3.624   3.614  19.416  0.00  0.00    +0.000 NA
ATOM     12  C   UNL     1       4.359   2.443  19.881  0.00  0.00    +0.000 C 
ENDBRANCH   5   7
BRANCH   1  14
ATOM     13  C   UNL     1       6.384   3.865  13.286  0.00  0.00    +0.000 C 
ATOM     14  C   UNL     1       5.257   4.257  14.230  0.00  0.00    +0.000 C 
ENDBRANCH   1  14
TORSDOF 2
ENDMDL
MODEL 6
REMARK VINA RESULT:      -6.3      1.272      1.390
REMARK  Name = 
REMARK  4 active torsions:
REMARK  status: ('A' for Active; 'I' for Inactive)
REMARK    1  A    between atoms: C_1  and  C_2
REMARK    2  A    between atoms: C_2  and  C_3
REMARK    3  A    between atoms: C_7  and  C_8
REMARK    4  A    between atoms: N_12  and  C_13
REMARK                            x       y       z     vdW  Elec       q    Type
REMARK                         _______ _______ _______ _____ _____    ______ ____
ROOT
ATOM      1  C   UNL     1       5.744   4.251  16.232  0.00  0.00    +0.000 A 
ATOM      2  C   UNL     1       6.890   4.516  16.972  0.00  0.00    +0.000 A 
ATOM      3  N   UNL     1       6.917   4.620  18.319  0.00  0.00    +0.000 NA
ATOM      4  C   UNL     1       5.740   4.445  18.962  0.00  0.00    +0.000 A 
ATOM      5  C   UNL     1       4.528   4.182  18.331  0.00  0.00    +0.000 A 
ATOM      6  C   UNL     1       4.549   4.081  16.935  0.00  0.00    +0.000 A 
ENDROOT
BRANCH   5   7
ATOM      7  C   UNL     1       3.268   4.000  19.135  0.00  0.00    +0.000 C 
ATOM      8  C   UNL     1       3.310   2.765  20.043  0.00  0.00    +0.000 C 
ATOM      9  C   UNL     1       2.393   3.104  21.213  0.00  0.00    +0.000 C 
ATOM     10  C   UNL     1       1.963   4.545  20.983  0.00  0.00    +0.000 C 
ATOM     11  N   UNL     1       3.006   5.081  20.105  0.00  0.00    +0.000 NA
ATOM     12  C   UNL     1       2.592   6.329  19.473  0.00  0.00    +0.000 C 
ENDBRANCH   5   7
BRANCH   1  14
ATOM     13  C   UNL     1       6.979   4.832  14.146  0.00  0.00    +0.000 C 
ATOM     14  C   UNL     1       5.796   4.084  14.741  0.00  0.00    +0.000 C 
ENDBRANCH   1  14
TORSDOF 2
ENDMDL
MODEL 7
REMARK VINA RESULT:      -6.3      1.172      1.593
REMARK  Name = 
REMARK  4 active torsions:
REMARK  status: ('A' for Active; 'I' for Inactive)
REMARK    1  A    between atoms: C_1  and  C_2
REMARK    2  A    between atoms: C_2  and  C_3
REMARK    3  A    between atoms: C_7  and  C_8
REMARK    4  A    between atoms: N_12  and  C_13
REMARK                            x       y       z     vdW  Elec       q    Type
REMARK                         _______ _______ _______ _____ _____    ______ ____
ROOT
ATOM      1  C   UNL     1       5.989   4.229  15.608  0.00  0.00    +0.000 A 
ATOM      2  C   UNL     1       7.118   4.625  16.315  0.00  0.00    +0.000 A 
ATOM      3  N   UNL     1       7.150   4.812  17.653  0.00  0.00    +0.000 NA
ATOM      4  C   UNL     1       5.995   4.588  18.321  0.00  0.00    +0.000 A 
ATOM      5  C   UNL     1       4.802   4.196  17.724  0.00  0.00    +0.000 A 
ATOM      6  C   UNL     1       4.817   4.012  16.336  0.00  0.00    +0.000 A 
ENDROOT
BRANCH   5   7
ATOM      7  C   UNL     1       3.566   3.968  18.555  0.00  0.00    +0.000 C 
ATOM      8  C   UNL     1       2.269   4.215  17.777  0.00  0.00    +0.000 C 
ATOM      9  C   UNL     1       1.233   3.313  18.441  0.00  0.00    +0.000 C 
ATOM     10  C   UNL     1       2.003   2.515  19.481  0.00  0.00    +0.000 C 
ATOM     11  N   UNL     1       3.388   2.576  19.008  0.00  0.00    +0.000 NA
ATOM     12  C   UNL     1       4.332   2.189  20.051  0.00  0.00    +0.000 C 
ENDBRANCH   5   7
BRANCH   1  14
ATOM     13  C   UNL     1       7.147   4.785  13.472  0.00  0.00    +0.000 C 
ATOM     14  C   UNL     1       6.039   3.976  14.129  0.00  0.00    +0.000 C 
ENDBRANCH   1  14
TORSDOF 2
ENDMDL
MODEL 8
REMARK VINA RESULT:      -6.2      2.428      3.196
REMARK  Name = 
REMARK  4 active torsions:
REMARK  status: ('A' for Active; 'I' for Inactive)
REMARK    1  A    between atoms: C_1  and  C_2
REMARK    2  A    between atoms: C_2  and  C_3
REMARK    3  A    between atoms: C_7  and  C_8
REMARK    4  A    between atoms: N_12  and  C_13
REMARK                            x       y       z     vdW  Elec       q    Type
REMARK                         _______ _______ _______ _____ _____    ______ ____
ROOT
ATOM      1  C   UNL     1       6.183   6.083  18.199  0.00  0.00    +0.000 A 
ATOM      2  C   UNL     1       5.431   6.746  17.237  0.00  0.00    +0.000 A 
ATOM      3  N   UNL     1       4.103   6.576  17.061  0.00  0.00    +0.000 NA
ATOM      4  C   UNL     1       3.491   5.700  17.892  0.00  0.00    +0.000 A 
ATOM      5  C   UNL     1       4.137   4.975  18.887  0.00  0.00    +0.000 A 
ATOM      6  C   UNL     1       5.513   5.186  19.033  0.00  0.00    +0.000 A 
ENDROOT
BRANCH   5   7
ATOM      7  C   UNL     1       3.368   4.023  19.766  0.00  0.00    +0.000 C 
ATOM      8  C   UNL     1       2.234   4.707  20.538  0.00  0.00    +0.000 C 
ATOM      9  C   UNL     1       1.194   3.615  20.762  0.00  0.00    +0.000 C 
ATOM     10  C   UNL     1       1.721   2.399  20.015  0.00  0.00    +0.000 C 
ATOM     11  N   UNL     1       2.642   2.971  19.030  0.00  0.00    +0.000 NA
ATOM     12  C   UNL     1       3.525   1.957  18.463  0.00  0.00    +0.000 C 
ENDBRANCH   5   7
BRANCH   1  14
ATOM     13  C   UNL     1       7.987   7.786  17.951  0.00  0.00    +0.000 C 
ATOM     14  C   UNL     1       7.646   6.368  18.384  0.00  0.00    +0.000 C 
ENDBRANCH   1  14
TORSDOF 2
ENDMDL
MODEL 9
REMARK VINA RESULT:      -6.2      1.659      2.785
REMARK  Name = 
REMARK  4 active torsions:
REMARK  status: ('A' for Active; 'I' for Inactive)
REMARK    1  A    between atoms: C_1  and  C_2
REMARK    2  A    between atoms: C_2  and  C_3
REMARK    3  A    between atoms: C_7  and  C_8
REMARK    4  A    between atoms: N_12  and  C_13
REMARK                            x       y       z     vdW  Elec       q    Type
REMARK                         _______ _______ _______ _____ _____    ______ ____
ROOT
ATOM      1  C   UNL     1       5.830   4.317  14.186  0.00  0.00    +0.000 A 
ATOM      2  C   UNL     1       7.126   4.807  14.302  0.00  0.00    +0.000 A 
ATOM      3  N   UNL     1       7.594   5.467  15.384  0.00  0.00    +0.000 NA
ATOM      4  C   UNL     1       6.725   5.644  16.406  0.00  0.00    +0.000 A 
ATOM      5  C   UNL     1       5.405   5.205  16.404  0.00  0.00    +0.000 A 
ATOM      6  C   UNL     1       4.965   4.524  15.262  0.00  0.00    +0.000 A 
ENDROOT
BRANCH   5   7
ATOM      7  C   UNL     1       4.513   5.448  17.593  0.00  0.00    +0.000 C 
ATOM      8  C   UNL     1       3.800   6.804  17.539  0.00  0.00    +0.000 C 
ATOM      9  C   UNL     1       2.508   6.601  18.323  0.00  0.00    +0.000 C 
ATOM     10  C   UNL     1       2.485   5.125  18.687  0.00  0.00    +0.000 C 
ATOM     11  N   UNL     1       3.378   4.512  17.701  0.00  0.00    +0.000 NA
ATOM     12  C   UNL     1       3.781   3.167  18.099  0.00  0.00    +0.000 C 
ENDBRANCH   5   7
BRANCH   1  14
ATOM     13  C   UNL     1       6.545   3.345  12.004  0.00  0.00    +0.000 C 
ATOM     14  C   UNL     1       5.394   3.535  12.981  0.00  0.00    +0.000 C 
ENDBRANCH   1  14
TORSDOF 2
ENDMDL
