MODEL 1
REMARK VINA RESULT:      -7.4      0.000      0.000
REMARK  Name = 
REMARK  9 active torsions:
REMARK  status: ('A' for Active; 'I' for Inactive)
REMARK    1  A    between atoms: C_1  and  O_2
REMARK    2  A    between atoms: O_2  and  C_3
REMARK    3  A    between atoms: C_8  and  C_9
REMARK    4  A    between atoms: C_9  and  O_11
REMARK    5  A    between atoms: O_11  and  C_12
REMARK    6  A    between atoms: C_14  and  C_15
REMARK    7  A    between atoms: C_18  and  C_19
REMARK    8  A    between atoms: C_19  and  C_20
REMARK    9  A    between atoms: C_19  and  C_21
REMARK                            x       y       z     vdW  Elec       q    Type
REMARK                         _______ _______ _______ _____ _____    ______ ____
ROOT
ATOM      1  O   UNL     1       4.539   4.262  19.236  0.00  0.00    +0.000 OA
ENDROOT
BRANCH   1   2
ATOM      2  C   UNL     1       3.545   5.203  19.720  0.00  0.00    +0.000 C 
ATOM      3  C   UNL     1       2.502   4.499  20.603  0.00  0.00    +0.000 C 
ATOM      4  C   UNL     1       1.558   3.528  19.862  0.00  0.00    +0.000 C 
ATOM      5  C   UNL     1       2.177   2.140  19.698  0.00  0.00    +0.000 C 
ATOM      6  C   UNL     1       1.064   4.070  18.511  0.00  0.00    +0.000 C 
ATOM      7  C   UNL     1       2.165   4.733  17.685  0.00  0.00    +0.000 C 
ATOM      8  C   UNL     1       2.880   5.852  18.476  0.00  0.00    +0.000 C 
BRANCH   8   9
ATOM      9  C   UNL     1       1.921   7.045  18.807  0.00  0.00    +0.000 C 
ATOM     10  C   UNL     1       2.165   8.249  17.884  0.00  0.00    +0.000 C 
ATOM     11  C   UNL     1       2.029   7.518  20.260  0.00  0.00    +0.000 C 
ENDBRANCH   8   9
ENDBRANCH   1   2
BRANCH   1  12
ATOM     12  C   UNL     1       5.782   4.724  18.969  0.00  0.00    +0.000 C 
ATOM     13  O   UNL     1       6.554   5.177  19.806  0.00  0.00    +0.000 OA
BRANCH  12  19
ATOM     14  C   UNL     1       7.127   5.440  16.880  0.00  0.00    +0.000 A 
ATOM     15  C   UNL     1       7.406   5.227  15.520  0.00  0.00    +0.000 A 
ATOM     16  C   UNL     1       6.611   4.382  14.750  0.00  0.00    +0.000 A 
ATOM     17  C   UNL     1       5.541   3.720  15.338  0.00  0.00    +0.000 A 
ATOM     18  C   UNL     1       5.301   3.864  16.707  0.00  0.00    +0.000 A 
ATOM     19  C   UNL     1       6.104   4.702  17.505  0.00  0.00    +0.000 A 
BRANCH  14  21
ATOM     20  C   UNL     1       7.446   7.711  17.421  0.00  0.00    +0.000 C 
ATOM     21  O   UNL     1       7.850   6.353  17.601  0.00  0.00    +0.000 OA
ENDBRANCH  14  21
ENDBRANCH  12  19
ENDBRANCH   1  12
TORSDOF 5
ENDMDL
MODEL 2
REMARK VINA RESULT:      -7.1      2.954      6.296
REMARK  Name = 
REMARK  9 active torsions:
REMARK  status: ('A' for Active; 'I' for Inactive)
REMARK    1  A    between atoms: C_1  and  O_2
REMARK    2  A    between atoms: O_2  and  C_3
REMARK    3  A    between atoms: C_8  and  C_9
REMARK    4  A    between atoms: C_9  and  O_11
REMARK    5  A    between atoms: O_11  and  C_12
REMARK    6  A    between atoms: C_14  and  C_15
REMARK    7  A    between atoms: C_18  and  C_19
REMARK    8  A    between atoms: C_19  and  C_20
REMARK    9  A    between atoms: C_19  and  C_21
REMARK                            x       y       z     vdW  Elec       q    Type
REMARK                         _______ _______ _______ _____ _____    ______ ____
ROOT
ATOM      1  O   UNL     1       2.770   7.245  18.846  0.00  0.00    +0.000 OA
ENDROOT
BRANCH   1   2
ATOM      2  C   UNL     1       3.147   6.294  17.817  0.00  0.00    +0.000 C 
ATOM      3  C   UNL     1       2.246   5.048  17.859  0.00  0.00    +0.000 C 
ATOM      4  C   UNL     1       2.435   4.139  19.093  0.00  0.00    +0.000 C 
ATOM      5  C   UNL     1       1.616   4.622  20.291  0.00  0.00    +0.000 C 
ATOM      6  C   UNL     1       3.908   3.938  19.483  0.00  0.00    +0.000 C 
ATOM      7  C   UNL     1       4.727   5.225  19.438  0.00  0.00    +0.000 C 
ATOM      8  C   UNL     1       4.634   5.917  18.059  0.00  0.00    +0.000 C 
BRANCH   8   9
ATOM      9  C   UNL     1       5.274   5.052  16.920  0.00  0.00    +0.000 C 
ATOM     10  C   UNL     1       6.718   4.646  17.252  0.00  0.00    +0.000 C 
ATOM     11  C   UNL     1       5.267   5.752  15.558  0.00  0.00    +0.000 C 
ENDBRANCH   8   9
ENDBRANCH   1   2
BRANCH   1  12
ATOM     12  C   UNL     1       2.107   8.364  18.473  0.00  0.00    +0.000 C 
ATOM     13  O   UNL     1       2.120   8.840  17.344  0.00  0.00    +0.000 OA
BRANCH  12  19
ATOM     14  C   UNL     1       0.867  10.328  19.608  0.00  0.00    +0.000 A 
ATOM     15  C   UNL     1       0.115  10.779  20.705  0.00  0.00    +0.000 A 
ATOM     16  C   UNL     1      -0.014  10.001  21.853  0.00  0.00    +0.000 A 
ATOM     17  C   UNL     1       0.590   8.751  21.908  0.00  0.00    +0.000 A 
ATOM     18  C   UNL     1       1.274   8.260  20.793  0.00  0.00    +0.000 A 
ATOM     19  C   UNL     1       1.401   9.026  19.618  0.00  0.00    +0.000 A 
BRANCH  14  21
ATOM     20  C   UNL     1       1.853  12.310  18.800  0.00  0.00    +0.000 C 
ATOM     21  O   UNL     1       1.074  11.144  18.528  0.00  0.00    +0.000 OA
ENDBRANCH  14  21
ENDBRANCH  12  19
ENDBRANCH   1  12
TORSDOF 5
ENDMDL
MODEL 3
REMARK VINA RESULT:      -7.1      0.964      2.922
REMARK  Name = 
REMARK  9 active torsions:
REMARK  status: ('A' for Active; 'I' for Inactive)
REMARK    1  A    between atoms: C_1  and  O_2
REMARK    2  A    between atoms: O_2  and  C_3
REMARK    3  A    between atoms: C_8  and  C_9
REMARK    4  A    between atoms: C_9  and  O_11
REMARK    5  A    between atoms: O_11  and  C_12
REMARK    6  A    between atoms: C_14  and  C_15
REMARK    7  A    between atoms: C_18  and  C_19
REMARK    8  A    between atoms: C_19  and  C_20
REMARK    9  A    between atoms: C_19  and  C_21
REMARK                            x       y       z     vdW  Elec       q    Type
REMARK                         _______ _______ _______ _____ _____    ______ ____
ROOT
ATOM      1  O   UNL     1       4.307   5.172  18.512  0.00  0.00    +0.000 OA
ENDROOT
BRANCH   1   2
ATOM      2  C   UNL     1       2.972   4.603  18.551  0.00  0.00    +0.000 C 
ATOM      3  C   UNL     1       1.953   5.539  17.879  0.00  0.00    +0.000 C 
ATOM      4  C   UNL     1       1.664   6.852  18.637  0.00  0.00    +0.000 C 
ATOM      5  C   UNL     1       2.691   7.938  18.313  0.00  0.00    +0.000 C 
ATOM      6  C   UNL     1       1.529   6.663  20.156  0.00  0.00    +0.000 C 
ATOM      7  C   UNL     1       2.592   5.740  20.748  0.00  0.00    +0.000 C 
ATOM      8  C   UNL     1       2.615   4.365  20.043  0.00  0.00    +0.000 C 
BRANCH   8   9
ATOM      9  C   UNL     1       1.287   3.564  20.268  0.00  0.00    +0.000 C 
ATOM     10  C   UNL     1       1.315   2.764  21.580  0.00  0.00    +0.000 C 
ATOM     11  C   UNL     1       0.963   2.603  19.120  0.00  0.00    +0.000 C 
ENDBRANCH   8   9
ENDBRANCH   1   2
BRANCH   1  12
ATOM     12  C   UNL     1       5.345   4.353  18.230  0.00  0.00    +0.000 C 
ATOM     13  O   UNL     1       5.872   3.590  19.031  0.00  0.00    +0.000 OA
BRANCH  12  19
ATOM     14  C   UNL     1       7.036   5.203  16.469  0.00  0.00    +0.000 A 
ATOM     15  C   UNL     1       7.467   5.182  15.132  0.00  0.00    +0.000 A 
ATOM     16  C   UNL     1       6.685   4.601  14.136  0.00  0.00    +0.000 A 
ATOM     17  C   UNL     1       5.471   4.014  14.472  0.00  0.00    +0.000 A 
ATOM     18  C   UNL     1       5.069   3.961  15.809  0.00  0.00    +0.000 A 
ATOM     19  C   UNL     1       5.856   4.529  16.830  0.00  0.00    +0.000 A 
BRANCH  14  21
ATOM     20  C   UNL     1       7.485   7.266  17.516  0.00  0.00    +0.000 C 
ATOM     21  O   UNL     1       7.763   5.868  17.420  0.00  0.00    +0.000 OA
ENDBRANCH  14  21
ENDBRANCH  12  19
ENDBRANCH   1  12
TORSDOF 5
ENDMDL
MODEL 4
REMARK VINA RESULT:      -7.1      2.088      5.241
REMARK  Name = 
REMARK  9 active torsions:
REMARK  status: ('A' for Active; 'I' for Inactive)
REMARK    1  A    between atoms: C_1  and  O_2
REMARK    2  A    between atoms: O_2  and  C_3
REMARK    3  A    between atoms: C_8  and  C_9
REMARK    4  A    between atoms: C_9  and  O_11
REMARK    5  A    between atoms: O_11  and  C_12
REMARK    6  A    between atoms: C_14  and  C_15
REMARK    7  A    between atoms: C_18  and  C_19
REMARK    8  A    between atoms: C_19  and  C_20
REMARK    9  A    between atoms: C_19  and  C_21
REMARK                            x       y       z     vdW  Elec       q    Type
REMARK                         _______ _______ _______ _____ _____    ______ ____
ROOT
ATOM      1  O   UNL     1       4.065   3.964  17.483  0.00  0.00    +0.000 OA
ENDROOT
BRANCH   1   2
ATOM      2  C   UNL     1       4.858   4.829  18.337  0.00  0.00    +0.000 C 
ATOM      3  C   UNL     1       3.958   5.709  19.221  0.00  0.00    +0.000 C 
ATOM      4  C   UNL     1       3.159   6.796  18.472  0.00  0.00    +0.000 C 
ATOM      5  C   UNL     1       1.852   6.252  17.893  0.00  0.00    +0.000 C 
ATOM      6  C   UNL     1       3.977   7.517  17.388  0.00  0.00    +0.000 C 
ATOM      7  C   UNL     1       4.825   6.571  16.540  0.00  0.00    +0.000 C 
ATOM      8  C   UNL     1       5.754   5.696  17.412  0.00  0.00    +0.000 C 
BRANCH   8   9
ATOM      9  C   UNL     1       6.828   6.548  18.169  0.00  0.00    +0.000 C 
ATOM     10  C   UNL     1       7.633   7.439  17.211  0.00  0.00    +0.000 C 
ATOM     11  C   UNL     1       7.810   5.696  18.980  0.00  0.00    +0.000 C 
ENDBRANCH   8   9
ENDBRANCH   1   2
BRANCH   1  12
ATOM     12  C   UNL     1       3.808   2.705  17.906  0.00  0.00    +0.000 C 
ATOM     13  O   UNL     1       4.118   1.687  17.299  0.00  0.00    +0.000 OA
BRANCH  12  19
ATOM     14  C   UNL     1       3.551   2.498  20.470  0.00  0.00    +0.000 A 
ATOM     15  C   UNL     1       2.713   2.621  21.591  0.00  0.00    +0.000 A 
ATOM     16  C   UNL     1       1.339   2.798  21.442  0.00  0.00    +0.000 A 
ATOM     17  C   UNL     1       0.791   2.879  20.168  0.00  0.00    +0.000 A 
ATOM     18  C   UNL     1       1.625   2.837  19.047  0.00  0.00    +0.000 A 
ATOM     19  C   UNL     1       3.018   2.674  19.180  0.00  0.00    +0.000 A 
BRANCH  14  21
ATOM     20  C   UNL     1       5.164   0.902  21.101  0.00  0.00    +0.000 C 
ATOM     21  O   UNL     1       4.882   2.220  20.628  0.00  0.00    +0.000 OA
ENDBRANCH  14  21
ENDBRANCH  12  19
ENDBRANCH   1  12
TORSDOF 5
ENDMDL
MODEL 5
REMARK VINA RESULT:      -7.1      1.812      5.815
REMARK  Name = 
REMARK  9 active torsions:
REMARK  status: ('A' for Active; 'I' for Inactive)
REMARK    1  A    between atoms: C_1  and  O_2
REMARK    2  A    between atoms: O_2  and  C_3
REMARK    3  A    between atoms: C_8  and  C_9
REMARK    4  A    between atoms: C_9  and  O_11
REMARK    5  A    between atoms: O_11  and  C_12
REMARK    6  A    between atoms: C_14  and  C_15
REMARK    7  A    between atoms: C_18  and  C_19
REMARK    8  A    between atoms: C_19  and  C_20
REMARK    9  A    between atoms: C_19  and  C_21
REMARK                            x       y       z     vdW  Elec       q    Type
REMARK                         _______ _______ _______ _____ _____    ______ ____
ROOT
ATOM      1  O   UNL     1       3.789   4.705  16.976  0.00  0.00    +0.000 OA
ENDROOT
BRANCH   1   2
ATOM      2  C   UNL     1       4.923   4.045  16.356  0.00  0.00    +0.000 C 
ATOM      3  C   UNL     1       5.989   3.677  17.402  0.00  0.00    +0.000 C 
ATOM      4  C   UNL     1       6.735   4.872  18.032  0.00  0.00    +0.000 C 
ATOM      5  C   UNL     1       5.964   5.474  19.208  0.00  0.00    +0.000 C 
ATOM      6  C   UNL     1       7.116   5.959  17.014  0.00  0.00    +0.000 C 
ATOM      7  C   UNL     1       5.997   6.282  16.027  0.00  0.00    +0.000 C 
ATOM      8  C   UNL     1       5.498   5.018  15.291  0.00  0.00    +0.000 C 
BRANCH   8   9
ATOM      9  C   UNL     1       6.605   4.393  14.376  0.00  0.00    +0.000 C 
ATOM     10  C   UNL     1       7.547   5.463  13.803  0.00  0.00    +0.000 C 
ATOM     11  C   UNL     1       6.033   3.577  13.212  0.00  0.00    +0.000 C 
ENDBRANCH   8   9
ENDBRANCH   1   2
BRANCH   1  12
ATOM     12  C   UNL     1       2.762   3.940  17.411  0.00  0.00    +0.000 C 
ATOM     13  O   UNL     1       1.982   3.338  16.682  0.00  0.00    +0.000 OA
BRANCH  12  19
ATOM     14  C   UNL     1       2.278   5.092  19.674  0.00  0.00    +0.000 A 
ATOM     15  C   UNL     1       2.043   4.948  21.051  0.00  0.00    +0.000 A 
ATOM     16  C   UNL     1       2.250   3.727  21.689  0.00  0.00    +0.000 A 
ATOM     17  C   UNL     1       2.673   2.629  20.950  0.00  0.00    +0.000 A 
ATOM     18  C   UNL     1       2.834   2.742  19.566  0.00  0.00    +0.000 A 
ATOM     19  C   UNL     1       2.614   3.964  18.903  0.00  0.00    +0.000 A 
BRANCH  14  21
ATOM     20  C   UNL     1       2.077   7.419  19.988  0.00  0.00    +0.000 C 
ATOM     21  O   UNL     1       2.171   6.321  19.079  0.00  0.00    +0.000 OA
ENDBRANCH  14  21
ENDBRANCH  12  19
ENDBRANCH   1  12
TORSDOF 5
ENDMDL
MODEL 6
REMARK VINA RESULT:      -7.0      1.828      5.702
REMARK  Name = 
REMARK  9 active torsions:
REMARK  status: ('A' for Active; 'I' for Inactive)
REMARK    1  A    between atoms: C_1  and  O_2
REMARK    2  A    between atoms: O_2  and  C_3
REMARK    3  A    between atoms: C_8  and  C_9
REMARK    4  A    between atoms: C_9  and  O_11
REMARK    5  A    between atoms: O_11  and  C_12
REMARK    6  A    between atoms: C_14  and  C_15
REMARK    7  A    between atoms: C_18  and  C_19
REMARK    8  A    between atoms: C_19  and  C_20
REMARK    9  A    between atoms: C_19  and  C_21
REMARK                            x       y       z     vdW  Elec       q    Type
REMARK                         _______ _______ _______ _____ _____    ______ ____
ROOT
ATOM      1  O   UNL     1       4.044   6.036  16.849  0.00  0.00    +0.000 OA
ENDROOT
BRANCH   1   2
ATOM      2  C   UNL     1       5.344   6.664  16.706  0.00  0.00    +0.000 C 
ATOM      3  C   UNL     1       5.914   6.439  15.295  0.00  0.00    +0.000 C 
ATOM      4  C   UNL     1       6.325   4.987  14.974  0.00  0.00    +0.000 C 
ATOM      5  C   UNL     1       5.138   4.148  14.495  0.00  0.00    +0.000 C 
ATOM      6  C   UNL     1       7.056   4.288  16.131  0.00  0.00    +0.000 C 
ATOM      7  C   UNL     1       6.414   4.542  17.494  0.00  0.00    +0.000 C 
ATOM      8  C   UNL     1       6.274   6.053  17.789  0.00  0.00    +0.000 C 
BRANCH   8   9
ATOM      9  C   UNL     1       7.666   6.760  17.918  0.00  0.00    +0.000 C 
ATOM     10  C   UNL     1       8.319   6.495  19.283  0.00  0.00    +0.000 C 
ATOM     11  C   UNL     1       7.593   8.275  17.701  0.00  0.00    +0.000 C 
ENDBRANCH   8   9
ENDBRANCH   1   2
BRANCH   1  12
ATOM     12  C   UNL     1       3.129   6.630  17.649  0.00  0.00    +0.000 C 
ATOM     13  O   UNL     1       2.920   7.836  17.694  0.00  0.00    +0.000 OA
BRANCH  12  19
ATOM     14  C   UNL     1       2.035   5.916  19.880  0.00  0.00    +0.000 A 
ATOM     15  C   UNL     1       1.277   4.959  20.575  0.00  0.00    +0.000 A 
ATOM     16  C   UNL     1       1.014   3.710  20.018  0.00  0.00    +0.000 A 
ATOM     17  C   UNL     1       1.488   3.412  18.747  0.00  0.00    +0.000 A 
ATOM     18  C   UNL     1       2.176   4.384  18.014  0.00  0.00    +0.000 A 
ATOM     19  C   UNL     1       2.436   5.657  18.557  0.00  0.00    +0.000 A 
BRANCH  14  21
ATOM     20  C   UNL     1       1.278   7.815  21.051  0.00  0.00    +0.000 C 
ATOM     21  O   UNL     1       2.374   7.099  20.479  0.00  0.00    +0.000 OA
ENDBRANCH  14  21
ENDBRANCH  12  19
ENDBRANCH   1  12
TORSDOF 5
ENDMDL
MODEL 7
REMARK VINA RESULT:      -7.0      2.309      6.076
REMARK  Name = 
REMARK  9 active torsions:
REMARK  status: ('A' for Active; 'I' for Inactive)
REMARK    1  A    between atoms: C_1  and  O_2
REMARK    2  A    between atoms: O_2  and  C_3
REMARK    3  A    between atoms: C_8  and  C_9
REMARK    4  A    between atoms: C_9  and  O_11
REMARK    5  A    between atoms: O_11  and  C_12
REMARK    6  A    between atoms: C_14  and  C_15
REMARK    7  A    between atoms: C_18  and  C_19
REMARK    8  A    between atoms: C_19  and  C_20
REMARK    9  A    between atoms: C_19  and  C_21
REMARK                            x       y       z     vdW  Elec       q    Type
REMARK                         _______ _______ _______ _____ _____    ______ ____
ROOT
ATOM      1  O   UNL     1       3.502   6.348  19.117  0.00  0.00    +0.000 OA
ENDROOT
BRANCH   1   2
ATOM      2  C   UNL     1       4.243   5.147  19.456  0.00  0.00    +0.000 C 
ATOM      3  C   UNL     1       5.743   5.320  19.159  0.00  0.00    +0.000 C 
ATOM      4  C   UNL     1       6.113   5.404  17.663  0.00  0.00    +0.000 C 
ATOM      5  C   UNL     1       5.965   6.823  17.114  0.00  0.00    +0.000 C 
ATOM      6  C   UNL     1       5.350   4.397  16.788  0.00  0.00    +0.000 C 
ATOM      7  C   UNL     1       3.864   4.301  17.131  0.00  0.00    +0.000 C 
ATOM      8  C   UNL     1       3.640   3.981  18.626  0.00  0.00    +0.000 C 
BRANCH   8   9
ATOM      9  C   UNL     1       4.183   2.564  19.014  0.00  0.00    +0.000 C 
ATOM     10  C   UNL     1       3.450   1.444  18.260  0.00  0.00    +0.000 C 
ATOM     11  C   UNL     1       4.093   2.277  20.517  0.00  0.00    +0.000 C 
ENDBRANCH   8   9
ENDBRANCH   1   2
BRANCH   1  12
ATOM     12  C   UNL     1       2.406   6.653  19.849  0.00  0.00    +0.000 C 
ATOM     13  O   UNL     1       1.861   5.893  20.639  0.00  0.00    +0.000 OA
BRANCH  12  19
ATOM     14  C   UNL     1       1.158   8.842  20.427  0.00  0.00    +0.000 A 
ATOM     15  C   UNL     1       0.817  10.149  20.042  0.00  0.00    +0.000 A 
ATOM     16  C   UNL     1       1.061  10.601  18.747  0.00  0.00    +0.000 A 
ATOM     17  C   UNL     1       1.672   9.756  17.828  0.00  0.00    +0.000 A 
ATOM     18  C   UNL     1       2.086   8.481  18.223  0.00  0.00    +0.000 A 
ATOM     19  C   UNL     1       1.861   8.014  19.533  0.00  0.00    +0.000 A 
BRANCH  14  21
ATOM     20  C   UNL     1       0.017   9.269  22.444  0.00  0.00    +0.000 C 
ATOM     21  O   UNL     1       0.818   8.375  21.669  0.00  0.00    +0.000 OA
ENDBRANCH  14  21
ENDBRANCH  12  19
ENDBRANCH   1  12
TORSDOF 5
ENDMDL
MODEL 8
REMARK VINA RESULT:      -7.0      1.819      6.130
REMARK  Name = 
REMARK  9 active torsions:
REMARK  status: ('A' for Active; 'I' for Inactive)
REMARK    1  A    between atoms: C_1  and  O_2
REMARK    2  A    between atoms: O_2  and  C_3
REMARK    3  A    between atoms: C_8  and  C_9
REMARK    4  A    between atoms: C_9  and  O_11
REMARK    5  A    between atoms: O_11  and  C_12
REMARK    6  A    between atoms: C_14  and  C_15
REMARK    7  A    between atoms: C_18  and  C_19
REMARK    8  A    between atoms: C_19  and  C_20
REMARK    9  A    between atoms: C_19  and  C_21
REMARK                            x       y       z     vdW  Elec       q    Type
REMARK                         _______ _______ _______ _____ _____    ______ ____
ROOT
ATOM      1  O   UNL     1       3.749   5.043  16.787  0.00  0.00    +0.000 OA
ENDROOT
BRANCH   1   2
ATOM      2  C   UNL     1       4.784   4.225  16.182  0.00  0.00    +0.000 C 
ATOM      3  C   UNL     1       5.725   3.646  17.251  0.00  0.00    +0.000 C 
ATOM      4  C   UNL     1       6.631   4.675  17.959  0.00  0.00    +0.000 C 
ATOM      5  C   UNL     1       5.920   5.355  19.130  0.00  0.00    +0.000 C 
ATOM      6  C   UNL     1       7.233   5.718  17.004  0.00  0.00    +0.000 C 
ATOM      7  C   UNL     1       6.228   6.260  15.990  0.00  0.00    +0.000 C 
ATOM      8  C   UNL     1       5.559   5.126  15.182  0.00  0.00    +0.000 C 
BRANCH   8   9
ATOM      9  C   UNL     1       6.586   4.356  14.284  0.00  0.00    +0.000 C 
ATOM     10  C   UNL     1       7.610   5.305  13.643  0.00  0.00    +0.000 C 
ATOM     11  C   UNL     1       5.919   3.540  13.172  0.00  0.00    +0.000 C 
ENDBRANCH   8   9
ENDBRANCH   1   2
BRANCH   1  12
ATOM     12  C   UNL     1       2.766   4.425  17.481  0.00  0.00    +0.000 C 
ATOM     13  O   UNL     1       2.247   3.363  17.160  0.00  0.00    +0.000 OA
BRANCH  12  19
ATOM     14  C   UNL     1       1.699   4.695  19.820  0.00  0.00    +0.000 A 
ATOM     15  C   UNL     1       1.436   5.537  20.913  0.00  0.00    +0.000 A 
ATOM     16  C   UNL     1       1.660   6.910  20.829  0.00  0.00    +0.000 A 
ATOM     17  C   UNL     1       2.173   7.452  19.657  0.00  0.00    +0.000 A 
ATOM     18  C   UNL     1       2.512   6.613  18.592  0.00  0.00    +0.000 A 
ATOM     19  C   UNL     1       2.306   5.221  18.666  0.00  0.00    +0.000 A 
BRANCH  14  21
ATOM     20  C   UNL     1       1.626   2.745  21.141  0.00  0.00    +0.000 C 
ATOM     21  O   UNL     1       1.377   3.365  19.878  0.00  0.00    +0.000 OA
ENDBRANCH  14  21
ENDBRANCH  12  19
ENDBRANCH   1  12
TORSDOF 5
ENDMDL
MODEL 9
REMARK VINA RESULT:      -6.9      2.920      6.349
REMARK  Name = 
REMARK  9 active torsions:
REMARK  status: ('A' for Active; 'I' for Inactive)
REMARK    1  A    between atoms: C_1  and  O_2
REMARK    2  A    between atoms: O_2  and  C_3
REMARK    3  A    between atoms: C_8  and  C_9
REMARK    4  A    between atoms: C_9  and  O_11
REMARK    5  A    between atoms: O_11  and  C_12
REMARK    6  A    between atoms: C_14  and  C_15
REMARK    7  A    between atoms: C_18  and  C_19
REMARK    8  A    between atoms: C_19  and  C_20
REMARK    9  A    between atoms: C_19  and  C_21
REMARK                            x       y       z     vdW  Elec       q    Type
REMARK                         _______ _______ _______ _____ _____    ______ ____
ROOT
ATOM      1  O   UNL     1       2.321   6.925  19.668  0.00  0.00    +0.000 OA
ENDROOT
BRANCH   1   2
ATOM      2  C   UNL     1       2.682   5.564  20.019  0.00  0.00    +0.000 C 
ATOM      3  C   UNL     1       4.117   5.239  19.569  0.00  0.00    +0.000 C 
ATOM      4  C   UNL     1       4.324   5.145  18.043  0.00  0.00    +0.000 C 
ATOM      5  C   UNL     1       4.567   6.517  17.412  0.00  0.00    +0.000 C 
ATOM      6  C   UNL     1       3.190   4.403  17.317  0.00  0.00    +0.000 C 
ATOM      7  C   UNL     1       1.798   4.799  17.806  0.00  0.00    +0.000 C 
ATOM      8  C   UNL     1       1.654   4.623  19.334  0.00  0.00    +0.000 C 
BRANCH   8   9
ATOM      9  C   UNL     1       1.766   3.122  19.768  0.00  0.00    +0.000 C 
ATOM     10  C   UNL     1       0.859   2.213  18.925  0.00  0.00    +0.000 C 
ATOM     11  C   UNL     1       1.438   2.897  21.247  0.00  0.00    +0.000 C 
ENDBRANCH   8   9
ENDBRANCH   1   2
BRANCH   1  12
ATOM     12  C   UNL     1       1.549   7.626  20.530  0.00  0.00    +0.000 C 
ATOM     13  O   UNL     1       1.030   7.163  21.538  0.00  0.00    +0.000 OA
BRANCH  12  19
ATOM     14  C   UNL     1       1.035  10.129  20.921  0.00  0.00    +0.000 A 
ATOM     15  C   UNL     1       0.967  11.424  20.380  0.00  0.00    +0.000 A 
ATOM     16  C   UNL     1       1.056  11.631  19.005  0.00  0.00    +0.000 A 
ATOM     17  C   UNL     1       1.239  10.546  18.157  0.00  0.00    +0.000 A 
ATOM     18  C   UNL     1       1.386   9.263  18.691  0.00  0.00    +0.000 A 
ATOM     19  C   UNL     1       1.315   9.037  20.079  0.00  0.00    +0.000 A 
BRANCH  14  21
ATOM     20  C   UNL     1      -0.484  10.196  22.720  0.00  0.00    +0.000 C 
ATOM     21  O   UNL     1       0.842   9.928  22.261  0.00  0.00    +0.000 OA
ENDBRANCH  14  21
ENDBRANCH  12  19
ENDBRANCH   1  12
TORSDOF 5
ENDMDL
