MODEL 1
REMARK VINA RESULT:      -7.7      0.000      0.000
REMARK  Name = 
REMARK  7 active torsions:
REMARK  status: ('A' for Active; 'I' for Inactive)
REMARK    1  A    between atoms: C_1  and  C_2
REMARK    2  A    between atoms: C_3  and  C_4
REMARK    3  A    between atoms: C_4  and  O_5
REMARK    4  A    between atoms: C_4  and  C_6
REMARK    5  A    between atoms: C_6  and  N_7
REMARK    6  A    between atoms: N_15  and  C_16
REMARK    7  A    between atoms: C_20  and  C_21
REMARK                            x       y       z     vdW  Elec       q    Type
REMARK                         _______ _______ _______ _____ _____    ______ ____
ROOT
ATOM      1  N   UNL     1       2.145   7.728  20.098  0.00  0.00    +0.000 NA
ATOM      2  C   UNL     1       2.334   8.465  18.836  0.00  0.00    +0.000 C 
ATOM      3  C   UNL     1       1.045   9.025  18.223  0.00  0.00    +0.000 C 
ATOM      4  C   UNL     1       0.237   9.867  19.233  0.00  0.00    +0.000 C 
ATOM      5  C   UNL     1       0.085   9.099  20.556  0.00  0.00    +0.000 C 
ATOM      6  C   UNL     1       1.454   8.613  21.060  0.00  0.00    +0.000 C 
ATOM      7  C   UNL     1      -1.130  10.266  18.622  0.00  0.00    +0.000 C 
ATOM      8  C   UNL     1      -1.201  11.786  18.750  0.00  0.00    +0.000 C 
ATOM      9  N   UNL     1       0.206  12.164  18.686  0.00  0.00    +0.000 N 
ATOM     10  C   UNL     1       0.953  11.210  19.497  0.00  0.00    +0.000 C 
ENDROOT
BRANCH   9  11
ATOM     11  C   UNL     1       0.655  13.468  18.646  0.00  0.00    +0.000 A 
ATOM     12  C   UNL     1      -0.207  14.562  18.824  0.00  0.00    +0.000 A 
ATOM     13  N   UNL     1       0.148  15.871  18.808  0.00  0.00    +0.000 NA
ATOM     14  C   UNL     1       1.457  16.127  18.625  0.00  0.00    +0.000 A 
ATOM     15  C   UNL     1       2.405  15.135  18.466  0.00  0.00    +0.000 A 
ATOM     16  C   UNL     1       1.998  13.798  18.481  0.00  0.00    +0.000 A 
BRANCH  15  17
ATOM     17  C   UNL     1       3.772  15.480  18.268  0.00  0.00    +0.000 C 
ATOM     18  N   UNL     1       4.895  15.740  18.132  0.00  0.00    +0.000 NA
ENDBRANCH  15  17
ENDBRANCH   9  11
BRANCH   1  19
ATOM     19  C   UNL     1       1.390   6.459  19.948  0.00  0.00    +0.000 C 
BRANCH  19  20
ATOM     20  C   UNL     1       2.171   5.119  20.059  0.00  0.00    +0.000 C 
BRANCH  20  23
ATOM     21  C   UNL     1       2.032   3.987  17.195  0.00  0.00    +0.000 C 
ATOM     22  C   UNL     1       3.312   4.411  17.860  0.00  0.00    +0.000 A 
ATOM     23  C   UNL     1       3.395   4.956  19.167  0.00  0.00    +0.000 A 
ATOM     24  C   UNL     1       4.666   5.367  19.664  0.00  0.00    +0.000 A 
ATOM     25  C   UNL     1       5.832   5.237  18.912  0.00  0.00    +0.000 A 
ATOM     26  C   UNL     1       5.718   4.648  17.673  0.00  0.00    +0.000 A 
ATOM     27  C   UNL     1       4.506   4.239  17.155  0.00  0.00    +0.000 A 
ATOM     28  C   UNL     1       4.747   3.614  15.835  0.00  0.00    +0.000 C 
ATOM     29  O   UNL     1       6.174   3.721  15.659  0.00  0.00    +0.000 OA
ATOM     30  C   UNL     1       6.774   4.335  16.722  0.00  0.00    +0.000 C 
ATOM     31  O   UNL     1       7.959   4.569  16.849  0.00  0.00    +0.000 OA
ENDBRANCH  20  23
BRANCH  20  32
ATOM     32  O   UNL     1       2.484   4.857  21.433  0.00  0.00    +0.000 OA
ATOM     33  H   UNL     1       1.643   4.603  21.856  0.00  0.00    +0.000 HD
ENDBRANCH  20  32
ENDBRANCH  19  20
ENDBRANCH   1  19
TORSDOF 6
ENDMDL
MODEL 2
REMARK VINA RESULT:      -7.7      0.797      1.691
REMARK  Name = 
REMARK  7 active torsions:
REMARK  status: ('A' for Active; 'I' for Inactive)
REMARK    1  A    between atoms: C_1  and  C_2
REMARK    2  A    between atoms: C_3  and  C_4
REMARK    3  A    between atoms: C_4  and  O_5
REMARK    4  A    between atoms: C_4  and  C_6
REMARK    5  A    between atoms: C_6  and  N_7
REMARK    6  A    between atoms: N_15  and  C_16
REMARK    7  A    between atoms: C_20  and  C_21
REMARK                            x       y       z     vdW  Elec       q    Type
REMARK                         _______ _______ _______ _____ _____    ______ ____
ROOT
ATOM      1  N   UNL     1       2.141   7.780  20.087  0.00  0.00    +0.000 NA
ATOM      2  C   UNL     1       2.288   8.538  18.832  0.00  0.00    +0.000 C 
ATOM      3  C   UNL     1       0.975   9.089  18.261  0.00  0.00    +0.000 C 
ATOM      4  C   UNL     1       0.182   9.905  19.305  0.00  0.00    +0.000 C 
ATOM      5  C   UNL     1       0.076   9.114  20.619  0.00  0.00    +0.000 C 
ATOM      6  C   UNL     1       1.464   8.641  21.081  0.00  0.00    +0.000 C 
ATOM      7  C   UNL     1      -1.206  10.292  18.736  0.00  0.00    +0.000 C 
ATOM      8  C   UNL     1      -1.294  11.809  18.888  0.00  0.00    +0.000 C 
ATOM      9  N   UNL     1       0.106  12.208  18.793  0.00  0.00    +0.000 N 
ATOM     10  C   UNL     1       0.886  11.254  19.570  0.00  0.00    +0.000 C 
ENDROOT
BRANCH   9  11
ATOM     11  C   UNL     1       0.535  13.519  18.761  0.00  0.00    +0.000 A 
ATOM     12  C   UNL     1       1.895  13.860  18.684  0.00  0.00    +0.000 A 
ATOM     13  N   UNL     1       2.403  15.117  18.641  0.00  0.00    +0.000 NA
ATOM     14  C   UNL     1       1.504  16.119  18.649  0.00  0.00    +0.000 A 
ATOM     15  C   UNL     1       0.139  15.909  18.694  0.00  0.00    +0.000 A 
ATOM     16  C   UNL     1      -0.345  14.599  18.745  0.00  0.00    +0.000 A 
BRANCH  15  17
ATOM     17  C   UNL     1      -0.753  17.018  18.708  0.00  0.00    +0.000 C 
ATOM     18  N   UNL     1      -1.479  17.924  18.687  0.00  0.00    +0.000 NA
ENDBRANCH  15  17
ENDBRANCH   9  11
BRANCH   1  19
ATOM     19  C   UNL     1       1.401   6.503  19.938  0.00  0.00    +0.000 C 
BRANCH  19  20
ATOM     20  C   UNL     1       2.193   5.172  20.070  0.00  0.00    +0.000 C 
BRANCH  20  23
ATOM     21  C   UNL     1       2.033   3.970  17.235  0.00  0.00    +0.000 C 
ATOM     22  C   UNL     1       3.316   4.421  17.876  0.00  0.00    +0.000 A 
ATOM     23  C   UNL     1       3.409   4.997  19.168  0.00  0.00    +0.000 A 
ATOM     24  C   UNL     1       4.682   5.430  19.642  0.00  0.00    +0.000 A 
ATOM     25  C   UNL     1       5.840   5.293  18.880  0.00  0.00    +0.000 A 
ATOM     26  C   UNL     1       5.717   4.673  17.656  0.00  0.00    +0.000 A 
ATOM     27  C   UNL     1       4.504   4.242  17.162  0.00  0.00    +0.000 A 
ATOM     28  C   UNL     1       4.735   3.588  15.854  0.00  0.00    +0.000 C 
ATOM     29  O   UNL     1       6.160   3.703  15.659  0.00  0.00    +0.000 OA
ATOM     30  C   UNL     1       6.766   4.347  16.701  0.00  0.00    +0.000 C 
ATOM     31  O   UNL     1       7.950   4.593  16.810  0.00  0.00    +0.000 OA
ENDBRANCH  20  23
BRANCH  20  32
ATOM     32  O   UNL     1       2.522   4.942  21.446  0.00  0.00    +0.000 OA
ATOM     33  H   UNL     1       1.693   5.059  21.943  0.00  0.00    +0.000 HD
ENDBRANCH  20  32
ENDBRANCH  19  20
ENDBRANCH   1  19
TORSDOF 6
ENDMDL
MODEL 3
REMARK VINA RESULT:      -7.4      1.340      1.473
REMARK  Name = 
REMARK  7 active torsions:
REMARK  status: ('A' for Active; 'I' for Inactive)
REMARK    1  A    between atoms: C_1  and  C_2
REMARK    2  A    between atoms: C_3  and  C_4
REMARK    3  A    between atoms: C_4  and  O_5
REMARK    4  A    between atoms: C_4  and  C_6
REMARK    5  A    between atoms: C_6  and  N_7
REMARK    6  A    between atoms: N_15  and  C_16
REMARK    7  A    between atoms: C_20  and  C_21
REMARK                            x       y       z     vdW  Elec       q    Type
REMARK                         _______ _______ _______ _____ _____    ______ ____
ROOT
ATOM      1  N   UNL     1       2.228   8.283  19.322  0.00  0.00    +0.000 NA
ATOM      2  C   UNL     1       2.164   9.299  18.256  0.00  0.00    +0.000 C 
ATOM      3  C   UNL     1       0.744   9.708  17.847  0.00  0.00    +0.000 C 
ATOM      4  C   UNL     1      -0.114  10.130  19.059  0.00  0.00    +0.000 C 
ATOM      5  C   UNL     1      -0.002   9.078  20.175  0.00  0.00    +0.000 C 
ATOM      6  C   UNL     1       1.473   8.780  20.492  0.00  0.00    +0.000 C 
ATOM      7  C   UNL     1      -1.580  10.368  18.618  0.00  0.00    +0.000 C 
ATOM      8  C   UNL     1      -1.921  11.778  19.095  0.00  0.00    +0.000 C 
ATOM      9  N   UNL     1      -0.620  12.436  19.057  0.00  0.00    +0.000 N 
ATOM     10  C   UNL     1       0.360  11.500  19.593  0.00  0.00    +0.000 C 
ENDROOT
BRANCH   9  11
ATOM     11  C   UNL     1      -0.427  13.781  19.299  0.00  0.00    +0.000 A 
ATOM     12  C   UNL     1      -1.267  14.517  20.151  0.00  0.00    +0.000 A 
ATOM     13  N   UNL     1      -1.147  15.834  20.450  0.00  0.00    +0.000 NA
ATOM     14  C   UNL     1      -0.107  16.476  19.887  0.00  0.00    +0.000 A 
ATOM     15  C   UNL     1       0.804  15.854  19.054  0.00  0.00    +0.000 A 
ATOM     16  C   UNL     1       0.642  14.497  18.764  0.00  0.00    +0.000 A 
BRANCH  15  17
ATOM     17  C   UNL     1       1.876  16.599  18.487  0.00  0.00    +0.000 C 
ATOM     18  N   UNL     1       2.760  17.216  18.055  0.00  0.00    +0.000 NA
ENDBRANCH  15  17
ENDBRANCH   9  11
BRANCH   1  19
ATOM     19  C   UNL     1       1.712   6.952  18.917  0.00  0.00    +0.000 C 
BRANCH  19  20
ATOM     20  C   UNL     1       2.654   5.723  19.057  0.00  0.00    +0.000 C 
BRANCH  20  23
ATOM     21  C   UNL     1       2.888   3.249  17.232  0.00  0.00    +0.000 C 
ATOM     22  C   UNL     1       3.847   4.405  17.192  0.00  0.00    +0.000 A 
ATOM     23  C   UNL     1       3.744   5.563  18.005  0.00  0.00    +0.000 A 
ATOM     24  C   UNL     1       4.691   6.614  17.834  0.00  0.00    +0.000 A 
ATOM     25  C   UNL     1       5.723   6.535  16.901  0.00  0.00    +0.000 A 
ATOM     26  C   UNL     1       5.825   5.370  16.174  0.00  0.00    +0.000 A 
ATOM     27  C   UNL     1       4.928   4.331  16.309  0.00  0.00    +0.000 A 
ATOM     28  C   UNL     1       5.351   3.227  15.419  0.00  0.00    +0.000 C 
ATOM     29  O   UNL     1       6.536   3.738  14.776  0.00  0.00    +0.000 OA
ATOM     30  C   UNL     1       6.837   5.004  15.194  0.00  0.00    +0.000 C 
ATOM     31  O   UNL     1       7.769   5.687  14.822  0.00  0.00    +0.000 OA
ENDBRANCH  20  23
BRANCH  20  32
ATOM     32  O   UNL     1       3.194   5.678  20.384  0.00  0.00    +0.000 OA
ATOM     33  H   UNL     1       4.113   5.993  20.310  0.00  0.00    +0.000 HD
ENDBRANCH  20  32
ENDBRANCH  19  20
ENDBRANCH   1  19
TORSDOF 6
ENDMDL
MODEL 4
REMARK VINA RESULT:      -7.3      4.034      5.629
REMARK  Name = 
REMARK  7 active torsions:
REMARK  status: ('A' for Active; 'I' for Inactive)
REMARK    1  A    between atoms: C_1  and  C_2
REMARK    2  A    between atoms: C_3  and  C_4
REMARK    3  A    between atoms: C_4  and  O_5
REMARK    4  A    between atoms: C_4  and  C_6
REMARK    5  A    between atoms: C_6  and  N_7
REMARK    6  A    between atoms: N_15  and  C_16
REMARK    7  A    between atoms: C_20  and  C_21
REMARK                            x       y       z     vdW  Elec       q    Type
REMARK                         _______ _______ _______ _____ _____    ______ ____
ROOT
ATOM      1  N   UNL     1      -0.578   9.768  20.005  0.00  0.00    +0.000 NA
ATOM      2  C   UNL     1      -1.008   9.885  21.410  0.00  0.00    +0.000 C 
ATOM      3  C   UNL     1      -0.469  11.120  22.142  0.00  0.00    +0.000 C 
ATOM      4  C   UNL     1      -0.753  12.427  21.371  0.00  0.00    +0.000 C 
ATOM      5  C   UNL     1      -0.335  12.270  19.899  0.00  0.00    +0.000 C 
ATOM      6  C   UNL     1      -0.962  11.004  19.290  0.00  0.00    +0.000 C 
ATOM      7  C   UNL     1      -0.044  13.618  22.061  0.00  0.00    +0.000 C 
ATOM      8  C   UNL     1      -1.142  14.650  22.312  0.00  0.00    +0.000 C 
ATOM      9  N   UNL     1      -2.322  13.808  22.467  0.00  0.00    +0.000 N 
ATOM     10  C   UNL     1      -2.257  12.770  21.446  0.00  0.00    +0.000 C 
ENDROOT
BRANCH   9  11
ATOM     11  C   UNL     1      -3.567  14.282  22.828  0.00  0.00    +0.000 A 
ATOM     12  C   UNL     1      -3.849  15.655  22.914  0.00  0.00    +0.000 A 
ATOM     13  N   UNL     1      -5.041  16.206  23.252  0.00  0.00    +0.000 NA
ATOM     14  C   UNL     1      -6.043  15.343  23.502  0.00  0.00    +0.000 A 
ATOM     15  C   UNL     1      -5.896  13.971  23.422  0.00  0.00    +0.000 A 
ATOM     16  C   UNL     1      -4.649  13.441  23.078  0.00  0.00    +0.000 A 
BRANCH  15  17
ATOM     17  C   UNL     1      -6.998  13.118  23.708  0.00  0.00    +0.000 C 
ATOM     18  N   UNL     1      -7.916  12.448  23.950  0.00  0.00    +0.000 NA
ENDBRANCH  15  17
ENDBRANCH   9  11
BRANCH   1  19
ATOM     19  C   UNL     1       0.875   9.519  19.838  0.00  0.00    +0.000 C 
BRANCH  19  20
ATOM     20  C   UNL     1       1.462   8.186  20.383  0.00  0.00    +0.000 C 
BRANCH  20  23
ATOM     21  C   UNL     1       1.949   5.168  20.783  0.00  0.00    +0.000 C 
ATOM     22  C   UNL     1       2.500   5.953  19.625  0.00  0.00    +0.000 A 
ATOM     23  C   UNL     1       2.269   7.335  19.410  0.00  0.00    +0.000 A 
ATOM     24  C   UNL     1       2.808   7.952  18.244  0.00  0.00    +0.000 A 
ATOM     25  C   UNL     1       3.566   7.243  17.315  0.00  0.00    +0.000 A 
ATOM     26  C   UNL     1       3.819   5.918  17.591  0.00  0.00    +0.000 A 
ATOM     27  C   UNL     1       3.315   5.284  18.708  0.00  0.00    +0.000 A 
ATOM     28  C   UNL     1       3.810   3.889  18.720  0.00  0.00    +0.000 C 
ATOM     29  O   UNL     1       4.612   3.799  17.524  0.00  0.00    +0.000 OA
ATOM     30  C   UNL     1       4.629   4.977  16.832  0.00  0.00    +0.000 C 
ATOM     31  O   UNL     1       5.211   5.195  15.789  0.00  0.00    +0.000 OA
ENDBRANCH  20  23
BRANCH  20  32
ATOM     32  O   UNL     1       2.193   8.439  21.590  0.00  0.00    +0.000 OA
ATOM     33  H   UNL     1       1.647   9.057  22.109  0.00  0.00    +0.000 HD
ENDBRANCH  20  32
ENDBRANCH  19  20
ENDBRANCH   1  19
TORSDOF 6
ENDMDL
MODEL 5
REMARK VINA RESULT:      -7.3      3.795      5.751
REMARK  Name = 
REMARK  7 active torsions:
REMARK  status: ('A' for Active; 'I' for Inactive)
REMARK    1  A    between atoms: C_1  and  C_2
REMARK    2  A    between atoms: C_3  and  C_4
REMARK    3  A    between atoms: C_4  and  O_5
REMARK    4  A    between atoms: C_4  and  C_6
REMARK    5  A    between atoms: C_6  and  N_7
REMARK    6  A    between atoms: N_15  and  C_16
REMARK    7  A    between atoms: C_20  and  C_21
REMARK                            x       y       z     vdW  Elec       q    Type
REMARK                         _______ _______ _______ _____ _____    ______ ____
ROOT
ATOM      1  N   UNL     1       0.104   9.584  19.533  0.00  0.00    +0.000 NA
ATOM      2  C   UNL     1      -0.529   9.609  20.865  0.00  0.00    +0.000 C 
ATOM      3  C   UNL     1      -0.177  10.835  21.716  0.00  0.00    +0.000 C 
ATOM      4  C   UNL     1      -0.429  12.160  20.964  0.00  0.00    +0.000 C 
ATOM      5  C   UNL     1       0.203  12.097  19.564  0.00  0.00    +0.000 C 
ATOM      6  C   UNL     1      -0.250  10.829  18.820  0.00  0.00    +0.000 C 
ATOM      7  C   UNL     1       0.099  13.354  21.797  0.00  0.00    +0.000 C 
ATOM      8  C   UNL     1      -1.086  14.310  21.927  0.00  0.00    +0.000 C 
ATOM      9  N   UNL     1      -2.222  13.396  21.875  0.00  0.00    +0.000 N 
ATOM     10  C   UNL     1      -1.947  12.415  20.834  0.00  0.00    +0.000 C 
ENDROOT
BRANCH   9  11
ATOM     11  C   UNL     1      -3.532  13.782  22.069  0.00  0.00    +0.000 A 
ATOM     12  C   UNL     1      -4.000  15.055  21.703  0.00  0.00    +0.000 A 
ATOM     13  N   UNL     1      -5.268  15.513  21.849  0.00  0.00    +0.000 NA
ATOM     14  C   UNL     1      -6.153  14.646  22.376  0.00  0.00    +0.000 A 
ATOM     15  C   UNL     1      -5.820  13.359  22.749  0.00  0.00    +0.000 A 
ATOM     16  C   UNL     1      -4.500  12.926  22.589  0.00  0.00    +0.000 A 
BRANCH  15  17
ATOM     17  C   UNL     1      -6.807  12.499  23.307  0.00  0.00    +0.000 C 
ATOM     18  N   UNL     1      -7.588  11.779  23.776  0.00  0.00    +0.000 NA
ENDBRANCH  15  17
ENDBRANCH   9  11
BRANCH   1  19
ATOM     19  C   UNL     1       1.578   9.424  19.570  0.00  0.00    +0.000 C 
BRANCH  19  20
ATOM     20  C   UNL     1       2.223   8.325  18.678  0.00  0.00    +0.000 C 
BRANCH  20  23
ATOM     21  C   UNL     1       4.370   6.328  17.726  0.00  0.00    +0.000 C 
ATOM     22  C   UNL     1       3.401   6.039  18.838  0.00  0.00    +0.000 A 
ATOM     23  C   UNL     1       2.421   6.952  19.307  0.00  0.00    +0.000 A 
ATOM     24  C   UNL     1       1.595   6.574  20.405  0.00  0.00    +0.000 A 
ATOM     25  C   UNL     1       1.709   5.331  21.023  0.00  0.00    +0.000 A 
ATOM     26  C   UNL     1       2.629   4.451  20.499  0.00  0.00    +0.000 A 
ATOM     27  C   UNL     1       3.449   4.779  19.440  0.00  0.00    +0.000 A 
ATOM     28  C   UNL     1       4.280   3.600  19.106  0.00  0.00    +0.000 C 
ATOM     29  O   UNL     1       3.867   2.606  20.066  0.00  0.00    +0.000 OA
ATOM     30  C   UNL     1       2.901   3.080  20.908  0.00  0.00    +0.000 C 
ATOM     31  O   UNL     1       2.371   2.474  21.816  0.00  0.00    +0.000 OA
ENDBRANCH  20  23
BRANCH  20  32
ATOM     32  O   UNL     1       1.515   8.236  17.435  0.00  0.00    +0.000 OA
ATOM     33  H   UNL     1       1.576   9.119  17.028  0.00  0.00    +0.000 HD
ENDBRANCH  20  32
ENDBRANCH  19  20
ENDBRANCH   1  19
TORSDOF 6
ENDMDL
MODEL 6
REMARK VINA RESULT:      -7.3      4.817     10.262
REMARK  Name = 
REMARK  7 active torsions:
REMARK  status: ('A' for Active; 'I' for Inactive)
REMARK    1  A    between atoms: C_1  and  C_2
REMARK    2  A    between atoms: C_3  and  C_4
REMARK    3  A    between atoms: C_4  and  O_5
REMARK    4  A    between atoms: C_4  and  C_6
REMARK    5  A    between atoms: C_6  and  N_7
REMARK    6  A    between atoms: N_15  and  C_16
REMARK    7  A    between atoms: C_20  and  C_21
REMARK                            x       y       z     vdW  Elec       q    Type
REMARK                         _______ _______ _______ _____ _____    ______ ____
ROOT
ATOM      1  N   UNL     1       0.102  12.443  19.247  0.00  0.00    +0.000 NA
ATOM      2  C   UNL     1       1.466  12.021  19.615  0.00  0.00    +0.000 C 
ATOM      3  C   UNL     1       1.532  10.999  20.756  0.00  0.00    +0.000 C 
ATOM      4  C   UNL     1       0.630   9.773  20.495  0.00  0.00    +0.000 C 
ATOM      5  C   UNL     1      -0.774  10.234  20.074  0.00  0.00    +0.000 C 
ATOM      6  C   UNL     1      -0.689  11.240  18.913  0.00  0.00    +0.000 C 
ATOM      7  C   UNL     1       0.601   8.857  21.744  0.00  0.00    +0.000 C 
ATOM      8  C   UNL     1       1.002   7.473  21.239  0.00  0.00    +0.000 C 
ATOM      9  N   UNL     1       1.867   7.799  20.111  0.00  0.00    +0.000 N 
ATOM     10  C   UNL     1       1.240   8.894  19.381  0.00  0.00    +0.000 C 
ENDROOT
BRANCH   9  11
ATOM     11  C   UNL     1       2.577   6.864  19.387  0.00  0.00    +0.000 A 
ATOM     12  C   UNL     1       2.558   5.496  19.707  0.00  0.00    +0.000 A 
ATOM     13  N   UNL     1       3.217   4.511  19.048  0.00  0.00    +0.000 NA
ATOM     14  C   UNL     1       3.933   4.894  17.974  0.00  0.00    +0.000 A 
ATOM     15  C   UNL     1       4.007   6.205  17.544  0.00  0.00    +0.000 A 
ATOM     16  C   UNL     1       3.319   7.192  18.254  0.00  0.00    +0.000 A 
BRANCH  15  17
ATOM     17  C   UNL     1       4.791   6.538  16.404  0.00  0.00    +0.000 C 
ATOM     18  N   UNL     1       5.434   6.777  15.467  0.00  0.00    +0.000 NA
ENDBRANCH  15  17
ENDBRANCH   9  11
BRANCH   1  19
ATOM     19  C   UNL     1      -0.591  13.226  20.300  0.00  0.00    +0.000 C 
BRANCH  19  20
ATOM     20  C   UNL     1      -1.953  13.889  19.949  0.00  0.00    +0.000 C 
BRANCH  20  23
ATOM     21  C   UNL     1      -4.292  12.115  19.006  0.00  0.00    +0.000 C 
ATOM     22  C   UNL     1      -4.219  12.737  20.372  0.00  0.00    +0.000 A 
ATOM     23  C   UNL     1      -3.142  13.536  20.835  0.00  0.00    +0.000 A 
ATOM     24  C   UNL     1      -3.171  14.026  22.173  0.00  0.00    +0.000 A 
ATOM     25  C   UNL     1      -4.229  13.756  23.037  0.00  0.00    +0.000 A 
ATOM     26  C   UNL     1      -5.283  13.028  22.532  0.00  0.00    +0.000 A 
ATOM     27  C   UNL     1      -5.293  12.535  21.243  0.00  0.00    +0.000 A 
ATOM     28  C   UNL     1      -6.582  11.843  21.016  0.00  0.00    +0.000 C 
ATOM     29  O   UNL     1      -7.273  11.980  22.274  0.00  0.00    +0.000 OA
ATOM     30  C   UNL     1      -6.529  12.667  23.192  0.00  0.00    +0.000 C 
ATOM     31  O   UNL     1      -6.848  12.927  24.334  0.00  0.00    +0.000 OA
ENDBRANCH  20  23
BRANCH  20  32
ATOM     32  O   UNL     1      -1.785  15.308  19.838  0.00  0.00    +0.000 OA
ATOM     33  H   UNL     1      -2.248  15.694  20.603  0.00  0.00    +0.000 HD
ENDBRANCH  20  32
ENDBRANCH  19  20
ENDBRANCH   1  19
TORSDOF 6
ENDMDL
MODEL 7
REMARK VINA RESULT:      -7.3      3.123      4.416
REMARK  Name = 
REMARK  7 active torsions:
REMARK  status: ('A' for Active; 'I' for Inactive)
REMARK    1  A    between atoms: C_1  and  C_2
REMARK    2  A    between atoms: C_3  and  C_4
REMARK    3  A    between atoms: C_4  and  O_5
REMARK    4  A    between atoms: C_4  and  C_6
REMARK    5  A    between atoms: C_6  and  N_7
REMARK    6  A    between atoms: N_15  and  C_16
REMARK    7  A    between atoms: C_20  and  C_21
REMARK                            x       y       z     vdW  Elec       q    Type
REMARK                         _______ _______ _______ _____ _____    ______ ____
ROOT
ATOM      1  N   UNL     1       0.523   8.930  19.137  0.00  0.00    +0.000 NA
ATOM      2  C   UNL     1       0.344   9.133  20.586  0.00  0.00    +0.000 C 
ATOM      3  C   UNL     1       1.101  10.337  21.160  0.00  0.00    +0.000 C 
ATOM      4  C   UNL     1       0.806  11.638  20.384  0.00  0.00    +0.000 C 
ATOM      5  C   UNL     1       0.958  11.394  18.873  0.00  0.00    +0.000 C 
ATOM      6  C   UNL     1       0.133  10.172  18.435  0.00  0.00    +0.000 C 
ATOM      7  C   UNL     1       1.720  12.781  20.892  0.00  0.00    +0.000 C 
ATOM      8  C   UNL     1       0.771  13.918  21.268  0.00  0.00    +0.000 C 
ATOM      9  N   UNL     1      -0.435  13.194  21.653  0.00  0.00    +0.000 N 
ATOM     10  C   UNL     1      -0.629  12.121  20.686  0.00  0.00    +0.000 C 
ENDROOT
BRANCH   9  11
ATOM     11  C   UNL     1      -1.557  13.793  22.188  0.00  0.00    +0.000 A 
ATOM     12  C   UNL     1      -1.736  15.186  22.186  0.00  0.00    +0.000 A 
ATOM     13  N   UNL     1      -2.806  15.856  22.680  0.00  0.00    +0.000 NA
ATOM     14  C   UNL     1      -3.791  15.097  23.198  0.00  0.00    +0.000 A 
ATOM     15  C   UNL     1      -3.743  13.717  23.231  0.00  0.00    +0.000 A 
ATOM     16  C   UNL     1      -2.619  13.064  22.718  0.00  0.00    +0.000 A 
BRANCH  15  17
ATOM     17  C   UNL     1      -4.819  12.980  23.802  0.00  0.00    +0.000 C 
ATOM     18  N   UNL     1      -5.676  12.352  24.271  0.00  0.00    +0.000 NA
ENDBRANCH  15  17
ENDBRANCH   9  11
BRANCH   1  19
ATOM     19  C   UNL     1       1.901   8.542  18.748  0.00  0.00    +0.000 C 
BRANCH  19  20
ATOM     20  C   UNL     1       2.326   7.057  18.925  0.00  0.00    +0.000 C 
BRANCH  20  23
ATOM     21  C   UNL     1       2.461   4.137  17.946  0.00  0.00    +0.000 C 
ATOM     22  C   UNL     1       3.478   5.183  17.583  0.00  0.00    +0.000 A 
ATOM     23  C   UNL     1       3.422   6.537  18.003  0.00  0.00    +0.000 A 
ATOM     24  C   UNL     1       4.423   7.443  17.547  0.00  0.00    +0.000 A 
ATOM     25  C   UNL     1       5.463   7.038  16.713  0.00  0.00    +0.000 A 
ATOM     26  C   UNL     1       5.516   5.703  16.378  0.00  0.00    +0.000 A 
ATOM     27  C   UNL     1       4.566   4.795  16.797  0.00  0.00    +0.000 A 
ATOM     28  C   UNL     1       4.946   3.455  16.297  0.00  0.00    +0.000 C 
ATOM     29  O   UNL     1       6.164   3.693  15.563  0.00  0.00    +0.000 OA
ATOM     30  C   UNL     1       6.522   5.012  15.585  0.00  0.00    +0.000 C 
ATOM     31  O   UNL     1       7.492   5.508  15.050  0.00  0.00    +0.000 OA
ENDBRANCH  20  23
BRANCH  20  32
ATOM     32  O   UNL     1       2.635   6.805  20.301  0.00  0.00    +0.000 OA
ATOM     33  H   UNL     1       3.391   6.190  20.299  0.00  0.00    +0.000 HD
ENDBRANCH  20  32
ENDBRANCH  19  20
ENDBRANCH   1  19
TORSDOF 6
ENDMDL
MODEL 8
REMARK VINA RESULT:      -7.2      3.514      4.711
REMARK  Name = 
REMARK  7 active torsions:
REMARK  status: ('A' for Active; 'I' for Inactive)
REMARK    1  A    between atoms: C_1  and  C_2
REMARK    2  A    between atoms: C_3  and  C_4
REMARK    3  A    between atoms: C_4  and  O_5
REMARK    4  A    between atoms: C_4  and  C_6
REMARK    5  A    between atoms: C_6  and  N_7
REMARK    6  A    between atoms: N_15  and  C_16
REMARK    7  A    between atoms: C_20  and  C_21
REMARK                            x       y       z     vdW  Elec       q    Type
REMARK                         _______ _______ _______ _____ _____    ______ ____
ROOT
ATOM      1  N   UNL     1       0.992   8.054  21.427  0.00  0.00    +0.000 NA
ATOM      2  C   UNL     1       1.401   9.164  22.306  0.00  0.00    +0.000 C 
ATOM      3  C   UNL     1       1.407  10.543  21.634  0.00  0.00    +0.000 C 
ATOM      4  C   UNL     1       0.066  10.859  20.938  0.00  0.00    +0.000 C 
ATOM      5  C   UNL     1      -0.363   9.673  20.058  0.00  0.00    +0.000 C 
ATOM      6  C   UNL     1      -0.339   8.364  20.865  0.00  0.00    +0.000 C 
ATOM      7  C   UNL     1       0.180  12.179  20.135  0.00  0.00    +0.000 C 
ATOM      8  C   UNL     1      -0.966  13.056  20.635  0.00  0.00    +0.000 C 
ATOM      9  N   UNL     1      -1.128  12.592  22.009  0.00  0.00    +0.000 N 
ATOM     10  C   UNL     1      -1.026  11.139  21.995  0.00  0.00    +0.000 C 
ENDROOT
BRANCH   9  11
ATOM     11  C   UNL     1      -1.984  13.171  22.923  0.00  0.00    +0.000 A 
ATOM     12  C   UNL     1      -1.577  14.208  23.778  0.00  0.00    +0.000 A 
ATOM     13  N   UNL     1      -2.350  14.837  24.697  0.00  0.00    +0.000 NA
ATOM     14  C   UNL     1      -3.632  14.432  24.768  0.00  0.00    +0.000 A 
ATOM     15  C   UNL     1      -4.157  13.440  23.961  0.00  0.00    +0.000 A 
ATOM     16  C   UNL     1      -3.326  12.811  23.031  0.00  0.00    +0.000 A 
BRANCH  15  17
ATOM     17  C   UNL     1      -5.521  13.057  24.098  0.00  0.00    +0.000 C 
ATOM     18  N   UNL     1      -6.640  12.758  24.179  0.00  0.00    +0.000 NA
ENDBRANCH  15  17
ENDBRANCH   9  11
BRANCH   1  19
ATOM     19  C   UNL     1       1.950   7.772  20.329  0.00  0.00    +0.000 C 
BRANCH  19  20
ATOM     20  C   UNL     1       2.228   6.287  19.958  0.00  0.00    +0.000 C 
BRANCH  20  23
ATOM     21  C   UNL     1       2.801   7.650  17.252  0.00  0.00    +0.000 C 
ATOM     22  C   UNL     1       3.707   6.625  17.875  0.00  0.00    +0.000 A 
ATOM     23  C   UNL     1       3.475   6.004  19.129  0.00  0.00    +0.000 A 
ATOM     24  C   UNL     1       4.440   5.083  19.633  0.00  0.00    +0.000 A 
ATOM     25  C   UNL     1       5.598   4.765  18.926  0.00  0.00    +0.000 A 
ATOM     26  C   UNL     1       5.756   5.343  17.686  0.00  0.00    +0.000 A 
ATOM     27  C   UNL     1       4.847   6.239  17.165  0.00  0.00    +0.000 A 
ATOM     28  C   UNL     1       5.298   6.629  15.810  0.00  0.00    +0.000 C 
ATOM     29  O   UNL     1       6.525   5.894  15.630  0.00  0.00    +0.000 OA
ATOM     30  C   UNL     1       6.828   5.132  16.724  0.00  0.00    +0.000 C 
ATOM     31  O   UNL     1       7.799   4.417  16.862  0.00  0.00    +0.000 OA
ENDBRANCH  20  23
BRANCH  20  32
ATOM     32  O   UNL     1       2.190   5.480  21.141  0.00  0.00    +0.000 OA
ATOM     33  H   UNL     1       2.123   6.101  21.888  0.00  0.00    +0.000 HD
ENDBRANCH  20  32
ENDBRANCH  19  20
ENDBRANCH   1  19
TORSDOF 6
ENDMDL
MODEL 9
REMARK VINA RESULT:      -7.2      4.923     10.552
REMARK  Name = 
REMARK  7 active torsions:
REMARK  status: ('A' for Active; 'I' for Inactive)
REMARK    1  A    between atoms: C_1  and  C_2
REMARK    2  A    between atoms: C_3  and  C_4
REMARK    3  A    between atoms: C_4  and  O_5
REMARK    4  A    between atoms: C_4  and  C_6
REMARK    5  A    between atoms: C_6  and  N_7
REMARK    6  A    between atoms: N_15  and  C_16
REMARK    7  A    between atoms: C_20  and  C_21
REMARK                            x       y       z     vdW  Elec       q    Type
REMARK                         _______ _______ _______ _____ _____    ______ ____
ROOT
ATOM      1  N   UNL     1      -0.348  12.240  19.126  0.00  0.00    +0.000 NA
ATOM      2  C   UNL     1       1.095  11.988  19.287  0.00  0.00    +0.000 C 
ATOM      3  C   UNL     1       1.446  10.953  20.363  0.00  0.00    +0.000 C 
ATOM      4  C   UNL     1       0.675   9.629  20.175  0.00  0.00    +0.000 C 
ATOM      5  C   UNL     1      -0.821   9.917  19.968  0.00  0.00    +0.000 C 
ATOM      6  C   UNL     1      -1.024  10.955  18.851  0.00  0.00    +0.000 C 
ATOM      7  C   UNL     1       0.934   8.686  21.376  0.00  0.00    +0.000 C 
ATOM      8  C   UNL     1       1.429   7.378  20.762  0.00  0.00    +0.000 C 
ATOM      9  N   UNL     1       2.080   7.841  19.541  0.00  0.00    +0.000 N 
ATOM     10  C   UNL     1       1.227   8.864  18.951  0.00  0.00    +0.000 C 
ENDROOT
BRANCH   9  11
ATOM     11  C   UNL     1       2.791   7.023  18.688  0.00  0.00    +0.000 A 
ATOM     12  C   UNL     1       3.742   7.527  17.786  0.00  0.00    +0.000 A 
ATOM     13  N   UNL     1       4.489   6.798  16.920  0.00  0.00    +0.000 NA
ATOM     14  C   UNL     1       4.306   5.465  16.958  0.00  0.00    +0.000 A 
ATOM     15  C   UNL     1       3.420   4.849  17.821  0.00  0.00    +0.000 A 
ATOM     16  C   UNL     1       2.663   5.635  18.693  0.00  0.00    +0.000 A 
BRANCH  15  17
ATOM     17  C   UNL     1       3.272   3.433  17.800  0.00  0.00    +0.000 C 
ATOM     18  N   UNL     1       3.165   2.277  17.813  0.00  0.00    +0.000 NA
ENDBRANCH  15  17
ENDBRANCH   9  11
BRANCH   1  19
ATOM     19  C   UNL     1      -0.978  12.901  20.296  0.00  0.00    +0.000 C 
BRANCH  19  20
ATOM     20  C   UNL     1      -2.261  13.748  20.062  0.00  0.00    +0.000 C 
BRANCH  20  23
ATOM     21  C   UNL     1      -4.625  12.093  18.977  0.00  0.00    +0.000 C 
ATOM     22  C   UNL     1      -4.573  12.652  20.371  0.00  0.00    +0.000 A 
ATOM     23  C   UNL     1      -3.485  13.396  20.898  0.00  0.00    +0.000 A 
ATOM     24  C   UNL     1      -3.537  13.828  22.255  0.00  0.00    +0.000 A 
ATOM     25  C   UNL     1      -4.628  13.555  23.078  0.00  0.00    +0.000 A 
ATOM     26  C   UNL     1      -5.689  12.884  22.512  0.00  0.00    +0.000 A 
ATOM     27  C   UNL     1      -5.677  12.447  21.203  0.00  0.00    +0.000 A 
ATOM     28  C   UNL     1      -6.979  11.808  20.910  0.00  0.00    +0.000 C 
ATOM     29  O   UNL     1      -7.701  11.912  22.154  0.00  0.00    +0.000 OA
ATOM     30  C   UNL     1      -6.963  12.534  23.121  0.00  0.00    +0.000 C 
ATOM     31  O   UNL     1      -7.307  12.755  24.264  0.00  0.00    +0.000 OA
ENDBRANCH  20  23
BRANCH  20  32
ATOM     32  O   UNL     1      -1.943  15.142  20.159  0.00  0.00    +0.000 OA
ATOM     33  H   UNL     1      -1.055  15.187  20.559  0.00  0.00    +0.000 HD
ENDBRANCH  20  32
ENDBRANCH  19  20
ENDBRANCH   1  19
TORSDOF 6
ENDMDL
