MODEL 1
REMARK VINA RESULT:      -7.7      0.000      0.000
REMARK  Name = 
REMARK  11 active torsions:
REMARK  status: ('A' for Active; 'I' for Inactive)
REMARK    1  A    between atoms: C_2  and  C_3
REMARK    2  A    between atoms: C_6  and  O_7
REMARK    3  A    between atoms: O_7  and  C_8
REMARK    4  A    between atoms: C_8  and  C_9
REMARK    5  A    between atoms: C_9  and  N_10
REMARK    6  A    between atoms: N_14  and  C_15
REMARK    7  A    between atoms: C_15  and  C_16
REMARK    8  A    between atoms: C_16  and  C_17
REMARK    9  A    between atoms: C_17  and  N_18
REMARK   10  A    between atoms: N_18  and  S_19
REMARK   11  A    between atoms: S_19  and  C_22
REMARK                            x       y       z     vdW  Elec       q    Type
REMARK                         _______ _______ _______ _____ _____    ______ ____
ROOT
ATOM      1  N   UNL     1       3.706   2.818  18.369  0.00  0.00    +0.000 NA
ATOM      2  C   UNL     1       3.072   2.597  19.678  0.00  0.00    +0.000 C 
ATOM      3  C   UNL     1       2.021   3.638  20.122  0.00  0.00    +0.000 C 
ATOM      4  C   UNL     1       2.527   5.072  20.419  0.00  0.00    +0.000 C 
ATOM      5  N   UNL     1       2.643   6.028  19.298  0.00  0.00    +0.000 NA
ATOM      6  C   UNL     1       1.897   5.642  18.083  0.00  0.00    +0.000 C 
ATOM      7  C   UNL     1       1.531   4.154  17.906  0.00  0.00    +0.000 C 
ATOM      8  C   UNL     1       2.656   3.207  17.400  0.00  0.00    +0.000 C 
ATOM      9  O   UNL     1       0.968   3.671  19.142  0.00  0.00    +0.000 OA
ENDROOT
BRANCH   1  10
ATOM     10  C   UNL     1       4.808   3.780  18.353  0.00  0.00    +0.000 C 
BRANCH  10  11
ATOM     11  C   UNL     1       5.271   4.295  16.989  0.00  0.00    +0.000 C 
BRANCH  11  12
ATOM     12  O   UNL     1       6.691   4.308  17.075  0.00  0.00    +0.000 OA
BRANCH  12  16
ATOM     13  C   UNL     1       8.198   7.954  18.303  0.00  0.00    +0.000 A 
ATOM     14  C   UNL     1       7.549   7.797  17.079  0.00  0.00    +0.000 A 
ATOM     15  C   UNL     1       7.113   6.535  16.697  0.00  0.00    +0.000 A 
ATOM     16  C   UNL     1       7.282   5.437  17.540  0.00  0.00    +0.000 A 
ATOM     17  C   UNL     1       7.925   5.586  18.764  0.00  0.00    +0.000 A 
ATOM     18  C   UNL     1       8.394   6.847  19.140  0.00  0.00    +0.000 A 
BRANCH  13  20
ATOM     19  N   UNL     1       9.036  10.302  19.011  0.00  0.00    +0.000 NA
ATOM     20  C   UNL     1       8.658   9.249  18.704  0.00  0.00    +0.000 C 
ENDBRANCH  13  20
ENDBRANCH  12  16
ENDBRANCH  11  12
ENDBRANCH  10  11
ENDBRANCH   1  10
BRANCH   5  21
ATOM     21  C   UNL     1       2.314   7.411  19.693  0.00  0.00    +0.000 C 
BRANCH  21  22
ATOM     22  C   UNL     1       1.209   7.518  20.752  0.00  0.00    +0.000 C 
BRANCH  22  23
ATOM     23  C   UNL     1       1.117   8.942  21.279  0.00  0.00    +0.000 C 
BRANCH  23  24
ATOM     24  N   UNL     1      -0.218   9.499  21.028  0.00  0.00    +0.000 NA
ATOM     25  H   UNL     1      -0.907   9.439  21.778  0.00  0.00    +0.000 HD
BRANCH  24  26
ATOM     26  S   UNL     1      -0.235  11.036  20.329  0.00  0.00    +0.000 S 
ATOM     27  O   UNL     1      -0.780  11.954  21.306  0.00  0.00    +0.000 OA
ATOM     28  O   UNL     1       1.062  11.250  19.733  0.00  0.00    +0.000 OA
BRANCH  26  29
ATOM     29  C   UNL     1      -1.360  10.890  18.995  0.00  0.00    +0.000 A 
ATOM     30  C   UNL     1      -2.571  11.590  19.046  0.00  0.00    +0.000 A 
ATOM     31  C   UNL     1      -3.472  11.485  17.986  0.00  0.00    +0.000 A 
ATOM     32  C   UNL     1      -3.156  10.684  16.893  0.00  0.00    +0.000 A 
ATOM     33  C   UNL     1      -1.945   9.985  16.856  0.00  0.00    +0.000 A 
ATOM     34  C   UNL     1      -1.050  10.089  17.914  0.00  0.00    +0.000 A 
ATOM     35  F   UNL     1       0.107   9.413  17.850  0.00  0.00    +0.000 F 
ENDBRANCH  26  29
ENDBRANCH  24  26
ENDBRANCH  23  24
ENDBRANCH  22  23
ENDBRANCH  21  22
ENDBRANCH   5  21
TORSDOF 11
ENDMDL
MODEL 2
REMARK VINA RESULT:      -7.4      1.984      2.602
REMARK  Name = 
REMARK  11 active torsions:
REMARK  status: ('A' for Active; 'I' for Inactive)
REMARK    1  A    between atoms: C_2  and  C_3
REMARK    2  A    between atoms: C_6  and  O_7
REMARK    3  A    between atoms: O_7  and  C_8
REMARK    4  A    between atoms: C_8  and  C_9
REMARK    5  A    between atoms: C_9  and  N_10
REMARK    6  A    between atoms: N_14  and  C_15
REMARK    7  A    between atoms: C_15  and  C_16
REMARK    8  A    between atoms: C_16  and  C_17
REMARK    9  A    between atoms: C_17  and  N_18
REMARK   10  A    between atoms: N_18  and  S_19
REMARK   11  A    between atoms: S_19  and  C_22
REMARK                            x       y       z     vdW  Elec       q    Type
REMARK                         _______ _______ _______ _____ _____    ______ ____
ROOT
ATOM      1  N   UNL     1       3.645   2.595  18.829  0.00  0.00    +0.000 NA
ATOM      2  C   UNL     1       3.012   2.614  20.157  0.00  0.00    +0.000 C 
ATOM      3  C   UNL     1       1.966   3.724  20.407  0.00  0.00    +0.000 C 
ATOM      4  C   UNL     1       2.479   5.185  20.442  0.00  0.00    +0.000 C 
ATOM      5  N   UNL     1       2.598   5.924  19.168  0.00  0.00    +0.000 NA
ATOM      6  C   UNL     1       1.850   5.330  18.043  0.00  0.00    +0.000 C 
ATOM      7  C   UNL     1       1.476   3.837  18.135  0.00  0.00    +0.000 C 
ATOM      8  C   UNL     1       2.596   2.808  17.806  0.00  0.00    +0.000 C 
ATOM      9  O   UNL     1       0.912   3.585  19.437  0.00  0.00    +0.000 OA
ENDROOT
BRANCH   1  10
ATOM     10  C   UNL     1       4.752   3.532  18.641  0.00  0.00    +0.000 C 
BRANCH  10  11
ATOM     11  C   UNL     1       5.163   3.856  17.203  0.00  0.00    +0.000 C 
BRANCH  11  12
ATOM     12  O   UNL     1       6.550   4.160  17.287  0.00  0.00    +0.000 OA
BRANCH  12  16
ATOM     13  C   UNL     1       7.958   7.964  18.076  0.00  0.00    +0.000 A 
ATOM     14  C   UNL     1       8.291   6.872  18.876  0.00  0.00    +0.000 A 
ATOM     15  C   UNL     1       7.742   5.628  18.593  0.00  0.00    +0.000 A 
ATOM     16  C   UNL     1       6.897   5.454  17.498  0.00  0.00    +0.000 A 
ATOM     17  C   UNL     1       6.563   6.538  16.691  0.00  0.00    +0.000 A 
ATOM     18  C   UNL     1       7.086   7.798  16.990  0.00  0.00    +0.000 A 
BRANCH  13  20
ATOM     19  N   UNL     1       8.959  10.293  18.613  0.00  0.00    +0.000 NA
ATOM     20  C   UNL     1       8.511   9.253  18.362  0.00  0.00    +0.000 C 
ENDBRANCH  13  20
ENDBRANCH  12  16
ENDBRANCH  11  12
ENDBRANCH  10  11
ENDBRANCH   1  10
BRANCH   5  21
ATOM     21  C   UNL     1       2.276   7.357  19.309  0.00  0.00    +0.000 C 
BRANCH  21  22
ATOM     22  C   UNL     1       2.530   8.187  18.044  0.00  0.00    +0.000 C 
BRANCH  22  23
ATOM     23  C   UNL     1       1.306   9.023  17.706  0.00  0.00    +0.000 C 
BRANCH  23  24
ATOM     24  N   UNL     1       1.443  10.381  18.248  0.00  0.00    +0.000 NA
ATOM     25  H   UNL     1       1.457  11.158  17.587  0.00  0.00    +0.000 HD
BRANCH  24  26
ATOM     26  S   UNL     1       0.439  10.736  19.558  0.00  0.00    +0.000 S 
ATOM     27  O   UNL     1      -0.901  10.321  19.207  0.00  0.00    +0.000 OA
ATOM     28  O   UNL     1       1.096  10.245  20.746  0.00  0.00    +0.000 OA
BRANCH  26  29
ATOM     29  C   UNL     1       0.483  12.483  19.673  0.00  0.00    +0.000 A 
ATOM     30  C   UNL     1       1.169  13.079  20.738  0.00  0.00    +0.000 A 
ATOM     31  C   UNL     1       1.214  14.469  20.836  0.00  0.00    +0.000 A 
ATOM     32  C   UNL     1       0.574  15.246  19.876  0.00  0.00    +0.000 A 
ATOM     33  C   UNL     1      -0.113  14.641  18.819  0.00  0.00    +0.000 A 
ATOM     34  C   UNL     1      -0.159  13.254  18.724  0.00  0.00    +0.000 A 
ATOM     35  F   UNL     1      -0.819  12.699  17.697  0.00  0.00    +0.000 F 
ENDBRANCH  26  29
ENDBRANCH  24  26
ENDBRANCH  23  24
ENDBRANCH  22  23
ENDBRANCH  21  22
ENDBRANCH   5  21
TORSDOF 11
ENDMDL
MODEL 3
REMARK VINA RESULT:      -7.3      5.403     10.378
REMARK  Name = 
REMARK  11 active torsions:
REMARK  status: ('A' for Active; 'I' for Inactive)
REMARK    1  A    between atoms: C_2  and  C_3
REMARK    2  A    between atoms: C_6  and  O_7
REMARK    3  A    between atoms: O_7  and  C_8
REMARK    4  A    between atoms: C_8  and  C_9
REMARK    5  A    between atoms: C_9  and  N_10
REMARK    6  A    between atoms: N_14  and  C_15
REMARK    7  A    between atoms: C_15  and  C_16
REMARK    8  A    between atoms: C_16  and  C_17
REMARK    9  A    between atoms: C_17  and  N_18
REMARK   10  A    between atoms: N_18  and  S_19
REMARK   11  A    between atoms: S_19  and  C_22
REMARK                            x       y       z     vdW  Elec       q    Type
REMARK                         _______ _______ _______ _____ _____    ______ ____
ROOT
ATOM      1  N   UNL     1       9.724  14.578  18.798  0.00  0.00    +0.000 NA
ATOM      2  C   UNL     1      10.245  14.228  20.127  0.00  0.00    +0.000 C 
ATOM      3  C   UNL     1      10.745  12.778  20.314  0.00  0.00    +0.000 C 
ATOM      4  C   UNL     1       9.686  11.650  20.244  0.00  0.00    +0.000 C 
ATOM      5  N   UNL     1       9.328  11.096  18.922  0.00  0.00    +0.000 NA
ATOM      6  C   UNL     1      10.295  11.400  17.848  0.00  0.00    +0.000 C 
ATOM      7  C   UNL     1      11.234  12.607  18.046  0.00  0.00    +0.000 C 
ATOM      8  C   UNL     1      10.636  14.017  17.774  0.00  0.00    +0.000 C 
ATOM      9  O   UNL     1      11.802  12.534  19.368  0.00  0.00    +0.000 OA
ENDROOT
BRANCH   1  10
ATOM     10  C   UNL     1       8.341  14.180  18.533  0.00  0.00    +0.000 C 
BRANCH  10  11
ATOM     11  C   UNL     1       7.397  15.246  17.973  0.00  0.00    +0.000 C 
BRANCH  11  12
ATOM     12  O   UNL     1       6.556  15.589  19.068  0.00  0.00    +0.000 OA
BRANCH  12  16
ATOM     13  C   UNL     1       2.622  16.681  18.426  0.00  0.00    +0.000 A 
ATOM     14  C   UNL     1       3.345  17.134  19.529  0.00  0.00    +0.000 A 
ATOM     15  C   UNL     1       4.646  16.688  19.721  0.00  0.00    +0.000 A 
ATOM     16  C   UNL     1       5.247  15.827  18.803  0.00  0.00    +0.000 A 
ATOM     17  C   UNL     1       4.535  15.373  17.697  0.00  0.00    +0.000 A 
ATOM     18  C   UNL     1       3.215  15.793  17.517  0.00  0.00    +0.000 A 
BRANCH  13  20
ATOM     19  N   UNL     1       0.182  17.475  18.069  0.00  0.00    +0.000 NA
ATOM     20  C   UNL     1       1.278  17.127  18.223  0.00  0.00    +0.000 C 
ENDBRANCH  13  20
ENDBRANCH  12  16
ENDBRANCH  11  12
ENDBRANCH  10  11
ENDBRANCH   1  10
BRANCH   5  21
ATOM     21  C   UNL     1       9.041   9.650  18.969  0.00  0.00    +0.000 C 
BRANCH  21  22
ATOM     22  C   UNL     1       8.302   9.114  17.736  0.00  0.00    +0.000 C 
BRANCH  22  23
ATOM     23  C   UNL     1       7.822   7.692  17.983  0.00  0.00    +0.000 C 
BRANCH  23  24
ATOM     24  N   UNL     1       6.722   7.353  17.072  0.00  0.00    +0.000 NA
ATOM     25  H   UNL     1       6.597   7.932  16.241  0.00  0.00    +0.000 HD
BRANCH  24  26
ATOM     26  S   UNL     1       6.594   5.717  16.677  0.00  0.00    +0.000 S 
ATOM     27  O   UNL     1       6.729   5.602  15.241  0.00  0.00    +0.000 OA
ATOM     28  O   UNL     1       7.458   4.991  17.577  0.00  0.00    +0.000 OA
BRANCH  26  29
ATOM     29  C   UNL     1       4.958   5.290  17.131  0.00  0.00    +0.000 A 
ATOM     30  C   UNL     1       4.161   6.242  17.780  0.00  0.00    +0.000 A 
ATOM     31  C   UNL     1       2.855   5.914  18.142  0.00  0.00    +0.000 A 
ATOM     32  C   UNL     1       2.361   4.645  17.856  0.00  0.00    +0.000 A 
ATOM     33  C   UNL     1       3.167   3.701  17.213  0.00  0.00    +0.000 A 
ATOM     34  C   UNL     1       4.470   4.028  16.855  0.00  0.00    +0.000 A 
ATOM     35  F   UNL     1       5.220   3.106  16.233  0.00  0.00    +0.000 F 
ENDBRANCH  26  29
ENDBRANCH  24  26
ENDBRANCH  23  24
ENDBRANCH  22  23
ENDBRANCH  21  22
ENDBRANCH   5  21
TORSDOF 11
ENDMDL
MODEL 4
REMARK VINA RESULT:      -7.3      1.528      1.876
REMARK  Name = 
REMARK  11 active torsions:
REMARK  status: ('A' for Active; 'I' for Inactive)
REMARK    1  A    between atoms: C_2  and  C_3
REMARK    2  A    between atoms: C_6  and  O_7
REMARK    3  A    between atoms: O_7  and  C_8
REMARK    4  A    between atoms: C_8  and  C_9
REMARK    5  A    between atoms: C_9  and  N_10
REMARK    6  A    between atoms: N_14  and  C_15
REMARK    7  A    between atoms: C_15  and  C_16
REMARK    8  A    between atoms: C_16  and  C_17
REMARK    9  A    between atoms: C_17  and  N_18
REMARK   10  A    between atoms: N_18  and  S_19
REMARK   11  A    between atoms: S_19  and  C_22
REMARK                            x       y       z     vdW  Elec       q    Type
REMARK                         _______ _______ _______ _____ _____    ______ ____
ROOT
ATOM      1  N   UNL     1       3.314   2.562  19.009  0.00  0.00    +0.000 NA
ATOM      2  C   UNL     1       3.145   3.057  20.383  0.00  0.00    +0.000 C 
ATOM      3  C   UNL     1       2.484   4.444  20.542  0.00  0.00    +0.000 C 
ATOM      4  C   UNL     1       3.274   5.669  20.016  0.00  0.00    +0.000 C 
ATOM      5  N   UNL     1       3.139   6.040  18.592  0.00  0.00    +0.000 NA
ATOM      6  C   UNL     1       1.971   5.446  17.911  0.00  0.00    +0.000 C 
ATOM      7  C   UNL     1       1.344   4.180  18.531  0.00  0.00    +0.000 C 
ATOM      8  C   UNL     1       2.066   2.830  18.258  0.00  0.00    +0.000 C 
ATOM      9  O   UNL     1       1.175   4.398  19.945  0.00  0.00    +0.000 OA
ENDROOT
BRANCH   1  10
ATOM     10  C   UNL     1       4.476   3.080  18.286  0.00  0.00    +0.000 C 
BRANCH  10  11
ATOM     11  C   UNL     1       4.292   3.410  16.803  0.00  0.00    +0.000 C 
BRANCH  11  12
ATOM     12  O   UNL     1       5.615   3.566  16.306  0.00  0.00    +0.000 OA
BRANCH  12  16
ATOM     13  C   UNL     1       7.392   7.099  17.506  0.00  0.00    +0.000 A 
ATOM     14  C   UNL     1       6.333   7.075  16.600  0.00  0.00    +0.000 A 
ATOM     15  C   UNL     1       5.814   5.853  16.191  0.00  0.00    +0.000 A 
ATOM     16  C   UNL     1       6.313   4.658  16.708  0.00  0.00    +0.000 A 
ATOM     17  C   UNL     1       7.366   4.673  17.616  0.00  0.00    +0.000 A 
ATOM     18  C   UNL     1       7.914   5.897  18.006  0.00  0.00    +0.000 A 
BRANCH  13  20
ATOM     19  N   UNL     1       8.383   9.362  18.287  0.00  0.00    +0.000 NA
ATOM     20  C   UNL     1       7.941   8.351  17.927  0.00  0.00    +0.000 C 
ENDBRANCH  13  20
ENDBRANCH  12  16
ENDBRANCH  11  12
ENDBRANCH  10  11
ENDBRANCH   1  10
BRANCH   5  21
ATOM     21  C   UNL     1       3.182   7.498  18.376  0.00  0.00    +0.000 C 
BRANCH  21  22
ATOM     22  C   UNL     1       1.919   8.075  17.724  0.00  0.00    +0.000 C 
BRANCH  22  23
ATOM     23  C   UNL     1       1.249   9.071  18.658  0.00  0.00    +0.000 C 
BRANCH  23  24
ATOM     24  N   UNL     1       0.970  10.330  17.955  0.00  0.00    +0.000 NA
ATOM     25  H   UNL     1       0.582  10.274  17.013  0.00  0.00    +0.000 HD
BRANCH  24  26
ATOM     26  S   UNL     1       0.153  11.495  18.864  0.00  0.00    +0.000 S 
ATOM     27  O   UNL     1       0.348  11.175  20.262  0.00  0.00    +0.000 OA
ATOM     28  O   UNL     1       0.512  12.786  18.327  0.00  0.00    +0.000 OA
BRANCH  26  29
ATOM     29  C   UNL     1      -1.533  11.256  18.455  0.00  0.00    +0.000 A 
ATOM     30  C   UNL     1      -1.864  10.369  17.424  0.00  0.00    +0.000 A 
ATOM     31  C   UNL     1      -3.204  10.168  17.093  0.00  0.00    +0.000 A 
ATOM     32  C   UNL     1      -4.194  10.852  17.791  0.00  0.00    +0.000 A 
ATOM     33  C   UNL     1      -3.851  11.740  18.815  0.00  0.00    +0.000 A 
ATOM     34  C   UNL     1      -2.515  11.942  19.142  0.00  0.00    +0.000 A 
ATOM     35  F   UNL     1      -2.214  12.794  20.133  0.00  0.00    +0.000 F 
ENDBRANCH  26  29
ENDBRANCH  24  26
ENDBRANCH  23  24
ENDBRANCH  22  23
ENDBRANCH  21  22
ENDBRANCH   5  21
TORSDOF 11
ENDMDL
MODEL 5
REMARK VINA RESULT:      -7.3      4.765      9.200
REMARK  Name = 
REMARK  11 active torsions:
REMARK  status: ('A' for Active; 'I' for Inactive)
REMARK    1  A    between atoms: C_2  and  C_3
REMARK    2  A    between atoms: C_6  and  O_7
REMARK    3  A    between atoms: O_7  and  C_8
REMARK    4  A    between atoms: C_8  and  C_9
REMARK    5  A    between atoms: C_9  and  N_10
REMARK    6  A    between atoms: N_14  and  C_15
REMARK    7  A    between atoms: C_15  and  C_16
REMARK    8  A    between atoms: C_16  and  C_17
REMARK    9  A    between atoms: C_17  and  N_18
REMARK   10  A    between atoms: N_18  and  S_19
REMARK   11  A    between atoms: S_19  and  C_22
REMARK                            x       y       z     vdW  Elec       q    Type
REMARK                         _______ _______ _______ _____ _____    ______ ____
ROOT
ATOM      1  N   UNL     1       4.674   5.079  17.203  0.00  0.00    +0.000 NA
ATOM      2  C   UNL     1       5.382   5.338  15.940  0.00  0.00    +0.000 C 
ATOM      3  C   UNL     1       6.888   5.665  16.047  0.00  0.00    +0.000 C 
ATOM      4  C   UNL     1       7.276   6.997  16.735  0.00  0.00    +0.000 C 
ATOM      5  N   UNL     1       7.418   7.019  18.206  0.00  0.00    +0.000 NA
ATOM      6  C   UNL     1       7.557   5.687  18.828  0.00  0.00    +0.000 C 
ATOM      7  C   UNL     1       7.053   4.465  18.034  0.00  0.00    +0.000 C 
ATOM      8  C   UNL     1       5.521   4.201  18.043  0.00  0.00    +0.000 C 
ATOM      9  O   UNL     1       7.552   4.558  16.685  0.00  0.00    +0.000 OA
ENDROOT
BRANCH   1  10
ATOM     10  C   UNL     1       4.255   6.265  17.949  0.00  0.00    +0.000 C 
BRANCH  10  11
ATOM     11  C   UNL     1       2.757   6.437  18.213  0.00  0.00    +0.000 C 
BRANCH  11  12
ATOM     12  O   UNL     1       2.687   7.030  19.504  0.00  0.00    +0.000 OA
BRANCH  12  16
ATOM     13  C   UNL     1       0.015  10.180  19.615  0.00  0.00    +0.000 A 
ATOM     14  C   UNL     1       0.711   9.842  18.455  0.00  0.00    +0.000 A 
ATOM     15  C   UNL     1       1.638   8.808  18.494  0.00  0.00    +0.000 A 
ATOM     16  C   UNL     1       1.847   8.083  19.666  0.00  0.00    +0.000 A 
ATOM     17  C   UNL     1       1.153   8.411  20.827  0.00  0.00    +0.000 A 
ATOM     18  C   UNL     1       0.244   9.470  20.802  0.00  0.00    +0.000 A 
BRANCH  13  20
ATOM     19  N   UNL     1      -1.706  12.117  19.586  0.00  0.00    +0.000 NA
ATOM     20  C   UNL     1      -0.937  11.249  19.588  0.00  0.00    +0.000 C 
ENDBRANCH  13  20
ENDBRANCH  12  16
ENDBRANCH  11  12
ENDBRANCH  10  11
ENDBRANCH   1  10
BRANCH   5  21
ATOM     21  C   UNL     1       8.492   7.921  18.662  0.00  0.00    +0.000 C 
BRANCH  21  22
ATOM     22  C   UNL     1       8.400   9.345  18.097  0.00  0.00    +0.000 C 
BRANCH  22  23
ATOM     23  C   UNL     1       9.044  10.336  19.054  0.00  0.00    +0.000 C 
BRANCH  23  24
ATOM     24  N   UNL     1       9.704  11.416  18.310  0.00  0.00    +0.000 NA
ATOM     25  H   UNL     1       9.120  12.170  17.947  0.00  0.00    +0.000 HD
BRANCH  24  26
ATOM     26  S   UNL     1      11.095  12.042  19.034  0.00  0.00    +0.000 S 
ATOM     27  O   UNL     1      10.939  11.911  20.466  0.00  0.00    +0.000 OA
ATOM     28  O   UNL     1      12.229  11.474  18.343  0.00  0.00    +0.000 OA
BRANCH  26  29
ATOM     29  C   UNL     1      11.075  13.741  18.610  0.00  0.00    +0.000 A 
ATOM     30  C   UNL     1      11.006  14.696  19.632  0.00  0.00    +0.000 A 
ATOM     31  C   UNL     1      10.994  16.052  19.306  0.00  0.00    +0.000 A 
ATOM     32  C   UNL     1      11.049  16.438  17.970  0.00  0.00    +0.000 A 
ATOM     33  C   UNL     1      11.113  15.475  16.958  0.00  0.00    +0.000 A 
ATOM     34  C   UNL     1      11.122  14.123  17.285  0.00  0.00    +0.000 A 
ATOM     35  F   UNL     1      11.190  13.221  16.295  0.00  0.00    +0.000 F 
ENDBRANCH  26  29
ENDBRANCH  24  26
ENDBRANCH  23  24
ENDBRANCH  22  23
ENDBRANCH  21  22
ENDBRANCH   5  21
TORSDOF 11
ENDMDL
MODEL 6
REMARK VINA RESULT:      -7.2      1.086      1.476
REMARK  Name = 
REMARK  11 active torsions:
REMARK  status: ('A' for Active; 'I' for Inactive)
REMARK    1  A    between atoms: C_2  and  C_3
REMARK    2  A    between atoms: C_6  and  O_7
REMARK    3  A    between atoms: O_7  and  C_8
REMARK    4  A    between atoms: C_8  and  C_9
REMARK    5  A    between atoms: C_9  and  N_10
REMARK    6  A    between atoms: N_14  and  C_15
REMARK    7  A    between atoms: C_15  and  C_16
REMARK    8  A    between atoms: C_16  and  C_17
REMARK    9  A    between atoms: C_17  and  N_18
REMARK   10  A    between atoms: N_18  and  S_19
REMARK   11  A    between atoms: S_19  and  C_22
REMARK                            x       y       z     vdW  Elec       q    Type
REMARK                         _______ _______ _______ _____ _____    ______ ____
ROOT
ATOM      1  N   UNL     1       4.233   2.363  19.328  0.00  0.00    +0.000 NA
ATOM      2  C   UNL     1       3.856   2.118  20.728  0.00  0.00    +0.000 C 
ATOM      3  C   UNL     1       2.517   2.727  21.200  0.00  0.00    +0.000 C 
ATOM      4  C   UNL     1       2.428   4.272  21.269  0.00  0.00    +0.000 C 
ATOM      5  N   UNL     1       2.054   5.015  20.047  0.00  0.00    +0.000 NA
ATOM      6  C   UNL     1       1.426   4.189  18.996  0.00  0.00    +0.000 C 
ATOM      7  C   UNL     1       1.674   2.668  19.032  0.00  0.00    +0.000 C 
ATOM      8  C   UNL     1       3.037   2.163  18.478  0.00  0.00    +0.000 C 
ATOM      9  O   UNL     1       1.459   2.200  20.378  0.00  0.00    +0.000 OA
ENDROOT
BRANCH   1  10
ATOM     10  C   UNL     1       4.851   3.661  19.056  0.00  0.00    +0.000 C 
BRANCH  10  11
ATOM     11  C   UNL     1       4.996   4.077  17.591  0.00  0.00    +0.000 C 
BRANCH  11  12
ATOM     12  O   UNL     1       6.381   4.364  17.437  0.00  0.00    +0.000 OA
BRANCH  12  16
ATOM     13  C   UNL     1       7.947   8.137  18.061  0.00  0.00    +0.000 A 
ATOM     14  C   UNL     1       8.313   7.045  18.847  0.00  0.00    +0.000 A 
ATOM     15  C   UNL     1       7.711   5.813  18.625  0.00  0.00    +0.000 A 
ATOM     16  C   UNL     1       6.778   5.651  17.602  0.00  0.00    +0.000 A 
ATOM     17  C   UNL     1       6.409   6.734  16.811  0.00  0.00    +0.000 A 
ATOM     18  C   UNL     1       6.988   7.983  17.050  0.00  0.00    +0.000 A 
BRANCH  13  20
ATOM     19  N   UNL     1       9.061  10.439  18.479  0.00  0.00    +0.000 NA
ATOM     20  C   UNL     1       8.555   9.413  18.286  0.00  0.00    +0.000 C 
ENDBRANCH  13  20
ENDBRANCH  12  16
ENDBRANCH  11  12
ENDBRANCH  10  11
ENDBRANCH   1  10
BRANCH   5  21
ATOM     21  C   UNL     1       1.232   6.206  20.334  0.00  0.00    +0.000 C 
BRANCH  21  22
ATOM     22  C   UNL     1       2.005   7.363  20.980  0.00  0.00    +0.000 C 
BRANCH  22  23
ATOM     23  C   UNL     1       1.125   8.600  21.071  0.00  0.00    +0.000 C 
BRANCH  23  24
ATOM     24  N   UNL     1       1.003   9.245  19.758  0.00  0.00    +0.000 NA
ATOM     25  H   UNL     1       0.360   8.831  19.082  0.00  0.00    +0.000 HD
BRANCH  24  26
ATOM     26  S   UNL     1       0.822  10.923  19.795  0.00  0.00    +0.000 S 
ATOM     27  O   UNL     1       0.969  11.348  21.170  0.00  0.00    +0.000 OA
ATOM     28  O   UNL     1       1.649  11.466  18.744  0.00  0.00    +0.000 OA
BRANCH  26  29
ATOM     29  C   UNL     1      -0.834  11.190  19.291  0.00  0.00    +0.000 A 
ATOM     30  C   UNL     1      -1.639  12.065  20.031  0.00  0.00    +0.000 A 
ATOM     31  C   UNL     1      -2.957  12.287  19.635  0.00  0.00    +0.000 A 
ATOM     32  C   UNL     1      -3.456  11.636  18.511  0.00  0.00    +0.000 A 
ATOM     33  C   UNL     1      -2.645  10.760  17.783  0.00  0.00    +0.000 A 
ATOM     34  C   UNL     1      -1.331  10.537  18.181  0.00  0.00    +0.000 A 
ATOM     35  F   UNL     1      -0.573   9.697  17.461  0.00  0.00    +0.000 F 
ENDBRANCH  26  29
ENDBRANCH  24  26
ENDBRANCH  23  24
ENDBRANCH  22  23
ENDBRANCH  21  22
ENDBRANCH   5  21
TORSDOF 11
ENDMDL
MODEL 7
REMARK VINA RESULT:      -7.1      4.277      8.330
REMARK  Name = 
REMARK  11 active torsions:
REMARK  status: ('A' for Active; 'I' for Inactive)
REMARK    1  A    between atoms: C_2  and  C_3
REMARK    2  A    between atoms: C_6  and  O_7
REMARK    3  A    between atoms: O_7  and  C_8
REMARK    4  A    between atoms: C_8  and  C_9
REMARK    5  A    between atoms: C_9  and  N_10
REMARK    6  A    between atoms: N_14  and  C_15
REMARK    7  A    between atoms: C_15  and  C_16
REMARK    8  A    between atoms: C_16  and  C_17
REMARK    9  A    between atoms: C_17  and  N_18
REMARK   10  A    between atoms: N_18  and  S_19
REMARK   11  A    between atoms: S_19  and  C_22
REMARK                            x       y       z     vdW  Elec       q    Type
REMARK                         _______ _______ _______ _____ _____    ______ ____
ROOT
ATOM      1  N   UNL     1       4.205   4.371  17.759  0.00  0.00    +0.000 NA
ATOM      2  C   UNL     1       5.029   3.870  16.649  0.00  0.00    +0.000 C 
ATOM      3  C   UNL     1       6.482   4.388  16.578  0.00  0.00    +0.000 C 
ATOM      4  C   UNL     1       6.684   5.893  16.273  0.00  0.00    +0.000 C 
ATOM      5  N   UNL     1       6.656   6.853  17.396  0.00  0.00    +0.000 NA
ATOM      6  C   UNL     1       6.829   6.243  18.729  0.00  0.00    +0.000 C 
ATOM      7  C   UNL     1       6.516   4.740  18.878  0.00  0.00    +0.000 C 
ATOM      8  C   UNL     1       5.018   4.340  18.997  0.00  0.00    +0.000 C 
ATOM      9  O   UNL     1       7.155   4.029  17.799  0.00  0.00    +0.000 OA
ENDROOT
BRANCH   1  10
ATOM     10  C   UNL     1       3.611   5.694  17.562  0.00  0.00    +0.000 C 
BRANCH  10  11
ATOM     11  C   UNL     1       3.096   6.426  18.803  0.00  0.00    +0.000 C 
BRANCH  11  12
ATOM     12  O   UNL     1       2.496   7.611  18.295  0.00  0.00    +0.000 OA
BRANCH  12  16
ATOM     13  C   UNL     1       0.508   9.757  21.214  0.00  0.00    +0.000 A 
ATOM     14  C   UNL     1       1.050   8.497  21.463  0.00  0.00    +0.000 A 
ATOM     15  C   UNL     1       1.659   7.800  20.427  0.00  0.00    +0.000 A 
ATOM     16  C   UNL     1       1.767   8.364  19.157  0.00  0.00    +0.000 A 
ATOM     17  C   UNL     1       1.232   9.623  18.900  0.00  0.00    +0.000 A 
ATOM     18  C   UNL     1       0.591  10.314  19.930  0.00  0.00    +0.000 A 
BRANCH  13  20
ATOM     19  N   UNL     1      -0.658  11.072  23.118  0.00  0.00    +0.000 NA
ATOM     20  C   UNL     1      -0.128  10.481  22.272  0.00  0.00    +0.000 C 
ENDBRANCH  13  20
ENDBRANCH  12  16
ENDBRANCH  11  12
ENDBRANCH  10  11
ENDBRANCH   1  10
BRANCH   5  21
ATOM     21  C   UNL     1       7.596   7.974  17.210  0.00  0.00    +0.000 C 
BRANCH  21  22
ATOM     22  C   UNL     1       8.408   8.329  18.463  0.00  0.00    +0.000 C 
BRANCH  22  23
ATOM     23  C   UNL     1       8.690   9.823  18.505  0.00  0.00    +0.000 C 
BRANCH  23  24
ATOM     24  N   UNL     1       9.614  10.143  19.600  0.00  0.00    +0.000 NA
ATOM     25  H   UNL     1      10.203   9.392  19.961  0.00  0.00    +0.000 HD
BRANCH  24  26
ATOM     26  S   UNL     1      10.517  11.554  19.390  0.00  0.00    +0.000 S 
ATOM     27  O   UNL     1      11.598  11.527  20.351  0.00  0.00    +0.000 OA
ATOM     28  O   UNL     1      10.767  11.695  17.976  0.00  0.00    +0.000 OA
BRANCH  26  29
ATOM     29  C   UNL     1       9.409  12.842  19.814  0.00  0.00    +0.000 A 
ATOM     30  C   UNL     1       8.944  13.698  18.808  0.00  0.00    +0.000 A 
ATOM     31  C   UNL     1       8.057  14.724  19.134  0.00  0.00    +0.000 A 
ATOM     32  C   UNL     1       7.648  14.885  20.454  0.00  0.00    +0.000 A 
ATOM     33  C   UNL     1       8.124  14.028  21.452  0.00  0.00    +0.000 A 
ATOM     34  C   UNL     1       9.010  13.007  21.125  0.00  0.00    +0.000 A 
ATOM     35  F   UNL     1       9.445  12.194  22.100  0.00  0.00    +0.000 F 
ENDBRANCH  26  29
ENDBRANCH  24  26
ENDBRANCH  23  24
ENDBRANCH  22  23
ENDBRANCH  21  22
ENDBRANCH   5  21
TORSDOF 11
ENDMDL
MODEL 8
REMARK VINA RESULT:      -7.1      4.521      8.830
REMARK  Name = 
REMARK  11 active torsions:
REMARK  status: ('A' for Active; 'I' for Inactive)
REMARK    1  A    between atoms: C_2  and  C_3
REMARK    2  A    between atoms: C_6  and  O_7
REMARK    3  A    between atoms: O_7  and  C_8
REMARK    4  A    between atoms: C_8  and  C_9
REMARK    5  A    between atoms: C_9  and  N_10
REMARK    6  A    between atoms: N_14  and  C_15
REMARK    7  A    between atoms: C_15  and  C_16
REMARK    8  A    between atoms: C_16  and  C_17
REMARK    9  A    between atoms: C_17  and  N_18
REMARK   10  A    between atoms: N_18  and  S_19
REMARK   11  A    between atoms: S_19  and  C_22
REMARK                            x       y       z     vdW  Elec       q    Type
REMARK                         _______ _______ _______ _____ _____    ______ ____
ROOT
ATOM      1  N   UNL     1       4.276   4.405  18.417  0.00  0.00    +0.000 NA
ATOM      2  C   UNL     1       4.118   4.518  16.959  0.00  0.00    +0.000 C 
ATOM      3  C   UNL     1       5.318   5.095  16.176  0.00  0.00    +0.000 C 
ATOM      4  C   UNL     1       5.677   6.581  16.425  0.00  0.00    +0.000 C 
ATOM      5  N   UNL     1       6.568   6.915  17.555  0.00  0.00    +0.000 NA
ATOM      6  C   UNL     1       7.334   5.772  18.091  0.00  0.00    +0.000 C 
ATOM      7  C   UNL     1       6.798   4.353  17.812  0.00  0.00    +0.000 C 
ATOM      8  C   UNL     1       5.622   3.856  18.701  0.00  0.00    +0.000 C 
ATOM      9  O   UNL     1       6.464   4.256  16.413  0.00  0.00    +0.000 OA
ENDROOT
BRANCH   1  10
ATOM     10  C   UNL     1       4.046   5.633  19.177  0.00  0.00    +0.000 C 
BRANCH  10  11
ATOM     11  C   UNL     1       2.644   6.244  19.118  0.00  0.00    +0.000 C 
BRANCH  11  12
ATOM     12  O   UNL     1       2.863   7.605  18.765  0.00  0.00    +0.000 OA
BRANCH  12  16
ATOM     13  C   UNL     1      -0.161  10.311  19.545  0.00  0.00    +0.000 A 
ATOM     14  C   UNL     1       0.424   9.546  20.552  0.00  0.00    +0.000 A 
ATOM     15  C   UNL     1       1.398   8.612  20.221  0.00  0.00    +0.000 A 
ATOM     16  C   UNL     1       1.822   8.464  18.901  0.00  0.00    +0.000 A 
ATOM     17  C   UNL     1       1.247   9.227  17.890  0.00  0.00    +0.000 A 
ATOM     18  C   UNL     1       0.244  10.144  18.213  0.00  0.00    +0.000 A 
BRANCH  13  20
ATOM     19  N   UNL     1      -2.002  12.037  20.132  0.00  0.00    +0.000 NA
ATOM     20  C   UNL     1      -1.171  11.270  19.874  0.00  0.00    +0.000 C 
ENDBRANCH  13  20
ENDBRANCH  12  16
ENDBRANCH  11  12
ENDBRANCH  10  11
ENDBRANCH   1  10
BRANCH   5  21
ATOM     21  C   UNL     1       7.464   8.049  17.259  0.00  0.00    +0.000 C 
BRANCH  21  22
ATOM     22  C   UNL     1       8.372   8.456  18.426  0.00  0.00    +0.000 C 
BRANCH  22  23
ATOM     23  C   UNL     1       8.684   9.943  18.361  0.00  0.00    +0.000 C 
BRANCH  23  24
ATOM     24  N   UNL     1       9.670  10.309  19.385  0.00  0.00    +0.000 NA
ATOM     25  H   UNL     1      10.280   9.573  19.743  0.00  0.00    +0.000 HD
BRANCH  24  26
ATOM     26  S   UNL     1      10.558  11.708  19.061  0.00  0.00    +0.000 S 
ATOM     27  O   UNL     1      11.960  11.369  19.165  0.00  0.00    +0.000 OA
ATOM     28  O   UNL     1      10.009  12.294  17.861  0.00  0.00    +0.000 OA
BRANCH  26  29
ATOM     29  C   UNL     1      10.136  12.798  20.365  0.00  0.00    +0.000 A 
ATOM     30  C   UNL     1       9.245  12.364  21.354  0.00  0.00    +0.000 A 
ATOM     31  C   UNL     1       8.907  13.222  22.400  0.00  0.00    +0.000 A 
ATOM     32  C   UNL     1       9.457  14.499  22.445  0.00  0.00    +0.000 A 
ATOM     33  C   UNL     1      10.341  14.925  21.449  0.00  0.00    +0.000 A 
ATOM     34  C   UNL     1      10.675  14.068  20.405  0.00  0.00    +0.000 A 
ATOM     35  F   UNL     1      11.531  14.499  19.466  0.00  0.00    +0.000 F 
ENDBRANCH  26  29
ENDBRANCH  24  26
ENDBRANCH  23  24
ENDBRANCH  22  23
ENDBRANCH  21  22
ENDBRANCH   5  21
TORSDOF 11
ENDMDL
MODEL 9
REMARK VINA RESULT:      -7.1      2.749      4.261
REMARK  Name = 
REMARK  11 active torsions:
REMARK  status: ('A' for Active; 'I' for Inactive)
REMARK    1  A    between atoms: C_2  and  C_3
REMARK    2  A    between atoms: C_6  and  O_7
REMARK    3  A    between atoms: O_7  and  C_8
REMARK    4  A    between atoms: C_8  and  C_9
REMARK    5  A    between atoms: C_9  and  N_10
REMARK    6  A    between atoms: N_14  and  C_15
REMARK    7  A    between atoms: C_15  and  C_16
REMARK    8  A    between atoms: C_16  and  C_17
REMARK    9  A    between atoms: C_17  and  N_18
REMARK   10  A    between atoms: N_18  and  S_19
REMARK   11  A    between atoms: S_19  and  C_22
REMARK                            x       y       z     vdW  Elec       q    Type
REMARK                         _______ _______ _______ _____ _____    ______ ____
ROOT
ATOM      1  N   UNL     1       7.477   6.199  16.710  0.00  0.00    +0.000 NA
ATOM      2  C   UNL     1       7.402   4.747  16.930  0.00  0.00    +0.000 C 
ATOM      3  C   UNL     1       6.025   4.181  17.343  0.00  0.00    +0.000 C 
ATOM      4  C   UNL     1       5.479   4.591  18.733  0.00  0.00    +0.000 C 
ATOM      5  N   UNL     1       4.721   5.854  18.852  0.00  0.00    +0.000 NA
ATOM      6  C   UNL     1       4.229   6.396  17.570  0.00  0.00    +0.000 C 
ATOM      7  C   UNL     1       4.932   5.937  16.277  0.00  0.00    +0.000 C 
ATOM      8  C   UNL     1       6.288   6.617  15.932  0.00  0.00    +0.000 C 
ATOM      9  O   UNL     1       5.071   4.503  16.314  0.00  0.00    +0.000 OA
ENDROOT
BRANCH   1  10
ATOM     10  C   UNL     1       7.621   7.016  17.915  0.00  0.00    +0.000 C 
BRANCH  10  11
ATOM     11  C   UNL     1       7.999   8.487  17.727  0.00  0.00    +0.000 C 
BRANCH  11  12
ATOM     12  O   UNL     1       8.712   8.827  18.910  0.00  0.00    +0.000 OA
BRANCH  12  16
ATOM     13  C   UNL     1      10.313  12.576  19.585  0.00  0.00    +0.000 A 
ATOM     14  C   UNL     1       9.911  11.745  20.630  0.00  0.00    +0.000 A 
ATOM     15  C   UNL     1       9.328  10.518  20.339  0.00  0.00    +0.000 A 
ATOM     16  C   UNL     1       9.180  10.096  19.018  0.00  0.00    +0.000 A 
ATOM     17  C   UNL     1       9.583  10.917  17.970  0.00  0.00    +0.000 A 
ATOM     18  C   UNL     1      10.140  12.165  18.256  0.00  0.00    +0.000 A 
BRANCH  13  20
ATOM     19  N   UNL     1      11.406  14.867  20.105  0.00  0.00    +0.000 NA
ATOM     20  C   UNL     1      10.908  13.846  19.873  0.00  0.00    +0.000 C 
ENDBRANCH  13  20
ENDBRANCH  12  16
ENDBRANCH  11  12
ENDBRANCH  10  11
ENDBRANCH   1  10
BRANCH   5  21
ATOM     21  C   UNL     1       3.627   5.770  19.837  0.00  0.00    +0.000 C 
BRANCH  21  22
ATOM     22  C   UNL     1       2.344   6.499  19.416  0.00  0.00    +0.000 C 
BRANCH  22  23
ATOM     23  C   UNL     1       1.491   6.816  20.635  0.00  0.00    +0.000 C 
BRANCH  23  24
ATOM     24  N   UNL     1       1.766   8.175  21.118  0.00  0.00    +0.000 NA
ATOM     25  H   UNL     1       2.348   8.778  20.536  0.00  0.00    +0.000 HD
BRANCH  24  26
ATOM     26  S   UNL     1       0.420   9.022  21.686  0.00  0.00    +0.000 S 
ATOM     27  O   UNL     1      -0.677   8.084  21.782  0.00  0.00    +0.000 OA
ATOM     28  O   UNL     1       0.853   9.798  22.824  0.00  0.00    +0.000 OA
BRANCH  26  29
ATOM     29  C   UNL     1       0.072  10.179  20.419  0.00  0.00    +0.000 A 
ATOM     30  C   UNL     1      -0.911   9.874  19.470  0.00  0.00    +0.000 A 
ATOM     31  C   UNL     1      -1.200  10.790  18.459  0.00  0.00    +0.000 A 
ATOM     32  C   UNL     1      -0.506  11.995  18.406  0.00  0.00    +0.000 A 
ATOM     33  C   UNL     1       0.478  12.287  19.356  0.00  0.00    +0.000 A 
ATOM     34  C   UNL     1       0.766  11.371  20.361  0.00  0.00    +0.000 A 
ATOM     35  F   UNL     1       1.710  11.679  21.264  0.00  0.00    +0.000 F 
ENDBRANCH  26  29
ENDBRANCH  24  26
ENDBRANCH  23  24
ENDBRANCH  22  23
ENDBRANCH  21  22
ENDBRANCH   5  21
TORSDOF 11
ENDMDL
