MODEL 1
REMARK VINA RESULT:      -7.8      0.000      0.000
REMARK  Name = 
REMARK  4 active torsions:
REMARK  status: ('A' for Active; 'I' for Inactive)
REMARK    1  A    between atoms: C_4  and  C_5
REMARK    2  A    between atoms: N_15  and  C_16
REMARK    3  A    between atoms: C_16  and  C_17
REMARK    4  A    between atoms: C_17  and  C_18
REMARK                            x       y       z     vdW  Elec       q    Type
REMARK                         _______ _______ _______ _____ _____    ______ ____
ROOT
ATOM      1  O   UNL     1       8.430   4.441  18.707  0.00  0.00    +0.000 OA
ATOM      2  C   UNL     1       7.651   4.982  17.929  0.00  0.00    +0.000 C 
ATOM      3  C   UNL     1       7.470   4.444  16.572  0.00  0.00    +0.000 C 
ATOM      4  C   UNL     1       6.540   4.993  15.777  0.00  0.00    +0.000 C 
ATOM      5  O   UNL     1       5.696   6.023  16.161  0.00  0.00    +0.000 OA
ATOM      6  C   UNL     1       5.537   6.217  17.583  0.00  0.00    +0.000 C 
ATOM      7  C   UNL     1       4.613   5.108  18.144  0.00  0.00    +0.000 C 
ATOM      8  C   UNL     1       3.151   5.312  17.735  0.00  0.00    +0.000 C 
ATOM      9  N   UNL     1       2.628   6.635  18.111  0.00  0.00    +0.000 NA
ATOM     10  C   UNL     1       3.423   7.662  17.424  0.00  0.00    +0.000 C 
ATOM     11  C   UNL     1       4.907   7.615  17.786  0.00  0.00    +0.000 C 
ATOM     12  C   UNL     1       6.907   6.233  18.270  0.00  0.00    +0.000 C 
ENDROOT
BRANCH   4  13
ATOM     13  C   UNL     1       6.327   4.512  14.395  0.00  0.00    +0.000 A 
ATOM     14  C   UNL     1       7.333   4.610  13.418  0.00  0.00    +0.000 A 
ATOM     15  C   UNL     1       7.121   4.146  12.118  0.00  0.00    +0.000 A 
ATOM     16  C   UNL     1       5.906   3.563  11.776  0.00  0.00    +0.000 A 
ATOM     17  C   UNL     1       4.902   3.439  12.736  0.00  0.00    +0.000 A 
ATOM     18  C   UNL     1       5.113   3.906  14.035  0.00  0.00    +0.000 A 
ENDBRANCH   4  13
BRANCH   9  19
ATOM     19  C   UNL     1       2.556   6.785  19.580  0.00  0.00    +0.000 C 
BRANCH  19  20
ATOM     20  C   UNL     1       1.310   6.175  20.242  0.00  0.00    +0.000 C 
BRANCH  20  21
ATOM     21  C   UNL     1       1.482   4.687  20.452  0.00  0.00    +0.000 A 
ATOM     22  C   UNL     1       2.314   4.203  21.471  0.00  0.00    +0.000 A 
ATOM     23  C   UNL     1       2.495   2.830  21.646  0.00  0.00    +0.000 A 
ATOM     24  C   UNL     1       1.851   1.928  20.801  0.00  0.00    +0.000 A 
ATOM     25  C   UNL     1       1.028   2.399  19.780  0.00  0.00    +0.000 A 
ATOM     26  C   UNL     1       0.846   3.771  19.603  0.00  0.00    +0.000 A 
ENDBRANCH  20  21
ENDBRANCH  19  20
ENDBRANCH   9  19
TORSDOF 4
ENDMDL
MODEL 2
REMARK VINA RESULT:      -7.7      1.881      7.378
REMARK  Name = 
REMARK  4 active torsions:
REMARK  status: ('A' for Active; 'I' for Inactive)
REMARK    1  A    between atoms: C_4  and  C_5
REMARK    2  A    between atoms: N_15  and  C_16
REMARK    3  A    between atoms: C_16  and  C_17
REMARK    4  A    between atoms: C_17  and  C_18
REMARK                            x       y       z     vdW  Elec       q    Type
REMARK                         _______ _______ _______ _____ _____    ______ ____
ROOT
ATOM      1  O   UNL     1       2.643   8.451  17.210  0.00  0.00    +0.000 OA
ATOM      2  C   UNL     1       3.322   7.539  17.671  0.00  0.00    +0.000 C 
ATOM      3  C   UNL     1       2.701   6.516  18.526  0.00  0.00    +0.000 C 
ATOM      4  C   UNL     1       3.444   5.476  18.935  0.00  0.00    +0.000 C 
ATOM      5  O   UNL     1       4.766   5.273  18.571  0.00  0.00    +0.000 OA
ATOM      6  C   UNL     1       5.215   5.973  17.392  0.00  0.00    +0.000 C 
ATOM      7  C   UNL     1       4.650   5.265  16.137  0.00  0.00    +0.000 C 
ATOM      8  C   UNL     1       5.343   3.925  15.866  0.00  0.00    +0.000 C 
ATOM      9  N   UNL     1       6.805   4.047  15.756  0.00  0.00    +0.000 NA
ATOM     10  C   UNL     1       7.327   4.563  17.028  0.00  0.00    +0.000 C 
ATOM     11  C   UNL     1       6.761   5.934  17.398  0.00  0.00    +0.000 C 
ATOM     12  C   UNL     1       4.800   7.447  17.463  0.00  0.00    +0.000 C 
ENDROOT
BRANCH   4  13
ATOM     13  C   UNL     1       2.883   4.428  19.814  0.00  0.00    +0.000 A 
ATOM     14  C   UNL     1       3.678   3.377  20.306  0.00  0.00    +0.000 A 
ATOM     15  C   UNL     1       3.137   2.397  21.141  0.00  0.00    +0.000 A 
ATOM     16  C   UNL     1       1.798   2.458  21.509  0.00  0.00    +0.000 A 
ATOM     17  C   UNL     1       0.998   3.502  21.047  0.00  0.00    +0.000 A 
ATOM     18  C   UNL     1       1.538   4.481  20.210  0.00  0.00    +0.000 A 
ENDBRANCH   4  13
BRANCH   9  19
ATOM     19  C   UNL     1       7.188   4.833  14.563  0.00  0.00    +0.000 C 
BRANCH  19  20
ATOM     20  C   UNL     1       6.139   4.874  13.440  0.00  0.00    +0.000 C 
BRANCH  20  21
ATOM     21  C   UNL     1       6.258   3.662  12.542  0.00  0.00    +0.000 A 
ATOM     22  C   UNL     1       7.508   3.263  12.047  0.00  0.00    +0.000 A 
ATOM     23  C   UNL     1       7.613   2.162  11.195  0.00  0.00    +0.000 A 
ATOM     24  C   UNL     1       6.471   1.454  10.825  0.00  0.00    +0.000 A 
ATOM     25  C   UNL     1       5.224   1.848  11.305  0.00  0.00    +0.000 A 
ATOM     26  C   UNL     1       5.116   2.948  12.157  0.00  0.00    +0.000 A 
ENDBRANCH  20  21
ENDBRANCH  19  20
ENDBRANCH   9  19
TORSDOF 4
ENDMDL
MODEL 3
REMARK VINA RESULT:      -7.7      1.869      7.368
REMARK  Name = 
REMARK  4 active torsions:
REMARK  status: ('A' for Active; 'I' for Inactive)
REMARK    1  A    between atoms: C_4  and  C_5
REMARK    2  A    between atoms: N_15  and  C_16
REMARK    3  A    between atoms: C_16  and  C_17
REMARK    4  A    between atoms: C_17  and  C_18
REMARK                            x       y       z     vdW  Elec       q    Type
REMARK                         _______ _______ _______ _____ _____    ______ ____
ROOT
ATOM      1  O   UNL     1       2.418   8.470  17.437  0.00  0.00    +0.000 OA
ATOM      2  C   UNL     1       3.164   7.574  17.821  0.00  0.00    +0.000 C 
ATOM      3  C   UNL     1       2.648   6.508  18.692  0.00  0.00    +0.000 C 
ATOM      4  C   UNL     1       3.458   5.488  19.015  0.00  0.00    +0.000 C 
ATOM      5  O   UNL     1       4.755   5.345  18.548  0.00  0.00    +0.000 OA
ATOM      6  C   UNL     1       5.087   6.091  17.357  0.00  0.00    +0.000 C 
ATOM      7  C   UNL     1       4.455   5.392  16.129  0.00  0.00    +0.000 C 
ATOM      8  C   UNL     1       5.174   4.087  15.772  0.00  0.00    +0.000 C 
ATOM      9  N   UNL     1       6.618   4.269  15.555  0.00  0.00    +0.000 NA
ATOM     10  C   UNL     1       7.216   4.773  16.798  0.00  0.00    +0.000 C 
ATOM     11  C   UNL     1       6.629   6.112  17.247  0.00  0.00    +0.000 C 
ATOM     12  C   UNL     1       4.624   7.546  17.499  0.00  0.00    +0.000 C 
ENDROOT
BRANCH   4  13
ATOM     13  C   UNL     1       3.005   4.398  19.905  0.00  0.00    +0.000 A 
ATOM     14  C   UNL     1       1.721   4.402  20.479  0.00  0.00    +0.000 A 
ATOM     15  C   UNL     1       1.303   3.363  21.314  0.00  0.00    +0.000 A 
ATOM     16  C   UNL     1       2.155   2.296  21.577  0.00  0.00    +0.000 A 
ATOM     17  C   UNL     1       3.425   2.265  21.003  0.00  0.00    +0.000 A 
ATOM     18  C   UNL     1       3.844   3.305  20.171  0.00  0.00    +0.000 A 
ENDBRANCH   4  13
BRANCH   9  19
ATOM     19  C   UNL     1       6.880   5.097  14.359  0.00  0.00    +0.000 C 
BRANCH  19  20
ATOM     20  C   UNL     1       7.521   4.355  13.175  0.00  0.00    +0.000 C 
BRANCH  20  21
ATOM     21  C   UNL     1       6.490   3.541  12.423  0.00  0.00    +0.000 A 
ATOM     22  C   UNL     1       6.852   2.340  11.797  0.00  0.00    +0.000 A 
ATOM     23  C   UNL     1       5.907   1.604  11.079  0.00  0.00    +0.000 A 
ATOM     24  C   UNL     1       4.596   2.063  10.975  0.00  0.00    +0.000 A 
ATOM     25  C   UNL     1       4.229   3.260  11.588  0.00  0.00    +0.000 A 
ATOM     26  C   UNL     1       5.171   3.998  12.306  0.00  0.00    +0.000 A 
ENDBRANCH  20  21
ENDBRANCH  19  20
ENDBRANCH   9  19
TORSDOF 4
ENDMDL
MODEL 4
REMARK VINA RESULT:      -7.7      1.853      7.400
REMARK  Name = 
REMARK  4 active torsions:
REMARK  status: ('A' for Active; 'I' for Inactive)
REMARK    1  A    between atoms: C_4  and  C_5
REMARK    2  A    between atoms: N_15  and  C_16
REMARK    3  A    between atoms: C_16  and  C_17
REMARK    4  A    between atoms: C_17  and  C_18
REMARK                            x       y       z     vdW  Elec       q    Type
REMARK                         _______ _______ _______ _____ _____    ______ ____
ROOT
ATOM      1  O   UNL     1       2.612   8.445  17.163  0.00  0.00    +0.000 OA
ATOM      2  C   UNL     1       3.271   7.518  17.623  0.00  0.00    +0.000 C 
ATOM      3  C   UNL     1       2.619   6.479  18.432  0.00  0.00    +0.000 C 
ATOM      4  C   UNL     1       3.343   5.425  18.838  0.00  0.00    +0.000 C 
ATOM      5  O   UNL     1       4.674   5.222  18.511  0.00  0.00    +0.000 OA
ATOM      6  C   UNL     1       5.164   5.948  17.363  0.00  0.00    +0.000 C 
ATOM      7  C   UNL     1       4.634   5.274  16.074  0.00  0.00    +0.000 C 
ATOM      8  C   UNL     1       5.328   3.938  15.793  0.00  0.00    +0.000 C 
ATOM      9  N   UNL     1       6.794   4.053  15.731  0.00  0.00    +0.000 NA
ATOM     10  C   UNL     1       7.279   4.535  17.030  0.00  0.00    +0.000 C 
ATOM     11  C   UNL     1       6.709   5.899  17.417  0.00  0.00    +0.000 C 
ATOM     12  C   UNL     1       4.754   7.423  17.458  0.00  0.00    +0.000 C 
ENDROOT
BRANCH   4  13
ATOM     13  C   UNL     1       2.749   4.359  19.673  0.00  0.00    +0.000 A 
ATOM     14  C   UNL     1       2.407   4.583  21.019  0.00  0.00    +0.000 A 
ATOM     15  C   UNL     1       1.842   3.569  21.795  0.00  0.00    +0.000 A 
ATOM     16  C   UNL     1       1.595   2.320  21.237  0.00  0.00    +0.000 A 
ATOM     17  C   UNL     1       1.910   2.084  19.900  0.00  0.00    +0.000 A 
ATOM     18  C   UNL     1       2.479   3.096  19.124  0.00  0.00    +0.000 A 
ENDBRANCH   4  13
BRANCH   9  19
ATOM     19  C   UNL     1       7.218   4.865  14.570  0.00  0.00    +0.000 C 
BRANCH  19  20
ATOM     20  C   UNL     1       6.187   4.977  13.435  0.00  0.00    +0.000 C 
BRANCH  20  21
ATOM     21  C   UNL     1       6.259   3.775  12.518  0.00  0.00    +0.000 A 
ATOM     22  C   UNL     1       5.090   3.100  12.137  0.00  0.00    +0.000 A 
ATOM     23  C   UNL     1       5.159   1.975  11.314  0.00  0.00    +0.000 A 
ATOM     24  C   UNL     1       6.395   1.509  10.870  0.00  0.00    +0.000 A 
ATOM     25  C   UNL     1       7.563   2.169  11.249  0.00  0.00    +0.000 A 
ATOM     26  C   UNL     1       7.497   3.294  12.072  0.00  0.00    +0.000 A 
ENDBRANCH  20  21
ENDBRANCH  19  20
ENDBRANCH   9  19
TORSDOF 4
ENDMDL
MODEL 5
REMARK VINA RESULT:      -7.4      3.964      6.399
REMARK  Name = 
REMARK  4 active torsions:
REMARK  status: ('A' for Active; 'I' for Inactive)
REMARK    1  A    between atoms: C_4  and  C_5
REMARK    2  A    between atoms: N_15  and  C_16
REMARK    3  A    between atoms: C_16  and  C_17
REMARK    4  A    between atoms: C_17  and  C_18
REMARK                            x       y       z     vdW  Elec       q    Type
REMARK                         _______ _______ _______ _____ _____    ______ ____
ROOT
ATOM      1  O   UNL     1       1.710   3.577  17.092  0.00  0.00    +0.000 OA
ATOM      2  C   UNL     1       2.233   4.370  17.869  0.00  0.00    +0.000 C 
ATOM      3  C   UNL     1       3.659   4.703  17.735  0.00  0.00    +0.000 C 
ATOM      4  C   UNL     1       4.181   5.646  18.533  0.00  0.00    +0.000 C 
ATOM      5  O   UNL     1       3.452   6.370  19.464  0.00  0.00    +0.000 OA
ATOM      6  C   UNL     1       2.022   6.397  19.269  0.00  0.00    +0.000 C 
ATOM      7  C   UNL     1       1.689   7.360  18.103  0.00  0.00    +0.000 C 
ATOM      8  C   UNL     1       1.880   8.829  18.493  0.00  0.00    +0.000 C 
ATOM      9  N   UNL     1       1.114   9.210  19.690  0.00  0.00    +0.000 NA
ATOM     10  C   UNL     1       1.575   8.392  20.819  0.00  0.00    +0.000 C 
ATOM     11  C   UNL     1       1.390   6.892  20.591  0.00  0.00    +0.000 C 
ATOM     12  C   UNL     1       1.496   4.979  19.019  0.00  0.00    +0.000 C 
ENDROOT
BRANCH   4  13
ATOM     13  C   UNL     1       5.612   6.009  18.462  0.00  0.00    +0.000 A 
ATOM     14  C   UNL     1       6.090   6.940  17.523  0.00  0.00    +0.000 A 
ATOM     15  C   UNL     1       7.444   7.278  17.470  0.00  0.00    +0.000 A 
ATOM     16  C   UNL     1       8.341   6.703  18.363  0.00  0.00    +0.000 A 
ATOM     17  C   UNL     1       7.884   5.791  19.314  0.00  0.00    +0.000 A 
ATOM     18  C   UNL     1       6.530   5.450  19.365  0.00  0.00    +0.000 A 
ENDBRANCH   4  13
BRANCH   9  19
ATOM     19  C   UNL     1      -0.342   9.150  19.435  0.00  0.00    +0.000 C 
BRANCH  19  20
ATOM     20  C   UNL     1      -1.061  10.509  19.419  0.00  0.00    +0.000 C 
BRANCH  20  21
ATOM     21  C   UNL     1      -2.000  10.611  18.237  0.00  0.00    +0.000 A 
ATOM     22  C   UNL     1      -3.127  11.445  18.293  0.00  0.00    +0.000 A 
ATOM     23  C   UNL     1      -4.009  11.516  17.214  0.00  0.00    +0.000 A 
ATOM     24  C   UNL     1      -3.778  10.752  16.071  0.00  0.00    +0.000 A 
ATOM     25  C   UNL     1      -2.666   9.915  16.009  0.00  0.00    +0.000 A 
ATOM     26  C   UNL     1      -1.782   9.841  17.087  0.00  0.00    +0.000 A 
ENDBRANCH  20  21
ENDBRANCH  19  20
ENDBRANCH   9  19
TORSDOF 4
ENDMDL
MODEL 6
REMARK VINA RESULT:      -7.3      3.999      6.460
REMARK  Name = 
REMARK  4 active torsions:
REMARK  status: ('A' for Active; 'I' for Inactive)
REMARK    1  A    between atoms: C_4  and  C_5
REMARK    2  A    between atoms: N_15  and  C_16
REMARK    3  A    between atoms: C_16  and  C_17
REMARK    4  A    between atoms: C_17  and  C_18
REMARK                            x       y       z     vdW  Elec       q    Type
REMARK                         _______ _______ _______ _____ _____    ______ ____
ROOT
ATOM      1  O   UNL     1       1.417   3.694  17.371  0.00  0.00    +0.000 OA
ATOM      2  C   UNL     1       1.999   4.485  18.106  0.00  0.00    +0.000 C 
ATOM      3  C   UNL     1       3.428   4.765  17.905  0.00  0.00    +0.000 C 
ATOM      4  C   UNL     1       4.015   5.708  18.657  0.00  0.00    +0.000 C 
ATOM      5  O   UNL     1       3.352   6.478  19.599  0.00  0.00    +0.000 OA
ATOM      6  C   UNL     1       1.916   6.550  19.463  0.00  0.00    +0.000 C 
ATOM      7  C   UNL     1       1.567   7.497  18.289  0.00  0.00    +0.000 C 
ATOM      8  C   UNL     1       1.824   8.967  18.634  0.00  0.00    +0.000 C 
ATOM      9  N   UNL     1       1.123   9.402  19.853  0.00  0.00    +0.000 NA
ATOM     10  C   UNL     1       1.604   8.595  20.981  0.00  0.00    +0.000 C 
ATOM     11  C   UNL     1       1.358   7.098  20.798  0.00  0.00    +0.000 C 
ATOM     12  C   UNL     1       1.332   5.146  19.270  0.00  0.00    +0.000 C 
ENDROOT
BRANCH   4  13
ATOM     13  C   UNL     1       5.454   6.018  18.517  0.00  0.00    +0.000 A 
ATOM     14  C   UNL     1       6.417   5.442  19.364  0.00  0.00    +0.000 A 
ATOM     15  C   UNL     1       7.774   5.739  19.218  0.00  0.00    +0.000 A 
ATOM     16  C   UNL     1       8.193   6.605  18.214  0.00  0.00    +0.000 A 
ATOM     17  C   UNL     1       7.255   7.173  17.353  0.00  0.00    +0.000 A 
ATOM     18  C   UNL     1       5.898   6.879  17.501  0.00  0.00    +0.000 A 
ENDBRANCH   4  13
BRANCH   9  19
ATOM     19  C   UNL     1      -0.343   9.387  19.660  0.00  0.00    +0.000 C 
BRANCH  19  20
ATOM     20  C   UNL     1      -0.986  10.762  19.412  0.00  0.00    +0.000 C 
BRANCH  20  21
ATOM     21  C   UNL     1      -1.964  10.703  18.259  0.00  0.00    +0.000 A 
ATOM     22  C   UNL     1      -1.711   9.880  17.152  0.00  0.00    +0.000 A 
ATOM     23  C   UNL     1      -2.598   9.848  16.075  0.00  0.00    +0.000 A 
ATOM     24  C   UNL     1      -3.744  10.642  16.091  0.00  0.00    +0.000 A 
ATOM     25  C   UNL     1      -4.000  11.469  17.183  0.00  0.00    +0.000 A 
ATOM     26  C   UNL     1      -3.114  11.503  18.261  0.00  0.00    +0.000 A 
ENDBRANCH  20  21
ENDBRANCH  19  20
ENDBRANCH   9  19
TORSDOF 4
ENDMDL
MODEL 7
REMARK VINA RESULT:      -7.1      2.357      7.690
REMARK  Name = 
REMARK  4 active torsions:
REMARK  status: ('A' for Active; 'I' for Inactive)
REMARK    1  A    between atoms: C_4  and  C_5
REMARK    2  A    between atoms: N_15  and  C_16
REMARK    3  A    between atoms: C_16  and  C_17
REMARK    4  A    between atoms: C_17  and  C_18
REMARK                            x       y       z     vdW  Elec       q    Type
REMARK                         _______ _______ _______ _____ _____    ______ ____
ROOT
ATOM      1  O   UNL     1       2.638   3.100  21.336  0.00  0.00    +0.000 OA
ATOM      2  C   UNL     1       2.595   3.995  20.499  0.00  0.00    +0.000 C 
ATOM      3  C   UNL     1       2.114   5.333  20.874  0.00  0.00    +0.000 C 
ATOM      4  C   UNL     1       2.171   6.319  19.966  0.00  0.00    +0.000 C 
ATOM      5  O   UNL     1       2.695   6.176  18.691  0.00  0.00    +0.000 OA
ATOM      6  C   UNL     1       3.579   5.052  18.491  0.00  0.00    +0.000 C 
ATOM      7  C   UNL     1       4.951   5.366  19.135  0.00  0.00    +0.000 C 
ATOM      8  C   UNL     1       5.742   6.405  18.334  0.00  0.00    +0.000 C 
ATOM      9  N   UNL     1       5.926   6.025  16.925  0.00  0.00    +0.000 NA
ATOM     10  C   UNL     1       4.604   5.901  16.298  0.00  0.00    +0.000 C 
ATOM     11  C   UNL     1       3.719   4.847  16.965  0.00  0.00    +0.000 C 
ATOM     12  C   UNL     1       2.948   3.776  19.062  0.00  0.00    +0.000 C 
ENDROOT
BRANCH   4  13
ATOM     13  C   UNL     1       1.681   7.680  20.276  0.00  0.00    +0.000 A 
ATOM     14  C   UNL     1       1.371   8.068  21.592  0.00  0.00    +0.000 A 
ATOM     15  C   UNL     1       0.915   9.358  21.872  0.00  0.00    +0.000 A 
ATOM     16  C   UNL     1       0.775  10.286  20.845  0.00  0.00    +0.000 A 
ATOM     17  C   UNL     1       1.095   9.925  19.537  0.00  0.00    +0.000 A 
ATOM     18  C   UNL     1       1.548   8.635  19.256  0.00  0.00    +0.000 A 
ENDBRANCH   4  13
BRANCH   9  19
ATOM     19  C   UNL     1       6.786   4.828  16.801  0.00  0.00    +0.000 C 
BRANCH  19  20
ATOM     20  C   UNL     1       6.272   3.747  15.837  0.00  0.00    +0.000 C 
BRANCH  20  21
ATOM     21  C   UNL     1       6.633   4.081  14.406  0.00  0.00    +0.000 A 
ATOM     22  C   UNL     1       6.050   3.377  13.342  0.00  0.00    +0.000 A 
ATOM     23  C   UNL     1       6.405   3.666  12.023  0.00  0.00    +0.000 A 
ATOM     24  C   UNL     1       7.350   4.654  11.755  0.00  0.00    +0.000 A 
ATOM     25  C   UNL     1       7.941   5.353  12.806  0.00  0.00    +0.000 A 
ATOM     26  C   UNL     1       7.588   5.067  14.125  0.00  0.00    +0.000 A 
ENDBRANCH  20  21
ENDBRANCH  19  20
ENDBRANCH   9  19
TORSDOF 4
ENDMDL
MODEL 8
REMARK VINA RESULT:      -7.1      2.302      7.601
REMARK  Name = 
REMARK  4 active torsions:
REMARK  status: ('A' for Active; 'I' for Inactive)
REMARK    1  A    between atoms: C_4  and  C_5
REMARK    2  A    between atoms: N_15  and  C_16
REMARK    3  A    between atoms: C_16  and  C_17
REMARK    4  A    between atoms: C_17  and  C_18
REMARK                            x       y       z     vdW  Elec       q    Type
REMARK                         _______ _______ _______ _____ _____    ______ ____
ROOT
ATOM      1  O   UNL     1       2.817   3.016  21.255  0.00  0.00    +0.000 OA
ATOM      2  C   UNL     1       2.737   3.919  20.428  0.00  0.00    +0.000 C 
ATOM      3  C   UNL     1       2.204   5.233  20.819  0.00  0.00    +0.000 C 
ATOM      4  C   UNL     1       2.220   6.230  19.922  0.00  0.00    +0.000 C 
ATOM      5  O   UNL     1       2.748   6.122  18.645  0.00  0.00    +0.000 OA
ATOM      6  C   UNL     1       3.675   5.036  18.432  0.00  0.00    +0.000 C 
ATOM      7  C   UNL     1       5.035   5.398  19.078  0.00  0.00    +0.000 C 
ATOM      8  C   UNL     1       5.783   6.476  18.288  0.00  0.00    +0.000 C 
ATOM      9  N   UNL     1       5.980   6.119  16.874  0.00  0.00    +0.000 NA
ATOM     10  C   UNL     1       4.663   5.950  16.247  0.00  0.00    +0.000 C 
ATOM     11  C   UNL     1       3.822   4.855  16.903  0.00  0.00    +0.000 C 
ATOM     12  C   UNL     1       3.097   3.731  18.989  0.00  0.00    +0.000 C 
ENDROOT
BRANCH   4  13
ATOM     13  C   UNL     1       1.678   7.567  20.248  0.00  0.00    +0.000 A 
ATOM     14  C   UNL     1       1.620   8.592  19.288  0.00  0.00    +0.000 A 
ATOM     15  C   UNL     1       1.099   9.848  19.607  0.00  0.00    +0.000 A 
ATOM     16  C   UNL     1       0.615  10.096  20.886  0.00  0.00    +0.000 A 
ATOM     17  C   UNL     1       0.647   9.087  21.847  0.00  0.00    +0.000 A 
ATOM     18  C   UNL     1       1.170   7.832  21.530  0.00  0.00    +0.000 A 
ENDBRANCH   4  13
BRANCH   9  19
ATOM     19  C   UNL     1       6.887   4.959  16.736  0.00  0.00    +0.000 C 
BRANCH  19  20
ATOM     20  C   UNL     1       6.366   3.822  15.842  0.00  0.00    +0.000 C 
BRANCH  20  21
ATOM     21  C   UNL     1       6.697   4.081  14.388  0.00  0.00    +0.000 A 
ATOM     22  C   UNL     1       7.646   5.051  14.036  0.00  0.00    +0.000 A 
ATOM     23  C   UNL     1       7.929   5.310  12.694  0.00  0.00    +0.000 A 
ATOM     24  C   UNL     1       7.262   4.607  11.691  0.00  0.00    +0.000 A 
ATOM     25  C   UNL     1       6.311   3.647  12.031  0.00  0.00    +0.000 A 
ATOM     26  C   UNL     1       6.026   3.386  13.373  0.00  0.00    +0.000 A 
ENDBRANCH  20  21
ENDBRANCH  19  20
ENDBRANCH   9  19
TORSDOF 4
ENDMDL
MODEL 9
REMARK VINA RESULT:      -7.1      2.304      7.593
REMARK  Name = 
REMARK  4 active torsions:
REMARK  status: ('A' for Active; 'I' for Inactive)
REMARK    1  A    between atoms: C_4  and  C_5
REMARK    2  A    between atoms: N_15  and  C_16
REMARK    3  A    between atoms: C_16  and  C_17
REMARK    4  A    between atoms: C_17  and  C_18
REMARK                            x       y       z     vdW  Elec       q    Type
REMARK                         _______ _______ _______ _____ _____    ______ ____
ROOT
ATOM      1  O   UNL     1       2.855   3.204  20.923  0.00  0.00    +0.000 OA
ATOM      2  C   UNL     1       2.818   4.122  20.109  0.00  0.00    +0.000 C 
ATOM      3  C   UNL     1       2.280   5.433  20.499  0.00  0.00    +0.000 C 
ATOM      4  C   UNL     1       2.342   6.445  19.622  0.00  0.00    +0.000 C 
ATOM      5  O   UNL     1       2.922   6.354  18.366  0.00  0.00    +0.000 OA
ATOM      6  C   UNL     1       3.848   5.263  18.173  0.00  0.00    +0.000 C 
ATOM      7  C   UNL     1       5.183   5.602  18.881  0.00  0.00    +0.000 C 
ATOM      8  C   UNL     1       5.972   6.687  18.141  0.00  0.00    +0.000 C 
ATOM      9  N   UNL     1       6.225   6.351  16.731  0.00  0.00    +0.000 NA
ATOM     10  C   UNL     1       4.934   6.205  16.047  0.00  0.00    +0.000 C 
ATOM     11  C   UNL     1       4.057   5.106  16.648  0.00  0.00    +0.000 C 
ATOM     12  C   UNL     1       3.236   3.954  18.683  0.00  0.00    +0.000 C 
ENDROOT
BRANCH   4  13
ATOM     13  C   UNL     1       1.797   7.781  19.947  0.00  0.00    +0.000 A 
ATOM     14  C   UNL     1       1.663   8.780  18.967  0.00  0.00    +0.000 A 
ATOM     15  C   UNL     1       1.142  10.036  19.287  0.00  0.00    +0.000 A 
ATOM     16  C   UNL     1       0.732  10.309  20.587  0.00  0.00    +0.000 A 
ATOM     17  C   UNL     1       0.840   9.325  21.569  0.00  0.00    +0.000 A 
ATOM     18  C   UNL     1       1.365   8.071  21.251  0.00  0.00    +0.000 A 
ENDBRANCH   4  13
BRANCH   9  19
ATOM     19  C   UNL     1       7.127   5.185  16.611  0.00  0.00    +0.000 C 
BRANCH  19  20
ATOM     20  C   UNL     1       6.571   4.007  15.796  0.00  0.00    +0.000 C 
BRANCH  20  21
ATOM     21  C   UNL     1       6.786   4.223  14.314  0.00  0.00    +0.000 A 
ATOM     22  C   UNL     1       6.106   3.436  13.374  0.00  0.00    +0.000 A 
ATOM     23  C   UNL     1       6.327   3.616  12.007  0.00  0.00    +0.000 A 
ATOM     24  C   UNL     1       7.233   4.579  11.568  0.00  0.00    +0.000 A 
ATOM     25  C   UNL     1       7.919   5.361  12.494  0.00  0.00    +0.000 A 
ATOM     26  C   UNL     1       7.701   5.183  13.861  0.00  0.00    +0.000 A 
ENDBRANCH  20  21
ENDBRANCH  19  20
ENDBRANCH   9  19
TORSDOF 4
ENDMDL
