MODEL 1
REMARK VINA RESULT:      -7.2      0.000      0.000
REMARK  Name = 
REMARK  4 active torsions:
REMARK  status: ('A' for Active; 'I' for Inactive)
REMARK    1  A    between atoms: C_2  and  O_3
REMARK    2  A    between atoms: C_2  and  C_4
REMARK    3  A    between atoms: C_5  and  N_6
REMARK    4  A    between atoms: C_7  and  C_9
REMARK                            x       y       z     vdW  Elec       q    Type
REMARK                         _______ _______ _______ _____ _____    ______ ____
ROOT
ATOM      1  C   UNL     1       6.183   5.136  17.903  0.00  0.00    +0.000 A 
ATOM      2  C   UNL     1       4.943   4.563  18.204  0.00  0.00    +0.000 A 
ATOM      3  S   UNL     1       4.271   3.649  16.907  0.00  0.00    +0.000 S 
ATOM      4  C   UNL     1       5.507   4.130  15.900  0.00  0.00    +0.000 A 
ATOM      5  C   UNL     1       6.469   4.871  16.527  0.00  0.00    +0.000 A 
ATOM      6  C   UNL     1       7.592   5.182  15.607  0.00  0.00    +0.000 C 
ATOM      7  C   UNL     1       6.991   4.826  14.215  0.00  0.00    +0.000 C 
ATOM      8  C   UNL     1       5.797   3.854  14.472  0.00  0.00    +0.000 C 
ENDROOT
BRANCH   2   9
ATOM      9  N   UNL     1       4.124   4.534  19.323  0.00  0.00    +0.000 N 
ATOM     10  C   UNL     1       2.953   5.266  19.320  0.00  0.00    +0.000 C 
ATOM     11  O   UNL     1       2.624   5.975  18.367  0.00  0.00    +0.000 OA
ATOM     12  H   UNL     1       4.096   3.651  19.817  0.00  0.00    +0.000 HD
BRANCH  10  13
ATOM     13  C   UNL     1       2.126   5.179  20.599  0.00  0.00    +0.000 C 
ATOM     14  C   UNL     1       0.693   4.722  20.296  0.00  0.00    +0.000 C 
ATOM     15  C   UNL     1       0.628   3.253  19.874  0.00  0.00    +0.000 C 
ATOM     16  C   UNL     1       1.284   2.330  20.896  0.00  0.00    +0.000 C 
ATOM     17  C   UNL     1       2.703   2.763  21.246  0.00  0.00    +0.000 C 
ATOM     18  C   UNL     1       2.780   4.243  21.631  0.00  0.00    +0.000 C 
ENDBRANCH  10  13
ENDBRANCH   2   9
BRANCH   1  20
ATOM     19  O   UNL     1       7.837   6.740  18.407  0.00  0.00    +0.000 OA
ATOM     20  C   UNL     1       7.157   5.791  18.781  0.00  0.00    +0.000 C 
BRANCH  20  21
ATOM     21  O   UNL     1       7.280   5.322  20.043  0.00  0.00    +0.000 OA
ATOM     22  H   UNL     1       6.631   5.757  20.639  0.00  0.00    +0.000 HD
ENDBRANCH  20  21
ENDBRANCH   1  20
TORSDOF 4
ENDMDL
MODEL 2
REMARK VINA RESULT:      -7.0      1.063      1.319
REMARK  Name = 
REMARK  4 active torsions:
REMARK  status: ('A' for Active; 'I' for Inactive)
REMARK    1  A    between atoms: C_2  and  O_3
REMARK    2  A    between atoms: C_2  and  C_4
REMARK    3  A    between atoms: C_5  and  N_6
REMARK    4  A    between atoms: C_7  and  C_9
REMARK                            x       y       z     vdW  Elec       q    Type
REMARK                         _______ _______ _______ _____ _____    ______ ____
ROOT
ATOM      1  C   UNL     1       6.252   5.310  17.533  0.00  0.00    +0.000 A 
ATOM      2  C   UNL     1       4.955   4.879  17.832  0.00  0.00    +0.000 A 
ATOM      3  S   UNL     1       4.204   4.006  16.550  0.00  0.00    +0.000 S 
ATOM      4  C   UNL     1       5.495   4.326  15.547  0.00  0.00    +0.000 A 
ATOM      5  C   UNL     1       6.523   4.979  16.168  0.00  0.00    +0.000 A 
ATOM      6  C   UNL     1       7.682   5.144  15.256  0.00  0.00    +0.000 C 
ATOM      7  C   UNL     1       7.062   4.816  13.865  0.00  0.00    +0.000 C 
ATOM      8  C   UNL     1       5.769   3.984  14.132  0.00  0.00    +0.000 C 
ENDROOT
BRANCH   2   9
ATOM      9  N   UNL     1       4.126   4.966  18.940  0.00  0.00    +0.000 N 
ATOM     10  C   UNL     1       4.134   3.944  19.869  0.00  0.00    +0.000 C 
ATOM     11  O   UNL     1       4.830   2.937  19.731  0.00  0.00    +0.000 OA
ATOM     12  H   UNL     1       3.986   5.899  19.306  0.00  0.00    +0.000 HD
BRANCH  10  13
ATOM     13  C   UNL     1       3.179   4.124  21.045  0.00  0.00    +0.000 C 
ATOM     14  C   UNL     1       2.065   5.121  20.698  0.00  0.00    +0.000 C 
ATOM     15  C   UNL     1       1.076   4.556  19.678  0.00  0.00    +0.000 C 
ATOM     16  C   UNL     1       0.487   3.221  20.124  0.00  0.00    +0.000 C 
ATOM     17  C   UNL     1       1.560   2.208  20.503  0.00  0.00    +0.000 C 
ATOM     18  C   UNL     1       2.575   2.782  21.494  0.00  0.00    +0.000 C 
ENDBRANCH  10  13
ENDBRANCH   2   9
BRANCH   1  20
ATOM     19  O   UNL     1       7.785   6.976  18.190  0.00  0.00    +0.000 OA
ATOM     20  C   UNL     1       7.281   5.881  18.407  0.00  0.00    +0.000 C 
BRANCH  20  21
ATOM     21  O   UNL     1       7.656   5.162  19.488  0.00  0.00    +0.000 OA
ATOM     22  H   UNL     1       7.735   4.209  19.261  0.00  0.00    +0.000 HD
ENDBRANCH  20  21
ENDBRANCH   1  20
TORSDOF 4
ENDMDL
MODEL 3
REMARK VINA RESULT:      -6.8      1.561      1.910
REMARK  Name = 
REMARK  4 active torsions:
REMARK  status: ('A' for Active; 'I' for Inactive)
REMARK    1  A    between atoms: C_2  and  O_3
REMARK    2  A    between atoms: C_2  and  C_4
REMARK    3  A    between atoms: C_5  and  N_6
REMARK    4  A    between atoms: C_7  and  C_9
REMARK                            x       y       z     vdW  Elec       q    Type
REMARK                         _______ _______ _______ _____ _____    ______ ____
ROOT
ATOM      1  C   UNL     1       6.321   5.550  16.210  0.00  0.00    +0.000 A 
ATOM      2  C   UNL     1       5.100   4.935  16.502  0.00  0.00    +0.000 A 
ATOM      3  S   UNL     1       4.605   3.784  15.319  0.00  0.00    +0.000 S 
ATOM      4  C   UNL     1       5.890   4.201  14.345  0.00  0.00    +0.000 A 
ATOM      5  C   UNL     1       6.743   5.102  14.919  0.00  0.00    +0.000 A 
ATOM      6  C   UNL     1       7.919   5.357  14.050  0.00  0.00    +0.000 C 
ATOM      7  C   UNL     1       7.467   4.747  12.689  0.00  0.00    +0.000 C 
ATOM      8  C   UNL     1       6.321   3.736  13.006  0.00  0.00    +0.000 C 
ENDROOT
BRANCH   2   9
ATOM      9  N   UNL     1       4.190   5.011  17.546  0.00  0.00    +0.000 N 
ATOM     10  C   UNL     1       4.482   4.383  18.742  0.00  0.00    +0.000 C 
ATOM     11  O   UNL     1       5.512   3.726  18.903  0.00  0.00    +0.000 OA
ATOM     12  H   UNL     1       3.679   5.882  17.615  0.00  0.00    +0.000 HD
BRANCH  10  13
ATOM     13  C   UNL     1       3.415   4.513  19.824  0.00  0.00    +0.000 C 
ATOM     14  C   UNL     1       2.133   5.138  19.257  0.00  0.00    +0.000 C 
ATOM     15  C   UNL     1       1.394   4.192  18.311  0.00  0.00    +0.000 C 
ATOM     16  C   UNL     1       1.096   2.844  18.961  0.00  0.00    +0.000 C 
ATOM     17  C   UNL     1       2.338   2.198  19.560  0.00  0.00    +0.000 C 
ATOM     18  C   UNL     1       3.105   3.155  20.478  0.00  0.00    +0.000 C 
ENDBRANCH  10  13
ENDBRANCH   2   9
BRANCH   1  20
ATOM     19  O   UNL     1       7.406   7.572  16.755  0.00  0.00    +0.000 OA
ATOM     20  C   UNL     1       7.170   6.405  17.046  0.00  0.00    +0.000 C 
BRANCH  20  21
ATOM     21  O   UNL     1       7.685   5.868  18.173  0.00  0.00    +0.000 OA
ATOM     22  H   UNL     1       7.622   6.503  18.921  0.00  0.00    +0.000 HD
ENDBRANCH  20  21
ENDBRANCH   1  20
TORSDOF 4
ENDMDL
MODEL 4
REMARK VINA RESULT:      -6.7      4.904      7.253
REMARK  Name = 
REMARK  4 active torsions:
REMARK  status: ('A' for Active; 'I' for Inactive)
REMARK    1  A    between atoms: C_2  and  O_3
REMARK    2  A    between atoms: C_2  and  C_4
REMARK    3  A    between atoms: C_5  and  N_6
REMARK    4  A    between atoms: C_7  and  C_9
REMARK                            x       y       z     vdW  Elec       q    Type
REMARK                         _______ _______ _______ _____ _____    ______ ____
ROOT
ATOM      1  C   UNL     1       0.659   9.769  20.901  0.00  0.00    +0.000 A 
ATOM      2  C   UNL     1       1.194   9.076  19.812  0.00  0.00    +0.000 A 
ATOM      3  S   UNL     1       0.726   9.720  18.284  0.00  0.00    +0.000 S 
ATOM      4  C   UNL     1      -0.303  10.796  19.029  0.00  0.00    +0.000 A 
ATOM      5  C   UNL     1      -0.234  10.765  20.394  0.00  0.00    +0.000 A 
ATOM      6  C   UNL     1      -1.094  11.814  20.998  0.00  0.00    +0.000 C 
ATOM      7  C   UNL     1      -1.983  12.251  19.797  0.00  0.00    +0.000 C 
ATOM      8  C   UNL     1      -1.229  11.825  18.498  0.00  0.00    +0.000 C 
ENDROOT
BRANCH   2   9
ATOM      9  N   UNL     1       2.047   7.992  19.665  0.00  0.00    +0.000 N 
ATOM     10  C   UNL     1       1.752   6.809  20.317  0.00  0.00    +0.000 C 
ATOM     11  O   UNL     1       0.772   6.693  21.054  0.00  0.00    +0.000 OA
ATOM     12  H   UNL     1       2.483   7.902  18.756  0.00  0.00    +0.000 HD
BRANCH  10  13
ATOM     13  C   UNL     1       2.755   5.680  20.104  0.00  0.00    +0.000 C 
ATOM     14  C   UNL     1       2.283   4.391  20.791  0.00  0.00    +0.000 C 
ATOM     15  C   UNL     1       1.075   3.768  20.090  0.00  0.00    +0.000 C 
ATOM     16  C   UNL     1       1.331   3.526  18.606  0.00  0.00    +0.000 C 
ATOM     17  C   UNL     1       1.826   4.775  17.888  0.00  0.00    +0.000 C 
ATOM     18  C   UNL     1       3.011   5.426  18.608  0.00  0.00    +0.000 C 
ENDBRANCH  10  13
ENDBRANCH   2   9
BRANCH   1  20
ATOM     19  O   UNL     1       0.193  10.039  23.197  0.00  0.00    +0.000 OA
ATOM     20  C   UNL     1       0.978   9.675  22.329  0.00  0.00    +0.000 C 
BRANCH  20  21
ATOM     21  O   UNL     1       2.176   9.153  22.671  0.00  0.00    +0.000 OA
ATOM     22  H   UNL     1       2.842   9.321  21.968  0.00  0.00    +0.000 HD
ENDBRANCH  20  21
ENDBRANCH   1  20
TORSDOF 4
ENDMDL
MODEL 5
REMARK VINA RESULT:      -6.5      2.383      6.188
REMARK  Name = 
REMARK  4 active torsions:
REMARK  status: ('A' for Active; 'I' for Inactive)
REMARK    1  A    between atoms: C_2  and  O_3
REMARK    2  A    between atoms: C_2  and  C_4
REMARK    3  A    between atoms: C_5  and  N_6
REMARK    4  A    between atoms: C_7  and  C_9
REMARK                            x       y       z     vdW  Elec       q    Type
REMARK                         _______ _______ _______ _____ _____    ______ ____
ROOT
ATOM      1  C   UNL     1       4.018   2.778  19.655  0.00  0.00    +0.000 A 
ATOM      2  C   UNL     1       4.594   4.001  19.301  0.00  0.00    +0.000 A 
ATOM      3  S   UNL     1       3.567   5.357  19.582  0.00  0.00    +0.000 S 
ATOM      4  C   UNL     1       2.314   4.345  20.008  0.00  0.00    +0.000 A 
ATOM      5  C   UNL     1       2.665   3.025  20.049  0.00  0.00    +0.000 A 
ATOM      6  C   UNL     1       1.540   2.186  20.533  0.00  0.00    +0.000 C 
ATOM      7  C   UNL     1       0.329   3.160  20.430  0.00  0.00    +0.000 C 
ATOM      8  C   UNL     1       0.913   4.607  20.413  0.00  0.00    +0.000 C 
ENDROOT
BRANCH   2   9
ATOM      9  N   UNL     1       5.824   4.394  18.795  0.00  0.00    +0.000 N 
ATOM     10  C   UNL     1       6.014   4.413  17.426  0.00  0.00    +0.000 C 
ATOM     11  O   UNL     1       5.136   4.061  16.637  0.00  0.00    +0.000 OA
ATOM     12  H   UNL     1       6.300   5.116  19.320  0.00  0.00    +0.000 HD
BRANCH  10  13
ATOM     13  C   UNL     1       7.403   4.847  16.967  0.00  0.00    +0.000 C 
ATOM     14  C   UNL     1       7.346   6.209  16.261  0.00  0.00    +0.000 C 
ATOM     15  C   UNL     1       7.052   7.354  17.231  0.00  0.00    +0.000 C 
ATOM     16  C   UNL     1       8.035   7.390  18.396  0.00  0.00    +0.000 C 
ATOM     17  C   UNL     1       8.141   6.049  19.111  0.00  0.00    +0.000 C 
ATOM     18  C   UNL     1       8.397   4.893  18.140  0.00  0.00    +0.000 C 
ENDBRANCH  10  13
ENDBRANCH   2   9
BRANCH   1  20
ATOM     19  O   UNL     1       5.330   1.133  20.721  0.00  0.00    +0.000 OA
ATOM     20  C   UNL     1       4.623   1.447  19.770  0.00  0.00    +0.000 C 
BRANCH  20  21
ATOM     21  O   UNL     1       4.367   0.554  18.790  0.00  0.00    +0.000 OA
ATOM     22  H   UNL     1       5.165   0.409  18.234  0.00  0.00    +0.000 HD
ENDBRANCH  20  21
ENDBRANCH   1  20
TORSDOF 4
ENDMDL
MODEL 6
REMARK VINA RESULT:      -6.4      4.536      7.177
REMARK  Name = 
REMARK  4 active torsions:
REMARK  status: ('A' for Active; 'I' for Inactive)
REMARK    1  A    between atoms: C_2  and  O_3
REMARK    2  A    between atoms: C_2  and  C_4
REMARK    3  A    between atoms: C_5  and  N_6
REMARK    4  A    between atoms: C_7  and  C_9
REMARK                            x       y       z     vdW  Elec       q    Type
REMARK                         _______ _______ _______ _____ _____    ______ ____
ROOT
ATOM      1  C   UNL     1       0.905   9.536  19.578  0.00  0.00    +0.000 A 
ATOM      2  C   UNL     1       1.446   8.577  20.439  0.00  0.00    +0.000 A 
ATOM      3  S   UNL     1       0.958   8.769  22.081  0.00  0.00    +0.000 S 
ATOM      4  C   UNL     1       0.178  10.192  21.705  0.00  0.00    +0.000 A 
ATOM      5  C   UNL     1       0.178  10.481  20.369  0.00  0.00    +0.000 A 
ATOM      6  C   UNL     1      -0.618  11.701  20.085  0.00  0.00    +0.000 C 
ATOM      7  C   UNL     1      -0.798  12.320  21.503  0.00  0.00    +0.000 C 
ATOM      8  C   UNL     1      -0.571  11.169  22.531  0.00  0.00    +0.000 C 
ENDROOT
BRANCH   2   9
ATOM      9  N   UNL     1       2.273   7.476  20.282  0.00  0.00    +0.000 N 
ATOM     10  C   UNL     1       1.741   6.208  20.417  0.00  0.00    +0.000 C 
ATOM     11  O   UNL     1       0.558   6.021  20.708  0.00  0.00    +0.000 OA
ATOM     12  H   UNL     1       3.007   7.578  19.592  0.00  0.00    +0.000 HD
BRANCH  10  13
ATOM     13  C   UNL     1       2.732   5.062  20.238  0.00  0.00    +0.000 C 
ATOM     14  C   UNL     1       2.203   3.774  20.885  0.00  0.00    +0.000 C 
ATOM     15  C   UNL     1       1.019   3.183  20.119  0.00  0.00    +0.000 C 
ATOM     16  C   UNL     1       1.342   2.954  18.646  0.00  0.00    +0.000 C 
ATOM     17  C   UNL     1       1.894   4.202  17.969  0.00  0.00    +0.000 C 
ATOM     18  C   UNL     1       3.055   4.821  18.753  0.00  0.00    +0.000 C 
ENDBRANCH  10  13
ENDBRANCH   2   9
BRANCH   1  20
ATOM     19  O   UNL     1       1.912   9.396  17.450  0.00  0.00    +0.000 OA
ATOM     20  C   UNL     1       0.900   9.593  18.113  0.00  0.00    +0.000 C 
BRANCH  20  21
ATOM     21  O   UNL     1      -0.273   9.861  17.498  0.00  0.00    +0.000 OA
ATOM     22  H   UNL     1      -0.146  10.516  16.776  0.00  0.00    +0.000 HD
ENDBRANCH  20  21
ENDBRANCH   1  20
TORSDOF 4
ENDMDL
MODEL 7
REMARK VINA RESULT:      -6.4      3.528      6.280
REMARK  Name = 
REMARK  4 active torsions:
REMARK  status: ('A' for Active; 'I' for Inactive)
REMARK    1  A    between atoms: C_2  and  O_3
REMARK    2  A    between atoms: C_2  and  C_4
REMARK    3  A    between atoms: C_5  and  N_6
REMARK    4  A    between atoms: C_7  and  C_9
REMARK                            x       y       z     vdW  Elec       q    Type
REMARK                         _______ _______ _______ _____ _____    ______ ____
ROOT
ATOM      1  C   UNL     1       1.884   8.534  19.100  0.00  0.00    +0.000 A 
ATOM      2  C   UNL     1       2.315   7.318  19.640  0.00  0.00    +0.000 A 
ATOM      3  S   UNL     1       1.499   6.880  21.094  0.00  0.00    +0.000 S 
ATOM      4  C   UNL     1       0.704   8.343  21.114  0.00  0.00    +0.000 A 
ATOM      5  C   UNL     1       0.947   9.114  20.011  0.00  0.00    +0.000 A 
ATOM      6  C   UNL     1       0.133  10.355  20.036  0.00  0.00    +0.000 C 
ATOM      7  C   UNL     1      -0.371  10.396  21.509  0.00  0.00    +0.000 C 
ATOM      8  C   UNL     1      -0.265   8.940  22.063  0.00  0.00    +0.000 C 
ENDROOT
BRANCH   2   9
ATOM      9  N   UNL     1       3.238   6.353  19.266  0.00  0.00    +0.000 N 
ATOM     10  C   UNL     1       2.883   5.413  18.318  0.00  0.00    +0.000 C 
ATOM     11  O   UNL     1       1.759   5.380  17.816  0.00  0.00    +0.000 OA
ATOM     12  H   UNL     1       4.203   6.657  19.251  0.00  0.00    +0.000 HD
BRANCH  10  13
ATOM     13  C   UNL     1       3.961   4.386  17.982  0.00  0.00    +0.000 C 
ATOM     14  C   UNL     1       4.524   3.746  19.259  0.00  0.00    +0.000 C 
ATOM     15  C   UNL     1       3.516   2.816  19.936  0.00  0.00    +0.000 C 
ATOM     16  C   UNL     1       2.987   1.748  18.985  0.00  0.00    +0.000 C 
ATOM     17  C   UNL     1       2.440   2.339  17.691  0.00  0.00    +0.000 C 
ATOM     18  C   UNL     1       3.430   3.302  17.029  0.00  0.00    +0.000 C 
ENDBRANCH  10  13
ENDBRANCH   2   9
BRANCH   1  20
ATOM     19  O   UNL     1       2.782   8.542  16.920  0.00  0.00    +0.000 OA
ATOM     20  C   UNL     1       2.166   9.139  17.795  0.00  0.00    +0.000 C 
BRANCH  20  21
ATOM     21  O   UNL     1       1.707  10.390  17.570  0.00  0.00    +0.000 OA
ATOM     22  H   UNL     1       2.404  11.055  17.763  0.00  0.00    +0.000 HD
ENDBRANCH  20  21
ENDBRANCH   1  20
TORSDOF 4
ENDMDL
MODEL 8
REMARK VINA RESULT:      -6.4      1.555      6.293
REMARK  Name = 
REMARK  4 active torsions:
REMARK  status: ('A' for Active; 'I' for Inactive)
REMARK    1  A    between atoms: C_2  and  O_3
REMARK    2  A    between atoms: C_2  and  C_4
REMARK    3  A    between atoms: C_5  and  N_6
REMARK    4  A    between atoms: C_7  and  C_9
REMARK                            x       y       z     vdW  Elec       q    Type
REMARK                         _______ _______ _______ _____ _____    ______ ____
ROOT
ATOM      1  C   UNL     1       2.778   4.021  18.912  0.00  0.00    +0.000 A 
ATOM      2  C   UNL     1       4.124   3.649  18.857  0.00  0.00    +0.000 A 
ATOM      3  S   UNL     1       4.561   2.456  20.022  0.00  0.00    +0.000 S 
ATOM      4  C   UNL     1       3.045   2.541  20.707  0.00  0.00    +0.000 A 
ATOM      5  C   UNL     1       2.183   3.357  20.031  0.00  0.00    +0.000 A 
ATOM      6  C   UNL     1       0.823   3.312  20.626  0.00  0.00    +0.000 C 
ATOM      7  C   UNL     1       1.083   2.621  21.998  0.00  0.00    +0.000 C 
ATOM      8  C   UNL     1       2.434   1.852  21.869  0.00  0.00    +0.000 C 
ENDROOT
BRANCH   2   9
ATOM      9  N   UNL     1       5.204   3.997  18.059  0.00  0.00    +0.000 N 
ATOM     10  C   UNL     1       6.091   4.957  18.507  0.00  0.00    +0.000 C 
ATOM     11  O   UNL     1       5.938   5.542  19.580  0.00  0.00    +0.000 OA
ATOM     12  H   UNL     1       5.602   3.243  17.513  0.00  0.00    +0.000 HD
BRANCH  10  13
ATOM     13  C   UNL     1       7.238   5.280  17.554  0.00  0.00    +0.000 C 
ATOM     14  C   UNL     1       7.398   4.180  16.496  0.00  0.00    +0.000 C 
ATOM     15  C   UNL     1       6.248   4.172  15.487  0.00  0.00    +0.000 C 
ATOM     16  C   UNL     1       6.053   5.532  14.826  0.00  0.00    +0.000 C 
ATOM     17  C   UNL     1       5.914   6.659  15.841  0.00  0.00    +0.000 C 
ATOM     18  C   UNL     1       7.041   6.648  16.877  0.00  0.00    +0.000 C 
ENDBRANCH  10  13
ENDBRANCH   2   9
BRANCH   1  20
ATOM     19  O   UNL     1       1.118   4.329  17.265  0.00  0.00    +0.000 OA
ATOM     20  C   UNL     1       1.981   4.825  17.979  0.00  0.00    +0.000 C 
BRANCH  20  21
ATOM     21  O   UNL     1       2.218   6.154  17.936  0.00  0.00    +0.000 OA
ATOM     22  H   UNL     1       2.008   6.516  17.047  0.00  0.00    +0.000 HD
ENDBRANCH  20  21
ENDBRANCH   1  20
TORSDOF 4
ENDMDL
MODEL 9
REMARK VINA RESULT:      -6.4      0.912      1.009
REMARK  Name = 
REMARK  4 active torsions:
REMARK  status: ('A' for Active; 'I' for Inactive)
REMARK    1  A    between atoms: C_2  and  O_3
REMARK    2  A    between atoms: C_2  and  C_4
REMARK    3  A    between atoms: C_5  and  N_6
REMARK    4  A    between atoms: C_7  and  C_9
REMARK                            x       y       z     vdW  Elec       q    Type
REMARK                         _______ _______ _______ _____ _____    ______ ____
ROOT
ATOM      1  C   UNL     1       6.467   5.442  16.905  0.00  0.00    +0.000 A 
ATOM      2  C   UNL     1       5.439   4.665  17.449  0.00  0.00    +0.000 A 
ATOM      3  S   UNL     1       4.859   3.440  16.385  0.00  0.00    +0.000 S 
ATOM      4  C   UNL     1       5.825   4.019  15.158  0.00  0.00    +0.000 A 
ATOM      5  C   UNL     1       6.649   5.039  15.544  0.00  0.00    +0.000 A 
ATOM      6  C   UNL     1       7.556   5.442  14.440  0.00  0.00    +0.000 C 
ATOM      7  C   UNL     1       6.903   4.757  13.203  0.00  0.00    +0.000 C 
ATOM      8  C   UNL     1       6.008   3.600  13.748  0.00  0.00    +0.000 C 
ENDROOT
BRANCH   2   9
ATOM      9  N   UNL     1       4.782   4.629  18.670  0.00  0.00    +0.000 N 
ATOM     10  C   UNL     1       3.517   5.175  18.771  0.00  0.00    +0.000 C 
ATOM     11  O   UNL     1       2.963   5.727  17.819  0.00  0.00    +0.000 OA
ATOM     12  H   UNL     1       4.958   3.807  19.234  0.00  0.00    +0.000 HD
BRANCH  10  13
ATOM     13  C   UNL     1       2.882   5.098  20.156  0.00  0.00    +0.000 C 
ATOM     14  C   UNL     1       1.352   5.038  20.055  0.00  0.00    +0.000 C 
ATOM     15  C   UNL     1       0.858   3.703  19.495  0.00  0.00    +0.000 C 
ATOM     16  C   UNL     1       1.394   2.513  20.285  0.00  0.00    +0.000 C 
ATOM     17  C   UNL     1       2.910   2.546  20.432  0.00  0.00    +0.000 C 
ATOM     18  C   UNL     1       3.413   3.895  20.955  0.00  0.00    +0.000 C 
ENDBRANCH  10  13
ENDBRANCH   2   9
BRANCH   1  20
ATOM     19  O   UNL     1       7.663   7.471  17.001  0.00  0.00    +0.000 OA
ATOM     20  C   UNL     1       7.353   6.418  17.545  0.00  0.00    +0.000 C 
BRANCH  20  21
ATOM     21  O   UNL     1       7.816   6.129  18.781  0.00  0.00    +0.000 OA
ATOM     22  H   UNL     1       7.286   5.410  19.192  0.00  0.00    +0.000 HD
ENDBRANCH  20  21
ENDBRANCH   1  20
TORSDOF 4
ENDMDL
