MODEL 1
REMARK VINA RESULT:      -8.2      0.000      0.000
REMARK  Name = 
REMARK  10 active torsions:
REMARK  status: ('A' for Active; 'I' for Inactive)
REMARK    1  A    between atoms: C_1  and  N_2
REMARK    2  A    between atoms: N_2  and  S_3
REMARK    3  A    between atoms: S_3  and  C_6
REMARK    4  A    between atoms: C_13  and  C_14
REMARK    5  A    between atoms: C_18  and  C_19
REMARK    6  A    between atoms: C_19  and  C_20
REMARK    7  A    between atoms: C_20  and  C_21
REMARK    8  A    between atoms: C_21  and  N_22
REMARK    9  A    between atoms: N_22  and  C_23
REMARK   10  A    between atoms: N_22  and  C_24
REMARK                            x       y       z     vdW  Elec       q    Type
REMARK                         _______ _______ _______ _____ _____    ______ ____
ROOT
ATOM      1  C   UNL     1       5.600   5.727  17.471  0.00  0.00    +0.000 A 
ATOM      2  C   UNL     1       5.500   4.794  18.522  0.00  0.00    +0.000 A 
ATOM      3  C   UNL     1       4.493   4.923  19.471  0.00  0.00    +0.000 A 
ATOM      4  C   UNL     1       3.621   5.985  19.333  0.00  0.00    +0.000 A 
ATOM      5  C   UNL     1       3.684   6.919  18.287  0.00  0.00    +0.000 A 
ATOM      6  C   UNL     1       4.687   6.799  17.335  0.00  0.00    +0.000 A 
ATOM      7  C   UNL     1       2.582   7.878  18.542  0.00  0.00    +0.000 C 
ATOM      8  C   UNL     1       2.180   8.906  17.774  0.00  0.00    +0.000 C 
ATOM      9  C   UNL     1       1.932   7.453  19.846  0.00  0.00    +0.000 C 
ATOM     10  O   UNL     1       1.052   7.987  20.483  0.00  0.00    +0.000 OA
ATOM     11  N   UNL     1       2.600   6.298  20.217  0.00  0.00    +0.000 N 
ATOM     12  H   UNL     1       2.383   5.810  21.071  0.00  0.00    +0.000 HD
ENDROOT
BRANCH   8  13
ATOM     13  C   UNL     1       1.027   9.689  18.068  0.00  0.00    +0.000 A 
ATOM     14  N   UNL     1      -0.219   9.202  17.741  0.00  0.00    +0.000 N 
ATOM     15  C   UNL     1      -1.174  10.134  18.051  0.00  0.00    +0.000 A 
ATOM     16  C   UNL     1      -0.552  11.241  18.592  0.00  0.00    +0.000 A 
ATOM     17  C   UNL     1       0.854  10.951  18.633  0.00  0.00    +0.000 A 
ATOM     18  C   UNL     1      -1.324  12.480  18.944  0.00  0.00    +0.000 C 
ATOM     19  C   UNL     1      -2.848  12.237  18.954  0.00  0.00    +0.000 C 
ATOM     20  C   UNL     1      -3.307  11.366  17.775  0.00  0.00    +0.000 C 
ATOM     21  C   UNL     1      -2.636   9.980  17.802  0.00  0.00    +0.000 C 
ATOM     22  H   UNL     1      -0.399   8.317  17.288  0.00  0.00    +0.000 HD
BRANCH  17  23
ATOM     23  C   UNL     1       1.965  11.842  19.109  0.00  0.00    +0.000 C 
BRANCH  23  24
ATOM     24  C   UNL     1       2.258  13.032  18.201  0.00  0.00    +0.000 C 
BRANCH  24  25
ATOM     25  C   UNL     1       1.937  14.398  18.823  0.00  0.00    +0.000 C 
BRANCH  25  26
ATOM     26  N   UNL     1       3.110  15.299  18.811  0.00  0.00    +0.000 NA
ATOM     27  C   UNL     1       4.207  14.784  19.638  0.00  0.00    +0.000 C 
ATOM     28  C   UNL     1       3.585  15.491  17.438  0.00  0.00    +0.000 C 
ENDBRANCH  25  26
ENDBRANCH  24  25
ENDBRANCH  23  24
ENDBRANCH  17  23
ENDBRANCH   8  13
BRANCH   1  29
ATOM     29  S   UNL     1       6.991   5.599  16.362  0.00  0.00    +0.000 S 
ATOM     30  O   UNL     1       7.671   4.348  16.628  0.00  0.00    +0.000 OA
ATOM     31  O   UNL     1       7.673   6.872  16.408  0.00  0.00    +0.000 OA
BRANCH  29  33
ATOM     32  C   UNL     1       6.010   4.142  14.324  0.00  0.00    +0.000 C 
ATOM     33  N   UNL     1       6.247   5.479  14.861  0.00  0.00    +0.000 NA
ATOM     34  H   UNL     1       5.504   6.163  14.733  0.00  0.00    +0.000 HD
ENDBRANCH  29  33
ENDBRANCH   1  29
TORSDOF 7
ENDMDL
MODEL 2
REMARK VINA RESULT:      -8.1      0.947      1.263
REMARK  Name = 
REMARK  10 active torsions:
REMARK  status: ('A' for Active; 'I' for Inactive)
REMARK    1  A    between atoms: C_1  and  N_2
REMARK    2  A    between atoms: N_2  and  S_3
REMARK    3  A    between atoms: S_3  and  C_6
REMARK    4  A    between atoms: C_13  and  C_14
REMARK    5  A    between atoms: C_18  and  C_19
REMARK    6  A    between atoms: C_19  and  C_20
REMARK    7  A    between atoms: C_20  and  C_21
REMARK    8  A    between atoms: C_21  and  N_22
REMARK    9  A    between atoms: N_22  and  C_23
REMARK   10  A    between atoms: N_22  and  C_24
REMARK                            x       y       z     vdW  Elec       q    Type
REMARK                         _______ _______ _______ _____ _____    ______ ____
ROOT
ATOM      1  C   UNL     1       5.436   5.727  17.455  0.00  0.00    +0.000 A 
ATOM      2  C   UNL     1       5.361   4.807  18.519  0.00  0.00    +0.000 A 
ATOM      3  C   UNL     1       4.376   4.949  19.490  0.00  0.00    +0.000 A 
ATOM      4  C   UNL     1       3.501   6.009  19.360  0.00  0.00    +0.000 A 
ATOM      5  C   UNL     1       3.540   6.930  18.301  0.00  0.00    +0.000 A 
ATOM      6  C   UNL     1       4.520   6.798  17.327  0.00  0.00    +0.000 A 
ATOM      7  C   UNL     1       2.444   7.893  18.569  0.00  0.00    +0.000 C 
ATOM      8  C   UNL     1       2.025   8.911  17.798  0.00  0.00    +0.000 C 
ATOM      9  C   UNL     1       1.824   7.484  19.893  0.00  0.00    +0.000 C 
ATOM     10  O   UNL     1       0.960   8.026  20.544  0.00  0.00    +0.000 OA
ATOM     11  N   UNL     1       2.501   6.334  20.263  0.00  0.00    +0.000 N 
ATOM     12  H   UNL     1       2.304   5.856  21.127  0.00  0.00    +0.000 HD
ENDROOT
BRANCH   8  13
ATOM     13  C   UNL     1       0.879   9.698  18.110  0.00  0.00    +0.000 A 
ATOM     14  N   UNL     1      -0.369   9.245  17.746  0.00  0.00    +0.000 N 
ATOM     15  C   UNL     1      -1.314  10.177  18.081  0.00  0.00    +0.000 A 
ATOM     16  C   UNL     1      -0.685  11.251  18.678  0.00  0.00    +0.000 A 
ATOM     17  C   UNL     1       0.717  10.938  18.726  0.00  0.00    +0.000 A 
ATOM     18  C   UNL     1      -1.443  12.486  19.072  0.00  0.00    +0.000 C 
ATOM     19  C   UNL     1      -2.970  12.265  19.050  0.00  0.00    +0.000 C 
ATOM     20  C   UNL     1      -3.425  11.452  17.829  0.00  0.00    +0.000 C 
ATOM     21  C   UNL     1      -2.775  10.057  17.805  0.00  0.00    +0.000 C 
ATOM     22  H   UNL     1      -0.555   8.383  17.252  0.00  0.00    +0.000 HD
BRANCH  17  23
ATOM     23  C   UNL     1       1.833  11.791  19.255  0.00  0.00    +0.000 C 
BRANCH  23  24
ATOM     24  C   UNL     1       2.330  12.860  18.287  0.00  0.00    +0.000 C 
BRANCH  24  25
ATOM     25  C   UNL     1       1.854  14.282  18.614  0.00  0.00    +0.000 C 
BRANCH  25  26
ATOM     26  N   UNL     1       2.986  15.192  18.893  0.00  0.00    +0.000 NA
ATOM     27  C   UNL     1       3.527  14.998  20.244  0.00  0.00    +0.000 C 
ATOM     28  C   UNL     1       4.052  14.988  17.910  0.00  0.00    +0.000 C 
ENDBRANCH  25  26
ENDBRANCH  24  25
ENDBRANCH  23  24
ENDBRANCH  17  23
ENDBRANCH   8  13
BRANCH   1  29
ATOM     29  S   UNL     1       6.801   5.585  16.316  0.00  0.00    +0.000 S 
ATOM     30  O   UNL     1       6.279   5.661  14.967  0.00  0.00    +0.000 OA
ATOM     31  O   UNL     1       7.602   4.471  16.770  0.00  0.00    +0.000 OA
BRANCH  29  33
ATOM     32  C   UNL     1       7.910   7.356  18.011  0.00  0.00    +0.000 C 
ATOM     33  N   UNL     1       7.672   6.989  16.618  0.00  0.00    +0.000 NA
ATOM     34  H   UNL     1       8.446   7.120  15.970  0.00  0.00    +0.000 HD
ENDBRANCH  29  33
ENDBRANCH   1  29
TORSDOF 7
ENDMDL
MODEL 3
REMARK VINA RESULT:      -8.0      2.516      4.616
REMARK  Name = 
REMARK  10 active torsions:
REMARK  status: ('A' for Active; 'I' for Inactive)
REMARK    1  A    between atoms: C_1  and  N_2
REMARK    2  A    between atoms: N_2  and  S_3
REMARK    3  A    between atoms: S_3  and  C_6
REMARK    4  A    between atoms: C_13  and  C_14
REMARK    5  A    between atoms: C_18  and  C_19
REMARK    6  A    between atoms: C_19  and  C_20
REMARK    7  A    between atoms: C_20  and  C_21
REMARK    8  A    between atoms: C_21  and  N_22
REMARK    9  A    between atoms: N_22  and  C_23
REMARK   10  A    between atoms: N_22  and  C_24
REMARK                            x       y       z     vdW  Elec       q    Type
REMARK                         _______ _______ _______ _____ _____    ______ ____
ROOT
ATOM      1  C   UNL     1       2.687   4.747  18.617  0.00  0.00    +0.000 A 
ATOM      2  C   UNL     1       2.488   4.316  19.943  0.00  0.00    +0.000 A 
ATOM      3  C   UNL     1       2.078   5.224  20.913  0.00  0.00    +0.000 A 
ATOM      4  C   UNL     1       1.883   6.533  20.518  0.00  0.00    +0.000 A 
ATOM      5  C   UNL     1       2.055   6.986  19.200  0.00  0.00    +0.000 A 
ATOM      6  C   UNL     1       2.465   6.088  18.225  0.00  0.00    +0.000 A 
ATOM      7  C   UNL     1       1.759   8.439  19.237  0.00  0.00    +0.000 C 
ATOM      8  C   UNL     1       1.705   9.303  18.208  0.00  0.00    +0.000 C 
ATOM      9  C   UNL     1       1.468   8.784  20.686  0.00  0.00    +0.000 C 
ATOM     10  O   UNL     1       1.260   9.860  21.200  0.00  0.00    +0.000 OA
ATOM     11  N   UNL     1       1.534   7.576  21.360  0.00  0.00    +0.000 N 
ATOM     12  H   UNL     1       1.402   7.516  22.357  0.00  0.00    +0.000 HD
ENDROOT
BRANCH   8  13
ATOM     13  C   UNL     1       1.292  10.658  18.355  0.00  0.00    +0.000 A 
ATOM     14  N   UNL     1       2.221  11.665  18.213  0.00  0.00    +0.000 N 
ATOM     15  C   UNL     1       1.629  12.876  18.456  0.00  0.00    +0.000 A 
ATOM     16  C   UNL     1       0.298  12.666  18.754  0.00  0.00    +0.000 A 
ATOM     17  C   UNL     1       0.068  11.251  18.662  0.00  0.00    +0.000 A 
ATOM     18  C   UNL     1      -0.602  13.796  19.165  0.00  0.00    +0.000 C 
ATOM     19  C   UNL     1       0.027  15.177  18.882  0.00  0.00    +0.000 C 
ATOM     20  C   UNL     1       1.519  15.223  19.245  0.00  0.00    +0.000 C 
ATOM     21  C   UNL     1       2.329  14.193  18.438  0.00  0.00    +0.000 C 
ATOM     22  H   UNL     1       3.203  11.529  18.018  0.00  0.00    +0.000 HD
BRANCH  17  23
ATOM     23  C   UNL     1      -1.209  10.506  18.921  0.00  0.00    +0.000 C 
BRANCH  23  24
ATOM     24  C   UNL     1      -2.362  10.883  17.996  0.00  0.00    +0.000 C 
BRANCH  24  25
ATOM     25  C   UNL     1      -2.261  10.292  16.583  0.00  0.00    +0.000 C 
BRANCH  25  26
ATOM     26  N   UNL     1      -3.158  10.981  15.631  0.00  0.00    +0.000 NA
ATOM     27  C   UNL     1      -3.409  10.175  14.431  0.00  0.00    +0.000 C 
ATOM     28  C   UNL     1      -4.433  11.300  16.278  0.00  0.00    +0.000 C 
ENDBRANCH  25  26
ENDBRANCH  24  25
ENDBRANCH  23  24
ENDBRANCH  17  23
ENDBRANCH   8  13
BRANCH   1  29
ATOM     29  S   UNL     1       3.347   3.576  17.443  0.00  0.00    +0.000 S 
ATOM     30  O   UNL     1       4.256   4.279  16.561  0.00  0.00    +0.000 OA
ATOM     31  O   UNL     1       2.225   2.814  16.946  0.00  0.00    +0.000 OA
BRANCH  29  33
ATOM     32  C   UNL     1       3.814   1.171  18.555  0.00  0.00    +0.000 C 
ATOM     33  N   UNL     1       4.256   2.557  18.422  0.00  0.00    +0.000 NA
ATOM     34  H   UNL     1       5.257   2.713  18.333  0.00  0.00    +0.000 HD
ENDBRANCH  29  33
ENDBRANCH   1  29
TORSDOF 7
ENDMDL
MODEL 4
REMARK VINA RESULT:      -8.0      1.723      2.445
REMARK  Name = 
REMARK  10 active torsions:
REMARK  status: ('A' for Active; 'I' for Inactive)
REMARK    1  A    between atoms: C_1  and  N_2
REMARK    2  A    between atoms: N_2  and  S_3
REMARK    3  A    between atoms: S_3  and  C_6
REMARK    4  A    between atoms: C_13  and  C_14
REMARK    5  A    between atoms: C_18  and  C_19
REMARK    6  A    between atoms: C_19  and  C_20
REMARK    7  A    between atoms: C_20  and  C_21
REMARK    8  A    between atoms: C_21  and  N_22
REMARK    9  A    between atoms: N_22  and  C_23
REMARK   10  A    between atoms: N_22  and  C_24
REMARK                            x       y       z     vdW  Elec       q    Type
REMARK                         _______ _______ _______ _____ _____    ______ ____
ROOT
ATOM      1  C   UNL     1       5.547   5.875  17.618  0.00  0.00    +0.000 A 
ATOM      2  C   UNL     1       5.464   4.967  18.692  0.00  0.00    +0.000 A 
ATOM      3  C   UNL     1       4.426   5.072  19.610  0.00  0.00    +0.000 A 
ATOM      4  C   UNL     1       3.507   6.086  19.419  0.00  0.00    +0.000 A 
ATOM      5  C   UNL     1       3.554   6.992  18.348  0.00  0.00    +0.000 A 
ATOM      6  C   UNL     1       4.587   6.896  17.426  0.00  0.00    +0.000 A 
ATOM      7  C   UNL     1       2.400   7.903  18.546  0.00  0.00    +0.000 C 
ATOM      8  C   UNL     1       1.970   8.888  17.739  0.00  0.00    +0.000 C 
ATOM      9  C   UNL     1       1.735   7.482  19.845  0.00  0.00    +0.000 C 
ATOM     10  O   UNL     1       0.813   7.989  20.443  0.00  0.00    +0.000 OA
ATOM     11  N   UNL     1       2.448   6.372  20.267  0.00  0.00    +0.000 N 
ATOM     12  H   UNL     1       2.232   5.898  21.128  0.00  0.00    +0.000 HD
ENDROOT
BRANCH   8  13
ATOM     13  C   UNL     1       0.773   9.621  17.981  0.00  0.00    +0.000 A 
ATOM     14  N   UNL     1      -0.424   9.135  17.500  0.00  0.00    +0.000 N 
ATOM     15  C   UNL     1      -1.429  10.019  17.787  0.00  0.00    +0.000 A 
ATOM     16  C   UNL     1      -0.893  11.093  18.467  0.00  0.00    +0.000 A 
ATOM     17  C   UNL     1       0.511  10.831  18.621  0.00  0.00    +0.000 A 
ATOM     18  C   UNL     1      -1.729  12.285  18.838  0.00  0.00    +0.000 C 
ATOM     19  C   UNL     1      -3.240  12.009  18.683  0.00  0.00    +0.000 C 
ATOM     20  C   UNL     1      -3.561  11.223  17.403  0.00  0.00    +0.000 C 
ATOM     21  C   UNL     1      -2.856   9.855  17.388  0.00  0.00    +0.000 C 
ATOM     22  H   UNL     1      -0.534   8.284  16.966  0.00  0.00    +0.000 HD
BRANCH  17  23
ATOM     23  C   UNL     1       1.547  11.705  19.267  0.00  0.00    +0.000 C 
BRANCH  23  24
ATOM     24  C   UNL     1       1.220  12.127  20.696  0.00  0.00    +0.000 C 
BRANCH  24  25
ATOM     25  C   UNL     1       0.603  11.018  21.559  0.00  0.00    +0.000 C 
BRANCH  25  26
ATOM     26  N   UNL     1      -0.159  11.567  22.702  0.00  0.00    +0.000 NA
ATOM     27  C   UNL     1      -0.722  12.888  22.401  0.00  0.00    +0.000 C 
ATOM     28  C   UNL     1      -1.239  10.651  23.076  0.00  0.00    +0.000 C 
ENDBRANCH  25  26
ENDBRANCH  24  25
ENDBRANCH  23  24
ENDBRANCH  17  23
ENDBRANCH   8  13
BRANCH   1  29
ATOM     29  S   UNL     1       6.973   5.785  16.550  0.00  0.00    +0.000 S 
ATOM     30  O   UNL     1       7.714   4.585  16.879  0.00  0.00    +0.000 OA
ATOM     31  O   UNL     1       7.582   7.095  16.564  0.00  0.00    +0.000 OA
BRANCH  29  33
ATOM     32  C   UNL     1       5.819   4.228  14.683  0.00  0.00    +0.000 C 
ATOM     33  N   UNL     1       6.278   5.569  15.036  0.00  0.00    +0.000 NA
ATOM     34  H   UNL     1       5.680   6.346  14.762  0.00  0.00    +0.000 HD
ENDBRANCH  29  33
ENDBRANCH   1  29
TORSDOF 7
ENDMDL
MODEL 5
REMARK VINA RESULT:      -7.9      3.689      9.296
REMARK  Name = 
REMARK  10 active torsions:
REMARK  status: ('A' for Active; 'I' for Inactive)
REMARK    1  A    between atoms: C_1  and  N_2
REMARK    2  A    between atoms: N_2  and  S_3
REMARK    3  A    between atoms: S_3  and  C_6
REMARK    4  A    between atoms: C_13  and  C_14
REMARK    5  A    between atoms: C_18  and  C_19
REMARK    6  A    between atoms: C_19  and  C_20
REMARK    7  A    between atoms: C_20  and  C_21
REMARK    8  A    between atoms: C_21  and  N_22
REMARK    9  A    between atoms: N_22  and  C_23
REMARK   10  A    between atoms: N_22  and  C_24
REMARK                            x       y       z     vdW  Elec       q    Type
REMARK                         _______ _______ _______ _____ _____    ______ ____
ROOT
ATOM      1  C   UNL     1      -0.400  10.673  21.301  0.00  0.00    +0.000 A 
ATOM      2  C   UNL     1      -0.738  11.596  20.292  0.00  0.00    +0.000 A 
ATOM      3  C   UNL     1      -0.228  11.439  19.009  0.00  0.00    +0.000 A 
ATOM      4  C   UNL     1       0.604  10.361  18.782  0.00  0.00    +0.000 A 
ATOM      5  C   UNL     1       0.943   9.415  19.761  0.00  0.00    +0.000 A 
ATOM      6  C   UNL     1       0.440   9.563  21.047  0.00  0.00    +0.000 A 
ATOM      7  C   UNL     1       1.858   8.458  19.092  0.00  0.00    +0.000 C 
ATOM      8  C   UNL     1       2.388   7.327  19.590  0.00  0.00    +0.000 C 
ATOM      9  C   UNL     1       2.060   8.971  17.678  0.00  0.00    +0.000 C 
ATOM     10  O   UNL     1       2.788   8.561  16.802  0.00  0.00    +0.000 OA
ATOM     11  N   UNL     1       1.246  10.087  17.584  0.00  0.00    +0.000 N 
ATOM     12  H   UNL     1       1.203  10.644  16.747  0.00  0.00    +0.000 HD
ENDROOT
BRANCH   8  13
ATOM     13  C   UNL     1       3.163   6.424  18.807  0.00  0.00    +0.000 A 
ATOM     14  N   UNL     1       4.521   6.623  18.696  0.00  0.00    +0.000 N 
ATOM     15  C   UNL     1       5.057   5.686  17.853  0.00  0.00    +0.000 A 
ATOM     16  C   UNL     1       4.045   4.859  17.410  0.00  0.00    +0.000 A 
ATOM     17  C   UNL     1       2.834   5.308  18.040  0.00  0.00    +0.000 A 
ATOM     18  C   UNL     1       4.297   3.786  16.390  0.00  0.00    +0.000 C 
ATOM     19  C   UNL     1       5.803   3.517  16.186  0.00  0.00    +0.000 C 
ATOM     20  C   UNL     1       6.627   4.812  16.145  0.00  0.00    +0.000 C 
ATOM     21  C   UNL     1       6.492   5.609  17.456  0.00  0.00    +0.000 C 
ATOM     22  H   UNL     1       5.036   7.380  19.123  0.00  0.00    +0.000 HD
BRANCH  17  23
ATOM     23  C   UNL     1       1.448   4.759  17.867  0.00  0.00    +0.000 C 
BRANCH  23  24
ATOM     24  C   UNL     1       1.268   3.323  18.351  0.00  0.00    +0.000 C 
BRANCH  24  25
ATOM     25  C   UNL     1       0.816   3.199  19.813  0.00  0.00    +0.000 C 
BRANCH  25  26
ATOM     26  N   UNL     1       1.910   2.731  20.690  0.00  0.00    +0.000 NA
ATOM     27  C   UNL     1       3.079   2.287  19.922  0.00  0.00    +0.000 C 
ATOM     28  C   UNL     1       2.311   3.798  21.611  0.00  0.00    +0.000 C 
ENDBRANCH  25  26
ENDBRANCH  24  25
ENDBRANCH  23  24
ENDBRANCH  17  23
ENDBRANCH   8  13
BRANCH   1  29
ATOM     29  S   UNL     1      -0.965  10.997  22.961  0.00  0.00    +0.000 S 
ATOM     30  O   UNL     1      -0.248  10.122  23.865  0.00  0.00    +0.000 OA
ATOM     31  O   UNL     1      -2.409  11.032  22.906  0.00  0.00    +0.000 OA
BRANCH  29  33
ATOM     32  C   UNL     1      -1.442  13.601  23.440  0.00  0.00    +0.000 C 
ATOM     33  N   UNL     1      -0.433  12.568  23.224  0.00  0.00    +0.000 NA
ATOM     34  H   UNL     1       0.399  12.610  23.809  0.00  0.00    +0.000 HD
ENDBRANCH  29  33
ENDBRANCH   1  29
TORSDOF 7
ENDMDL
MODEL 6
REMARK VINA RESULT:      -7.9      2.403      4.245
REMARK  Name = 
REMARK  10 active torsions:
REMARK  status: ('A' for Active; 'I' for Inactive)
REMARK    1  A    between atoms: C_1  and  N_2
REMARK    2  A    between atoms: N_2  and  S_3
REMARK    3  A    between atoms: S_3  and  C_6
REMARK    4  A    between atoms: C_13  and  C_14
REMARK    5  A    between atoms: C_18  and  C_19
REMARK    6  A    between atoms: C_19  and  C_20
REMARK    7  A    between atoms: C_20  and  C_21
REMARK    8  A    between atoms: C_21  and  N_22
REMARK    9  A    between atoms: N_22  and  C_23
REMARK   10  A    between atoms: N_22  and  C_24
REMARK                            x       y       z     vdW  Elec       q    Type
REMARK                         _______ _______ _______ _____ _____    ______ ____
ROOT
ATOM      1  C   UNL     1       4.071   6.020  17.665  0.00  0.00    +0.000 A 
ATOM      2  C   UNL     1       3.914   4.982  18.603  0.00  0.00    +0.000 A 
ATOM      3  C   UNL     1       3.107   5.172  19.719  0.00  0.00    +0.000 A 
ATOM      4  C   UNL     1       2.487   6.398  19.855  0.00  0.00    +0.000 A 
ATOM      5  C   UNL     1       2.610   7.444  18.927  0.00  0.00    +0.000 A 
ATOM      6  C   UNL     1       3.414   7.265  17.810  0.00  0.00    +0.000 A 
ATOM      7  C   UNL     1       1.801   8.560  19.474  0.00  0.00    +0.000 C 
ATOM      8  C   UNL     1       1.537   9.751  18.909  0.00  0.00    +0.000 C 
ATOM      9  C   UNL     1       1.263   8.088  20.813  0.00  0.00    +0.000 C 
ATOM     10  O   UNL     1       0.627   8.690  21.648  0.00  0.00    +0.000 OA
ATOM     11  N   UNL     1       1.699   6.779  20.930  0.00  0.00    +0.000 N 
ATOM     12  H   UNL     1       1.501   6.224  21.746  0.00  0.00    +0.000 HD
ENDROOT
BRANCH   8  13
ATOM     13  C   UNL     1       0.645  10.701  19.484  0.00  0.00    +0.000 A 
ATOM     14  N   UNL     1       1.126  11.610  20.401  0.00  0.00    +0.000 N 
ATOM     15  C   UNL     1       0.097  12.380  20.871  0.00  0.00    +0.000 A 
ATOM     16  C   UNL     1      -1.072  11.981  20.255  0.00  0.00    +0.000 A 
ATOM     17  C   UNL     1      -0.724  10.926  19.344  0.00  0.00    +0.000 A 
ATOM     18  C   UNL     1      -2.400  12.572  20.632  0.00  0.00    +0.000 C 
ATOM     19  C   UNL     1      -2.249  13.849  21.486  0.00  0.00    +0.000 C 
ATOM     20  C   UNL     1      -1.149  13.714  22.548  0.00  0.00    +0.000 C 
ATOM     21  C   UNL     1       0.225  13.444  21.907  0.00  0.00    +0.000 C 
ATOM     22  H   UNL     1       2.083  11.661  20.722  0.00  0.00    +0.000 HD
BRANCH  17  23
ATOM     23  C   UNL     1      -1.640  10.137  18.455  0.00  0.00    +0.000 C 
BRANCH  23  24
ATOM     24  C   UNL     1      -1.978  10.813  17.130  0.00  0.00    +0.000 C 
BRANCH  24  25
ATOM     25  C   UNL     1      -2.352   9.842  16.000  0.00  0.00    +0.000 C 
BRANCH  25  26
ATOM     26  N   UNL     1      -3.748  10.030  15.551  0.00  0.00    +0.000 NA
ATOM     27  C   UNL     1      -4.341  11.255  16.100  0.00  0.00    +0.000 C 
ATOM     28  C   UNL     1      -3.807  10.076  14.088  0.00  0.00    +0.000 C 
ENDBRANCH  25  26
ENDBRANCH  24  25
ENDBRANCH  23  24
ENDBRANCH  17  23
ENDBRANCH   8  13
BRANCH   1  29
ATOM     29  S   UNL     1       5.226   5.776  16.327  0.00  0.00    +0.000 S 
ATOM     30  O   UNL     1       5.103   6.891  15.410  0.00  0.00    +0.000 OA
ATOM     31  O   UNL     1       5.075   4.405  15.897  0.00  0.00    +0.000 OA
BRANCH  29  33
ATOM     32  C   UNL     1       7.454   4.669  17.351  0.00  0.00    +0.000 C 
ATOM     33  N   UNL     1       6.710   5.901  17.103  0.00  0.00    +0.000 NA
ATOM     34  H   UNL     1       7.249   6.709  16.798  0.00  0.00    +0.000 HD
ENDBRANCH  29  33
ENDBRANCH   1  29
TORSDOF 7
ENDMDL
MODEL 7
REMARK VINA RESULT:      -7.9      3.134      5.162
REMARK  Name = 
REMARK  10 active torsions:
REMARK  status: ('A' for Active; 'I' for Inactive)
REMARK    1  A    between atoms: C_1  and  N_2
REMARK    2  A    between atoms: N_2  and  S_3
REMARK    3  A    between atoms: S_3  and  C_6
REMARK    4  A    between atoms: C_13  and  C_14
REMARK    5  A    between atoms: C_18  and  C_19
REMARK    6  A    between atoms: C_19  and  C_20
REMARK    7  A    between atoms: C_20  and  C_21
REMARK    8  A    between atoms: C_21  and  N_22
REMARK    9  A    between atoms: N_22  and  C_23
REMARK   10  A    between atoms: N_22  and  C_24
REMARK                            x       y       z     vdW  Elec       q    Type
REMARK                         _______ _______ _______ _____ _____    ______ ____
ROOT
ATOM      1  C   UNL     1       2.958   4.507  19.789  0.00  0.00    +0.000 A 
ATOM      2  C   UNL     1       3.774   4.445  18.642  0.00  0.00    +0.000 A 
ATOM      3  C   UNL     1       3.901   5.558  17.820  0.00  0.00    +0.000 A 
ATOM      4  C   UNL     1       3.204   6.696  18.176  0.00  0.00    +0.000 A 
ATOM      5  C   UNL     1       2.399   6.793  19.322  0.00  0.00    +0.000 A 
ATOM      6  C   UNL     1       2.265   5.686  20.149  0.00  0.00    +0.000 A 
ATOM      7  C   UNL     1       1.839   8.166  19.300  0.00  0.00    +0.000 C 
ATOM      8  C   UNL     1       1.074   8.767  20.229  0.00  0.00    +0.000 C 
ATOM      9  C   UNL     1       2.337   8.816  18.022  0.00  0.00    +0.000 C 
ATOM     10  O   UNL     1       2.069   9.896  17.547  0.00  0.00    +0.000 OA
ATOM     11  N   UNL     1       3.168   7.872  17.443  0.00  0.00    +0.000 N 
ATOM     12  H   UNL     1       3.623   8.034  16.559  0.00  0.00    +0.000 HD
ENDROOT
BRANCH   8  13
ATOM     13  C   UNL     1       0.694  10.137  20.150  0.00  0.00    +0.000 A 
ATOM     14  N   UNL     1       1.501  11.095  20.723  0.00  0.00    +0.000 N 
ATOM     15  C   UNL     1       0.921  12.328  20.588  0.00  0.00    +0.000 A 
ATOM     16  C   UNL     1      -0.275  12.183  19.915  0.00  0.00    +0.000 A 
ATOM     17  C   UNL     1      -0.413  10.787  19.606  0.00  0.00    +0.000 A 
ATOM     18  C   UNL     1      -1.200  13.346  19.697  0.00  0.00    +0.000 C 
ATOM     19  C   UNL     1      -0.515  14.699  19.989  0.00  0.00    +0.000 C 
ATOM     20  C   UNL     1       0.359  14.650  21.251  0.00  0.00    +0.000 C 
ATOM     21  C   UNL     1       1.481  13.604  21.120  0.00  0.00    +0.000 C 
ATOM     22  H   UNL     1       2.362  10.911  21.219  0.00  0.00    +0.000 HD
BRANCH  17  23
ATOM     23  C   UNL     1      -1.554  10.107  18.906  0.00  0.00    +0.000 C 
BRANCH  23  24
ATOM     24  C   UNL     1      -1.433  10.067  17.386  0.00  0.00    +0.000 C 
BRANCH  24  25
ATOM     25  C   UNL     1      -2.721   9.655  16.658  0.00  0.00    +0.000 C 
BRANCH  25  26
ATOM     26  N   UNL     1      -3.218  10.727  15.769  0.00  0.00    +0.000 NA
ATOM     27  C   UNL     1      -3.535  10.224  14.427  0.00  0.00    +0.000 C 
ATOM     28  C   UNL     1      -4.411  11.351  16.347  0.00  0.00    +0.000 C 
ENDBRANCH  25  26
ENDBRANCH  24  25
ENDBRANCH  23  24
ENDBRANCH  17  23
ENDBRANCH   8  13
BRANCH   1  29
ATOM     29  S   UNL     1       2.718   3.012  20.731  0.00  0.00    +0.000 S 
ATOM     30  O   UNL     1       1.907   3.329  21.889  0.00  0.00    +0.000 OA
ATOM     31  O   UNL     1       4.014   2.384  20.847  0.00  0.00    +0.000 OA
BRANCH  29  33
ATOM     32  C   UNL     1       0.606   2.682  19.097  0.00  0.00    +0.000 C 
ATOM     33  N   UNL     1       1.794   2.072  19.689  0.00  0.00    +0.000 NA
ATOM     34  H   UNL     1       2.360   1.484  19.082  0.00  0.00    +0.000 HD
ENDBRANCH  29  33
ENDBRANCH   1  29
TORSDOF 7
ENDMDL
MODEL 8
REMARK VINA RESULT:      -7.9      2.315      4.288
REMARK  Name = 
REMARK  10 active torsions:
REMARK  status: ('A' for Active; 'I' for Inactive)
REMARK    1  A    between atoms: C_1  and  N_2
REMARK    2  A    between atoms: N_2  and  S_3
REMARK    3  A    between atoms: S_3  and  C_6
REMARK    4  A    between atoms: C_13  and  C_14
REMARK    5  A    between atoms: C_18  and  C_19
REMARK    6  A    between atoms: C_19  and  C_20
REMARK    7  A    between atoms: C_20  and  C_21
REMARK    8  A    between atoms: C_21  and  N_22
REMARK    9  A    between atoms: N_22  and  C_23
REMARK   10  A    between atoms: N_22  and  C_24
REMARK                            x       y       z     vdW  Elec       q    Type
REMARK                         _______ _______ _______ _____ _____    ______ ____
ROOT
ATOM      1  C   UNL     1       4.206   5.861  17.519  0.00  0.00    +0.000 A 
ATOM      2  C   UNL     1       4.113   4.900  18.545  0.00  0.00    +0.000 A 
ATOM      3  C   UNL     1       3.340   5.160  19.671  0.00  0.00    +0.000 A 
ATOM      4  C   UNL     1       2.688   6.376  19.729  0.00  0.00    +0.000 A 
ATOM      5  C   UNL     1       2.748   7.344  18.714  0.00  0.00    +0.000 A 
ATOM      6  C   UNL     1       3.518   7.095  17.586  0.00  0.00    +0.000 A 
ATOM      7  C   UNL     1       1.925   8.480  19.198  0.00  0.00    +0.000 C 
ATOM      8  C   UNL     1       1.606   9.612  18.547  0.00  0.00    +0.000 C 
ATOM      9  C   UNL     1       1.449   8.106  20.590  0.00  0.00    +0.000 C 
ATOM     10  O   UNL     1       0.824   8.758  21.396  0.00  0.00    +0.000 OA
ATOM     11  N   UNL     1       1.928   6.823  20.797  0.00  0.00    +0.000 N 
ATOM     12  H   UNL     1       1.775   6.333  21.663  0.00  0.00    +0.000 HD
ENDROOT
BRANCH   8  13
ATOM     13  C   UNL     1       0.706  10.582  19.075  0.00  0.00    +0.000 A 
ATOM     14  N   UNL     1       1.154  11.467  20.031  0.00  0.00    +0.000 N 
ATOM     15  C   UNL     1       0.119  12.263  20.443  0.00  0.00    +0.000 A 
ATOM     16  C   UNL     1      -1.019  11.904  19.749  0.00  0.00    +0.000 A 
ATOM     17  C   UNL     1      -0.644  10.848  18.850  0.00  0.00    +0.000 A 
ATOM     18  C   UNL     1      -2.351  12.530  20.048  0.00  0.00    +0.000 C 
ATOM     19  C   UNL     1      -2.219  13.793  20.925  0.00  0.00    +0.000 C 
ATOM     20  C   UNL     1      -1.193  13.616  22.053  0.00  0.00    +0.000 C 
ATOM     21  C   UNL     1       0.210  13.312  21.498  0.00  0.00    +0.000 C 
ATOM     22  H   UNL     1       2.089  11.488  20.413  0.00  0.00    +0.000 HD
BRANCH  17  23
ATOM     23  C   UNL     1      -1.523  10.095  17.895  0.00  0.00    +0.000 C 
BRANCH  23  24
ATOM     24  C   UNL     1      -2.508  10.963  17.118  0.00  0.00    +0.000 C 
BRANCH  24  25
ATOM     25  C   UNL     1      -3.955  10.451  17.135  0.00  0.00    +0.000 C 
BRANCH  25  26
ATOM     26  N   UNL     1      -4.853  11.359  17.879  0.00  0.00    +0.000 NA
ATOM     27  C   UNL     1      -5.531  12.310  16.990  0.00  0.00    +0.000 C 
ATOM     28  C   UNL     1      -5.854  10.587  18.618  0.00  0.00    +0.000 C 
ENDBRANCH  25  26
ENDBRANCH  24  25
ENDBRANCH  23  24
ENDBRANCH  17  23
ENDBRANCH   8  13
BRANCH   1  29
ATOM     29  S   UNL     1       5.321   5.538  16.164  0.00  0.00    +0.000 S 
ATOM     30  O   UNL     1       5.298   6.679  15.274  0.00  0.00    +0.000 OA
ATOM     31  O   UNL     1       5.035   4.197  15.707  0.00  0.00    +0.000 OA
BRANCH  29  33
ATOM     32  C   UNL     1       7.251   6.707  17.630  0.00  0.00    +0.000 C 
ATOM     33  N   UNL     1       6.817   5.502  16.927  0.00  0.00    +0.000 NA
ATOM     34  H   UNL     1       7.007   4.612  17.382  0.00  0.00    +0.000 HD
ENDBRANCH  29  33
ENDBRANCH   1  29
TORSDOF 7
ENDMDL
MODEL 9
REMARK VINA RESULT:      -7.8      2.430      4.526
REMARK  Name = 
REMARK  10 active torsions:
REMARK  status: ('A' for Active; 'I' for Inactive)
REMARK    1  A    between atoms: C_1  and  N_2
REMARK    2  A    between atoms: N_2  and  S_3
REMARK    3  A    between atoms: S_3  and  C_6
REMARK    4  A    between atoms: C_13  and  C_14
REMARK    5  A    between atoms: C_18  and  C_19
REMARK    6  A    between atoms: C_19  and  C_20
REMARK    7  A    between atoms: C_20  and  C_21
REMARK    8  A    between atoms: C_21  and  N_22
REMARK    9  A    between atoms: N_22  and  C_23
REMARK   10  A    between atoms: N_22  and  C_24
REMARK                            x       y       z     vdW  Elec       q    Type
REMARK                         _______ _______ _______ _____ _____    ______ ____
ROOT
ATOM      1  C   UNL     1       2.813   4.767  18.493  0.00  0.00    +0.000 A 
ATOM      2  C   UNL     1       2.636   4.310  19.814  0.00  0.00    +0.000 A 
ATOM      3  C   UNL     1       2.202   5.189  20.800  0.00  0.00    +0.000 A 
ATOM      4  C   UNL     1       1.961   6.496  20.426  0.00  0.00    +0.000 A 
ATOM      5  C   UNL     1       2.110   6.975  19.115  0.00  0.00    +0.000 A 
ATOM      6  C   UNL     1       2.544   6.106  18.123  0.00  0.00    +0.000 A 
ATOM      7  C   UNL     1       1.765   8.417  19.176  0.00  0.00    +0.000 C 
ATOM      8  C   UNL     1       1.676   9.294  18.161  0.00  0.00    +0.000 C 
ATOM      9  C   UNL     1       1.472   8.730  20.632  0.00  0.00    +0.000 C 
ATOM     10  O   UNL     1       1.232   9.791  21.163  0.00  0.00    +0.000 OA
ATOM     11  N   UNL     1       1.583   7.515  21.287  0.00  0.00    +0.000 N 
ATOM     12  H   UNL     1       1.459   7.435  22.283  0.00  0.00    +0.000 HD
ENDROOT
BRANCH   8  13
ATOM     13  C   UNL     1       1.219  10.632  18.331  0.00  0.00    +0.000 A 
ATOM     14  N   UNL     1       2.124  11.668  18.256  0.00  0.00    +0.000 N 
ATOM     15  C   UNL     1       1.488  12.854  18.510  0.00  0.00    +0.000 A 
ATOM     16  C   UNL     1       0.153  12.599  18.748  0.00  0.00    +0.000 A 
ATOM     17  C   UNL     1      -0.032  11.181  18.606  0.00  0.00    +0.000 A 
ATOM     18  C   UNL     1      -0.794  13.690  19.156  0.00  0.00    +0.000 C 
ATOM     19  C   UNL     1      -0.195  15.096  18.939  0.00  0.00    +0.000 C 
ATOM     20  C   UNL     1       1.280  15.173  19.362  0.00  0.00    +0.000 C 
ATOM     21  C   UNL     1       2.150  14.190  18.558  0.00  0.00    +0.000 C 
ATOM     22  H   UNL     1       3.116  11.565  18.096  0.00  0.00    +0.000 HD
BRANCH  17  23
ATOM     23  C   UNL     1      -1.297  10.394  18.792  0.00  0.00    +0.000 C 
BRANCH  23  24
ATOM     24  C   UNL     1      -2.182  10.312  17.552  0.00  0.00    +0.000 C 
BRANCH  24  25
ATOM     25  C   UNL     1      -3.177  11.471  17.405  0.00  0.00    +0.000 C 
BRANCH  25  26
ATOM     26  N   UNL     1      -4.355  11.301  18.283  0.00  0.00    +0.000 NA
ATOM     27  C   UNL     1      -4.395  12.308  19.350  0.00  0.00    +0.000 C 
ATOM     28  C   UNL     1      -5.588  11.378  17.496  0.00  0.00    +0.000 C 
ENDBRANCH  25  26
ENDBRANCH  24  25
ENDBRANCH  23  24
ENDBRANCH  17  23
ENDBRANCH   8  13
BRANCH   1  29
ATOM     29  S   UNL     1       3.504   3.638  17.298  0.00  0.00    +0.000 S 
ATOM     30  O   UNL     1       4.465   4.361  16.491  0.00  0.00    +0.000 OA
ATOM     31  O   UNL     1       2.393   2.921  16.717  0.00  0.00    +0.000 OA
BRANCH  29  33
ATOM     32  C   UNL     1       3.722   1.269  18.557  0.00  0.00    +0.000 C 
ATOM     33  N   UNL     1       4.348   2.557  18.269  0.00  0.00    +0.000 NA
ATOM     34  H   UNL     1       5.347   2.548  18.074  0.00  0.00    +0.000 HD
ENDBRANCH  29  33
ENDBRANCH   1  29
TORSDOF 7
ENDMDL
