MODEL 1
REMARK VINA RESULT:      -8.2      0.000      0.000
REMARK  Name = 
REMARK  8 active torsions:
REMARK  status: ('A' for Active; 'I' for Inactive)
REMARK    1  A    between atoms: C_1  and  O_2
REMARK    2  A    between atoms: O_2  and  C_3
REMARK    3  A    between atoms: N_8  and  C_9
REMARK    4  A    between atoms: C_9  and  C_10
REMARK    5  A    between atoms: C_10  and  C_11
REMARK    6  A    between atoms: C_11  and  N_12
REMARK    7  A    between atoms: C_17  and  O_18
REMARK    8  A    between atoms: O_18  and  C_19
REMARK                            x       y       z     vdW  Elec       q    Type
REMARK                         _______ _______ _______ _____ _____    ______ ____
ROOT
ATOM      1  C   UNL     1       5.920   5.624  16.279  0.00  0.00    +0.000 A 
ATOM      2  C   UNL     1       4.725   4.922  16.241  0.00  0.00    +0.000 A 
ATOM      3  C   UNL     1       4.100   4.653  17.455  0.00  0.00    +0.000 A 
ATOM      4  C   UNL     1       3.029   5.562  17.985  0.00  0.00    +0.000 A 
ATOM      5  C   UNL     1       2.572   5.397  19.246  0.00  0.00    +0.000 A 
ATOM      6  N   UNL     1       3.047   4.352  20.034  0.00  0.00    +0.000 N 
ATOM      7  C   UNL     1       4.319   3.820  19.734  0.00  0.00    +0.000 A 
ATOM      8  O   UNL     1       4.912   2.960  20.372  0.00  0.00    +0.000 OA
ATOM      9  C   UNL     1       4.955   4.402  18.527  0.00  0.00    +0.000 A 
ATOM     10  C   UNL     1       6.077   5.221  18.635  0.00  0.00    +0.000 A 
ATOM     11  C   UNL     1       6.380   6.021  17.535  0.00  0.00    +0.000 A 
ATOM     12  C   UNL     1       1.925   6.627  19.723  0.00  0.00    +0.000 A 
ATOM     13  C   UNL     1       1.276   6.958  20.901  0.00  0.00    +0.000 A 
ATOM     14  C   UNL     1       0.873   8.283  21.108  0.00  0.00    +0.000 A 
ATOM     15  C   UNL     1       1.186   9.303  20.188  0.00  0.00    +0.000 A 
ATOM     16  C   UNL     1       0.815  10.630  20.459  0.00  0.00    +0.000 A 
ATOM     17  C   UNL     1       1.210  11.671  19.621  0.00  0.00    +0.000 A 
ATOM     18  C   UNL     1       1.983  11.391  18.502  0.00  0.00    +0.000 A 
ATOM     19  C   UNL     1       2.308  10.064  18.194  0.00  0.00    +0.000 A 
ATOM     20  C   UNL     1       1.894   8.992  19.013  0.00  0.00    +0.000 A 
ATOM     21  C   UNL     1       2.166   7.630  18.788  0.00  0.00    +0.000 A 
ATOM     22  C   UNL     1       2.774   6.983  17.621  0.00  0.00    +0.000 C 
ATOM     23  O   UNL     1       3.046   7.515  16.571  0.00  0.00    +0.000 OA
ENDROOT
BRANCH   1  25
ATOM     24  C   UNL     1       6.884   4.807  14.308  0.00  0.00    +0.000 C 
ATOM     25  O   UNL     1       6.518   5.949  15.094  0.00  0.00    +0.000 OA
ENDBRANCH   1  25
BRANCH  11  26
ATOM     26  O   UNL     1       7.000   7.226  17.746  0.00  0.00    +0.000 OA
ATOM     27  C   UNL     1       8.162   7.102  18.605  0.00  0.00    +0.000 C 
ENDBRANCH  11  26
BRANCH   6  28
ATOM     28  C   UNL     1       2.368   3.870  21.230  0.00  0.00    +0.000 C 
BRANCH  28  29
ATOM     29  C   UNL     1       1.448   2.666  20.982  0.00  0.00    +0.000 C 
BRANCH  29  30
ATOM     30  C   UNL     1       0.810   2.687  19.595  0.00  0.00    +0.000 C 
BRANCH  30  31
ATOM     31  N   UNL     1       1.459   1.691  18.746  0.00  0.00    +0.000 NA
ATOM     32  H   UNL     1       1.895   2.147  17.945  0.00  0.00    +0.000 HD
ATOM     33  H   UNL     1       0.755   1.061  18.365  0.00  0.00    +0.000 HD
ENDBRANCH  30  31
ENDBRANCH  29  30
ENDBRANCH  28  29
ENDBRANCH   6  28
TORSDOF 6
ENDMDL
MODEL 2
REMARK VINA RESULT:      -7.6      7.161      9.822
REMARK  Name = 
REMARK  8 active torsions:
REMARK  status: ('A' for Active; 'I' for Inactive)
REMARK    1  A    between atoms: C_1  and  O_2
REMARK    2  A    between atoms: O_2  and  C_3
REMARK    3  A    between atoms: N_8  and  C_9
REMARK    4  A    between atoms: C_9  and  C_10
REMARK    5  A    between atoms: C_10  and  C_11
REMARK    6  A    between atoms: C_11  and  N_12
REMARK    7  A    between atoms: C_17  and  O_18
REMARK    8  A    between atoms: O_18  and  C_19
REMARK                            x       y       z     vdW  Elec       q    Type
REMARK                         _______ _______ _______ _____ _____    ______ ____
ROOT
ATOM      1  C   UNL     1       0.337  12.958  21.274  0.00  0.00    +0.000 A 
ATOM      2  C   UNL     1      -0.158  13.542  20.117  0.00  0.00    +0.000 A 
ATOM      3  C   UNL     1      -1.011  12.777  19.327  0.00  0.00    +0.000 A 
ATOM      4  C   UNL     1      -2.501  12.882  19.481  0.00  0.00    +0.000 A 
ATOM      5  C   UNL     1      -3.304  11.998  18.849  0.00  0.00    +0.000 A 
ATOM      6  N   UNL     1      -2.761  11.030  18.010  0.00  0.00    +0.000 N 
ATOM      7  C   UNL     1      -1.420  10.644  18.222  0.00  0.00    +0.000 A 
ATOM      8  O   UNL     1      -0.820   9.757  17.630  0.00  0.00    +0.000 OA
ATOM      9  C   UNL     1      -0.725  11.413  19.283  0.00  0.00    +0.000 A 
ATOM     10  C   UNL     1      -0.374  10.810  20.490  0.00  0.00    +0.000 A 
ATOM     11  C   UNL     1      -0.083  11.659  21.556  0.00  0.00    +0.000 A 
ATOM     12  C   UNL     1      -4.627  11.958  19.489  0.00  0.00    +0.000 A 
ATOM     13  C   UNL     1      -5.792  11.265  19.208  0.00  0.00    +0.000 A 
ATOM     14  C   UNL     1      -6.866  11.345  20.103  0.00  0.00    +0.000 A 
ATOM     15  C   UNL     1      -6.761  12.043  21.322  0.00  0.00    +0.000 A 
ATOM     16  C   UNL     1      -7.841  12.052  22.221  0.00  0.00    +0.000 A 
ATOM     17  C   UNL     1      -7.722  12.639  23.478  0.00  0.00    +0.000 A 
ATOM     18  C   UNL     1      -6.517  13.223  23.850  0.00  0.00    +0.000 A 
ATOM     19  C   UNL     1      -5.455  13.269  22.938  0.00  0.00    +0.000 A 
ATOM     20  C   UNL     1      -5.563  12.706  21.648  0.00  0.00    +0.000 A 
ATOM     21  C   UNL     1      -4.559  12.703  20.663  0.00  0.00    +0.000 A 
ATOM     22  C   UNL     1      -3.264  13.391  20.653  0.00  0.00    +0.000 C 
ATOM     23  O   UNL     1      -2.879  14.200  21.464  0.00  0.00    +0.000 OA
ENDROOT
BRANCH   1  25
ATOM     24  C   UNL     1       0.828  15.117  22.040  0.00  0.00    +0.000 C 
ATOM     25  O   UNL     1       1.128  13.715  22.092  0.00  0.00    +0.000 OA
ENDBRANCH   1  25
BRANCH  11  26
ATOM     26  O   UNL     1      -0.346  11.230  22.831  0.00  0.00    +0.000 OA
ATOM     27  C   UNL     1      -1.750  11.355  23.174  0.00  0.00    +0.000 C 
ENDBRANCH  11  26
BRANCH   6  28
ATOM     28  C   UNL     1      -3.535  10.296  17.016  0.00  0.00    +0.000 C 
BRANCH  28  29
ATOM     29  C   UNL     1      -3.514  10.929  15.618  0.00  0.00    +0.000 C 
BRANCH  29  30
ATOM     30  C   UNL     1      -2.859  10.029  14.573  0.00  0.00    +0.000 C 
BRANCH  30  31
ATOM     31  N   UNL     1      -3.534  10.201  13.289  0.00  0.00    +0.000 NA
ATOM     32  H   UNL     1      -4.544  10.199  13.423  0.00  0.00    +0.000 HD
ATOM     33  H   UNL     1      -3.325   9.404  12.688  0.00  0.00    +0.000 HD
ENDBRANCH  30  31
ENDBRANCH  29  30
ENDBRANCH  28  29
ENDBRANCH   6  28
TORSDOF 6
ENDMDL
MODEL 3
REMARK VINA RESULT:      -6.6      7.846     10.561
REMARK  Name = 
REMARK  8 active torsions:
REMARK  status: ('A' for Active; 'I' for Inactive)
REMARK    1  A    between atoms: C_1  and  O_2
REMARK    2  A    between atoms: O_2  and  C_3
REMARK    3  A    between atoms: N_8  and  C_9
REMARK    4  A    between atoms: C_9  and  C_10
REMARK    5  A    between atoms: C_10  and  C_11
REMARK    6  A    between atoms: C_11  and  N_12
REMARK    7  A    between atoms: C_17  and  O_18
REMARK    8  A    between atoms: O_18  and  C_19
REMARK                            x       y       z     vdW  Elec       q    Type
REMARK                         _______ _______ _______ _____ _____    ______ ____
ROOT
ATOM      1  C   UNL     1       4.352  16.336  19.075  0.00  0.00    +0.000 A 
ATOM      2  C   UNL     1       5.145  16.975  20.017  0.00  0.00    +0.000 A 
ATOM      3  C   UNL     1       5.628  16.210  21.075  0.00  0.00    +0.000 A 
ATOM      4  C   UNL     1       6.991  15.585  21.011  0.00  0.00    +0.000 A 
ATOM      5  C   UNL     1       7.364  14.692  21.955  0.00  0.00    +0.000 A 
ATOM      6  N   UNL     1       6.513  14.395  23.017  0.00  0.00    +0.000 N 
ATOM      7  C   UNL     1       5.130  14.603  22.836  0.00  0.00    +0.000 A 
ATOM      8  O   UNL     1       4.246  14.320  23.635  0.00  0.00    +0.000 OA
ATOM      9  C   UNL     1       4.768  15.213  21.534  0.00  0.00    +0.000 A 
ATOM     10  C   UNL     1       4.092  14.477  20.562  0.00  0.00    +0.000 A 
ATOM     11  C   UNL     1       4.126  14.972  19.260  0.00  0.00    +0.000 A 
ATOM     12  C   UNL     1       8.474  13.863  21.467  0.00  0.00    +0.000 A 
ATOM     13  C   UNL     1       9.227  12.855  22.045  0.00  0.00    +0.000 A 
ATOM     14  C   UNL     1      10.150  12.155  21.259  0.00  0.00    +0.000 A 
ATOM     15  C   UNL     1      10.271  12.391  19.875  0.00  0.00    +0.000 A 
ATOM     16  C   UNL     1      11.167  11.628  19.108  0.00  0.00    +0.000 A 
ATOM     17  C   UNL     1      11.223  11.767  17.723  0.00  0.00    +0.000 A 
ATOM     18  C   UNL     1      10.380  12.672  17.091  0.00  0.00    +0.000 A 
ATOM     19  C   UNL     1       9.526  13.477  17.854  0.00  0.00    +0.000 A 
ATOM     20  C   UNL     1       9.473  13.374  19.261  0.00  0.00    +0.000 A 
ATOM     21  C   UNL     1       8.654  14.137  20.113  0.00  0.00    +0.000 A 
ATOM     22  C   UNL     1       7.806  15.292  19.800  0.00  0.00    +0.000 C 
ATOM     23  O   UNL     1       7.759  15.878  18.745  0.00  0.00    +0.000 OA
ENDROOT
BRANCH   1  25
ATOM     24  C   UNL     1       2.494  17.053  17.843  0.00  0.00    +0.000 C 
ATOM     25  O   UNL     1       3.920  17.057  17.998  0.00  0.00    +0.000 OA
ENDBRANCH   1  25
BRANCH  11  26
ATOM     26  O   UNL     1       4.069  14.086  18.216  0.00  0.00    +0.000 OA
ATOM     27  C   UNL     1       2.842  13.313  18.218  0.00  0.00    +0.000 C 
ENDBRANCH  11  26
BRANCH   6  28
ATOM     28  C   UNL     1       6.955  13.758  24.251  0.00  0.00    +0.000 C 
BRANCH  28  29
ATOM     29  C   UNL     1       6.703  12.245  24.296  0.00  0.00    +0.000 C 
BRANCH  29  30
ATOM     30  C   UNL     1       6.011  11.801  25.583  0.00  0.00    +0.000 C 
BRANCH  30  31
ATOM     31  N   UNL     1       5.136  10.667  25.299  0.00  0.00    +0.000 NA
ATOM     32  H   UNL     1       4.710  10.776  24.380  0.00  0.00    +0.000 HD
ATOM     33  H   UNL     1       4.367  10.657  25.969  0.00  0.00    +0.000 HD
ENDBRANCH  30  31
ENDBRANCH  29  30
ENDBRANCH  28  29
ENDBRANCH   6  28
TORSDOF 6
ENDMDL
MODEL 4
REMARK VINA RESULT:      -6.5      7.344     11.478
REMARK  Name = 
REMARK  8 active torsions:
REMARK  status: ('A' for Active; 'I' for Inactive)
REMARK    1  A    between atoms: C_1  and  O_2
REMARK    2  A    between atoms: O_2  and  C_3
REMARK    3  A    between atoms: N_8  and  C_9
REMARK    4  A    between atoms: C_9  and  C_10
REMARK    5  A    between atoms: C_10  and  C_11
REMARK    6  A    between atoms: C_11  and  N_12
REMARK    7  A    between atoms: C_17  and  O_18
REMARK    8  A    between atoms: O_18  and  C_19
REMARK                            x       y       z     vdW  Elec       q    Type
REMARK                         _______ _______ _______ _____ _____    ______ ____
ROOT
ATOM      1  C   UNL     1      -6.698  12.423  18.680  0.00  0.00    +0.000 A 
ATOM      2  C   UNL     1      -6.137  13.574  19.213  0.00  0.00    +0.000 A 
ATOM      3  C   UNL     1      -5.616  13.497  20.502  0.00  0.00    +0.000 A 
ATOM      4  C   UNL     1      -4.158  13.222  20.726  0.00  0.00    +0.000 A 
ATOM      5  C   UNL     1      -3.709  12.958  21.973  0.00  0.00    +0.000 A 
ATOM      6  N   UNL     1      -4.581  13.000  23.057  0.00  0.00    +0.000 N 
ATOM      7  C   UNL     1      -5.955  12.799  22.811  0.00  0.00    +0.000 A 
ATOM      8  O   UNL     1      -6.838  12.726  23.655  0.00  0.00    +0.000 OA
ATOM      9  C   UNL     1      -6.305  12.657  21.376  0.00  0.00    +0.000 A 
ATOM     10  C   UNL     1      -6.730  11.434  20.861  0.00  0.00    +0.000 A 
ATOM     11  C   UNL     1      -6.670  11.279  19.478  0.00  0.00    +0.000 A 
ATOM     12  C   UNL     1      -2.417  12.260  21.917  0.00  0.00    +0.000 A 
ATOM     13  C   UNL     1      -1.540  11.814  22.891  0.00  0.00    +0.000 A 
ATOM     14  C   UNL     1      -0.429  11.051  22.512  0.00  0.00    +0.000 A 
ATOM     15  C   UNL     1      -0.227  10.654  21.176  0.00  0.00    +0.000 A 
ATOM     16  C   UNL     1       0.869   9.840  20.843  0.00  0.00    +0.000 A 
ATOM     17  C   UNL     1       1.027   9.344  19.552  0.00  0.00    +0.000 A 
ATOM     18  C   UNL     1       0.088   9.657  18.578  0.00  0.00    +0.000 A 
ATOM     19  C   UNL     1      -0.976  10.515  18.887  0.00  0.00    +0.000 A 
ATOM     20  C   UNL     1      -1.140  11.053  20.182  0.00  0.00    +0.000 A 
ATOM     21  C   UNL     1      -2.168  11.922  20.589  0.00  0.00    +0.000 A 
ATOM     22  C   UNL     1      -3.191  12.596  19.783  0.00  0.00    +0.000 C 
ATOM     23  O   UNL     1      -3.251  12.613  18.576  0.00  0.00    +0.000 OA
ENDROOT
BRANCH   1  25
ATOM     24  C   UNL     1      -7.035  13.756  16.785  0.00  0.00    +0.000 C 
ATOM     25  O   UNL     1      -7.159  12.464  17.394  0.00  0.00    +0.000 OA
ENDBRANCH   1  25
BRANCH  11  26
ATOM     26  O   UNL     1      -6.455  10.026  18.963  0.00  0.00    +0.000 OA
ATOM     27  C   UNL     1      -7.104   8.993  19.746  0.00  0.00    +0.000 C 
ENDBRANCH  11  26
BRANCH   6  28
ATOM     28  C   UNL     1      -4.141  13.105  24.443  0.00  0.00    +0.000 C 
BRANCH  28  29
ATOM     29  C   UNL     1      -3.368  14.393  24.757  0.00  0.00    +0.000 C 
BRANCH  29  30
ATOM     30  C   UNL     1      -4.194  15.652  24.505  0.00  0.00    +0.000 C 
BRANCH  30  31
ATOM     31  N   UNL     1      -3.384  16.630  23.783  0.00  0.00    +0.000 NA
ATOM     32  H   UNL     1      -3.486  16.493  22.778  0.00  0.00    +0.000 HD
ATOM     33  H   UNL     1      -2.399  16.473  23.994  0.00  0.00    +0.000 HD
ENDBRANCH  30  31
ENDBRANCH  29  30
ENDBRANCH  28  29
ENDBRANCH   6  28
TORSDOF 6
ENDMDL
MODEL 5
REMARK VINA RESULT:      -6.4      8.157     11.003
REMARK  Name = 
REMARK  8 active torsions:
REMARK  status: ('A' for Active; 'I' for Inactive)
REMARK    1  A    between atoms: C_1  and  O_2
REMARK    2  A    between atoms: O_2  and  C_3
REMARK    3  A    between atoms: N_8  and  C_9
REMARK    4  A    between atoms: C_9  and  C_10
REMARK    5  A    between atoms: C_10  and  C_11
REMARK    6  A    between atoms: C_11  and  N_12
REMARK    7  A    between atoms: C_17  and  O_18
REMARK    8  A    between atoms: O_18  and  C_19
REMARK                            x       y       z     vdW  Elec       q    Type
REMARK                         _______ _______ _______ _____ _____    ______ ____
ROOT
ATOM      1  C   UNL     1       4.425  16.386  19.016  0.00  0.00    +0.000 A 
ATOM      2  C   UNL     1       5.223  17.044  19.940  0.00  0.00    +0.000 A 
ATOM      3  C   UNL     1       5.711  16.301  21.011  0.00  0.00    +0.000 A 
ATOM      4  C   UNL     1       7.074  15.674  20.953  0.00  0.00    +0.000 A 
ATOM      5  C   UNL     1       7.452  14.800  21.912  0.00  0.00    +0.000 A 
ATOM      6  N   UNL     1       6.608  14.525  22.984  0.00  0.00    +0.000 N 
ATOM      7  C   UNL     1       5.223  14.729  22.807  0.00  0.00    +0.000 A 
ATOM      8  O   UNL     1       4.344  14.463  23.616  0.00  0.00    +0.000 OA
ATOM      9  C   UNL     1       4.854  15.313  21.494  0.00  0.00    +0.000 A 
ATOM     10  C   UNL     1       4.173  14.557  20.542  0.00  0.00    +0.000 A 
ATOM     11  C   UNL     1       4.200  15.026  19.230  0.00  0.00    +0.000 A 
ATOM     12  C   UNL     1       8.561  13.962  21.435  0.00  0.00    +0.000 A 
ATOM     13  C   UNL     1       9.317  12.966  22.030  0.00  0.00    +0.000 A 
ATOM     14  C   UNL     1      10.235  12.250  21.253  0.00  0.00    +0.000 A 
ATOM     15  C   UNL     1      10.349  12.458  19.864  0.00  0.00    +0.000 A 
ATOM     16  C   UNL     1      11.241  11.680  19.108  0.00  0.00    +0.000 A 
ATOM     17  C   UNL     1      11.290  11.790  17.720  0.00  0.00    +0.000 A 
ATOM     18  C   UNL     1      10.443  12.682  17.074  0.00  0.00    +0.000 A 
ATOM     19  C   UNL     1       9.592  13.503  17.825  0.00  0.00    +0.000 A 
ATOM     20  C   UNL     1       9.547  13.428  19.234  0.00  0.00    +0.000 A 
ATOM     21  C   UNL     1       8.733  14.208  20.075  0.00  0.00    +0.000 A 
ATOM     22  C   UNL     1       7.883  15.357  19.743  0.00  0.00    +0.000 C 
ATOM     23  O   UNL     1       7.830  15.921  18.676  0.00  0.00    +0.000 OA
ENDROOT
BRANCH   1  25
ATOM     24  C   UNL     1       2.558  17.133  17.817  0.00  0.00    +0.000 C 
ATOM     25  O   UNL     1       3.987  17.085  17.926  0.00  0.00    +0.000 OA
ENDBRANCH   1  25
BRANCH  11  26
ATOM     26  O   UNL     1       4.138  14.118  18.204  0.00  0.00    +0.000 OA
ATOM     27  C   UNL     1       2.890  13.380  18.200  0.00  0.00    +0.000 C 
ENDBRANCH  11  26
BRANCH   6  28
ATOM     28  C   UNL     1       7.057  13.913  24.229  0.00  0.00    +0.000 C 
BRANCH  28  29
ATOM     29  C   UNL     1       8.000  14.799  25.055  0.00  0.00    +0.000 C 
BRANCH  29  30
ATOM     30  C   UNL     1       8.795  14.008  26.091  0.00  0.00    +0.000 C 
BRANCH  30  31
ATOM     31  N   UNL     1       8.299  12.635  26.141  0.00  0.00    +0.000 NA
ATOM     32  H   UNL     1       8.676  12.099  25.361  0.00  0.00    +0.000 HD
ATOM     33  H   UNL     1       7.286  12.637  26.022  0.00  0.00    +0.000 HD
ENDBRANCH  30  31
ENDBRANCH  29  30
ENDBRANCH  28  29
ENDBRANCH   6  28
TORSDOF 6
ENDMDL
MODEL 6
REMARK VINA RESULT:      -6.4      8.568     10.397
REMARK  Name = 
REMARK  8 active torsions:
REMARK  status: ('A' for Active; 'I' for Inactive)
REMARK    1  A    between atoms: C_1  and  O_2
REMARK    2  A    between atoms: O_2  and  C_3
REMARK    3  A    between atoms: N_8  and  C_9
REMARK    4  A    between atoms: C_9  and  C_10
REMARK    5  A    between atoms: C_10  and  C_11
REMARK    6  A    between atoms: C_11  and  N_12
REMARK    7  A    between atoms: C_17  and  O_18
REMARK    8  A    between atoms: O_18  and  C_19
REMARK                            x       y       z     vdW  Elec       q    Type
REMARK                         _______ _______ _______ _____ _____    ______ ____
ROOT
ATOM      1  C   UNL     1       8.451  13.292  24.169  0.00  0.00    +0.000 A 
ATOM      2  C   UNL     1       9.190  14.218  23.447  0.00  0.00    +0.000 A 
ATOM      3  C   UNL     1       9.334  13.999  22.080  0.00  0.00    +0.000 A 
ATOM      4  C   UNL     1       8.402  14.645  21.096  0.00  0.00    +0.000 A 
ATOM      5  C   UNL     1       8.433  14.271  19.798  0.00  0.00    +0.000 A 
ATOM      6  N   UNL     1       9.364  13.335  19.359  0.00  0.00    +0.000 N 
ATOM      7  C   UNL     1       9.889  12.428  20.303  0.00  0.00    +0.000 A 
ATOM      8  O   UNL     1      10.651  11.499  20.068  0.00  0.00    +0.000 OA
ATOM      9  C   UNL     1       9.433  12.663  21.695  0.00  0.00    +0.000 A 
ATOM     10  C   UNL     1       8.573  11.766  22.327  0.00  0.00    +0.000 A 
ATOM     11  C   UNL     1       7.898  12.230  23.454  0.00  0.00    +0.000 A 
ATOM     12  C   UNL     1       7.176  14.634  19.129  0.00  0.00    +0.000 A 
ATOM     13  C   UNL     1       6.729  14.510  17.824  0.00  0.00    +0.000 A 
ATOM     14  C   UNL     1       5.402  14.839  17.523  0.00  0.00    +0.000 A 
ATOM     15  C   UNL     1       4.487  15.211  18.527  0.00  0.00    +0.000 A 
ATOM     16  C   UNL     1       3.149  15.478  18.194  0.00  0.00    +0.000 A 
ATOM     17  C   UNL     1       2.202  15.738  19.182  0.00  0.00    +0.000 A 
ATOM     18  C   UNL     1       2.586  15.732  20.517  0.00  0.00    +0.000 A 
ATOM     19  C   UNL     1       3.929  15.524  20.853  0.00  0.00    +0.000 A 
ATOM     20  C   UNL     1       4.911  15.287  19.867  0.00  0.00    +0.000 A 
ATOM     21  C   UNL     1       6.281  15.071  20.102  0.00  0.00    +0.000 A 
ATOM     22  C   UNL     1       7.041  15.193  21.351  0.00  0.00    +0.000 C 
ATOM     23  O   UNL     1       6.627  15.629  22.399  0.00  0.00    +0.000 OA
ENDROOT
BRANCH   1  25
ATOM     24  C   UNL     1       7.593  14.769  25.771  0.00  0.00    +0.000 C 
ATOM     25  O   UNL     1       8.249  13.523  25.501  0.00  0.00    +0.000 OA
ENDBRANCH   1  25
BRANCH  11  26
ATOM     26  O   UNL     1       6.659  11.716  23.738  0.00  0.00    +0.000 OA
ATOM     27  C   UNL     1       5.592  12.643  23.413  0.00  0.00    +0.000 C 
ENDBRANCH  11  26
BRANCH   6  28
ATOM     28  C   UNL     1       9.724  13.150  17.958  0.00  0.00    +0.000 C 
BRANCH  28  29
ATOM     29  C   UNL     1      10.860  14.065  17.480  0.00  0.00    +0.000 C 
BRANCH  29  30
ATOM     30  C   UNL     1      12.185  13.325  17.316  0.00  0.00    +0.000 C 
BRANCH  30  31
ATOM     31  N   UNL     1      11.960  11.888  17.450  0.00  0.00    +0.000 NA
ATOM     32  H   UNL     1      12.833  11.383  17.302  0.00  0.00    +0.000 HD
ATOM     33  H   UNL     1      11.323  11.576  16.716  0.00  0.00    +0.000 HD
ENDBRANCH  30  31
ENDBRANCH  29  30
ENDBRANCH  28  29
ENDBRANCH   6  28
TORSDOF 6
ENDMDL
MODEL 7
REMARK VINA RESULT:      -6.2      5.787      9.523
REMARK  Name = 
REMARK  8 active torsions:
REMARK  status: ('A' for Active; 'I' for Inactive)
REMARK    1  A    between atoms: C_1  and  O_2
REMARK    2  A    between atoms: O_2  and  C_3
REMARK    3  A    between atoms: N_8  and  C_9
REMARK    4  A    between atoms: C_9  and  C_10
REMARK    5  A    between atoms: C_10  and  C_11
REMARK    6  A    between atoms: C_11  and  N_12
REMARK    7  A    between atoms: C_17  and  O_18
REMARK    8  A    between atoms: O_18  and  C_19
REMARK                            x       y       z     vdW  Elec       q    Type
REMARK                         _______ _______ _______ _____ _____    ______ ____
ROOT
ATOM      1  C   UNL     1      -1.166  13.503  23.466  0.00  0.00    +0.000 A 
ATOM      2  C   UNL     1      -0.387  13.742  22.343  0.00  0.00    +0.000 A 
ATOM      3  C   UNL     1      -0.243  12.702  21.429  0.00  0.00    +0.000 A 
ATOM      4  C   UNL     1      -1.142  12.601  20.231  0.00  0.00    +0.000 A 
ATOM      5  C   UNL     1      -1.117  11.488  19.465  0.00  0.00    +0.000 A 
ATOM      6  N   UNL     1      -0.220  10.461  19.747  0.00  0.00    +0.000 N 
ATOM      7  C   UNL     1       0.263  10.346  21.068  0.00  0.00    +0.000 A 
ATOM      8  O   UNL     1       0.989   9.459  21.498  0.00  0.00    +0.000 OA
ATOM      9  C   UNL     1      -0.193  11.422  21.981  0.00  0.00    +0.000 A 
ATOM     10  C   UNL     1      -1.092  11.153  23.012  0.00  0.00    +0.000 A 
ATOM     11  C   UNL     1      -1.756  12.244  23.569  0.00  0.00    +0.000 A 
ATOM     12  C   UNL     1      -2.354  11.377  18.681  0.00  0.00    +0.000 A 
ATOM     13  C   UNL     1      -2.797  10.466  17.737  0.00  0.00    +0.000 A 
ATOM     14  C   UNL     1      -4.108  10.564  17.256  0.00  0.00    +0.000 A 
ATOM     15  C   UNL     1      -5.014  11.512  17.769  0.00  0.00    +0.000 A 
ATOM     16  C   UNL     1      -6.339  11.542  17.302  0.00  0.00    +0.000 A 
ATOM     17  C   UNL     1      -7.281  12.394  17.872  0.00  0.00    +0.000 A 
ATOM     18  C   UNL     1      -6.907  13.226  18.920  0.00  0.00    +0.000 A 
ATOM     19  C   UNL     1      -5.574  13.244  19.352  0.00  0.00    +0.000 A 
ATOM     20  C   UNL     1      -4.596  12.409  18.769  0.00  0.00    +0.000 A 
ATOM     21  C   UNL     1      -3.238  12.356  19.129  0.00  0.00    +0.000 A 
ATOM     22  C   UNL     1      -2.482  13.221  20.040  0.00  0.00    +0.000 C 
ATOM     23  O   UNL     1      -2.885  14.234  20.562  0.00  0.00    +0.000 OA
ENDROOT
BRANCH   1  25
ATOM     24  C   UNL     1      -1.002  15.813  23.814  0.00  0.00    +0.000 C 
ATOM     25  O   UNL     1      -1.368  14.531  24.343  0.00  0.00    +0.000 OA
ENDBRANCH   1  25
BRANCH  11  26
ATOM     26  O   UNL     1      -3.016  12.059  24.077  0.00  0.00    +0.000 OA
ATOM     27  C   UNL     1      -4.039  12.651  23.236  0.00  0.00    +0.000 C 
ENDBRANCH  11  26
BRANCH   6  28
ATOM     28  C   UNL     1       0.142   9.421  18.792  0.00  0.00    +0.000 C 
BRANCH  28  29
ATOM     29  C   UNL     1       1.399   9.738  17.971  0.00  0.00    +0.000 C 
BRANCH  29  30
ATOM     30  C   UNL     1       2.437   8.620  18.027  0.00  0.00    +0.000 C 
BRANCH  30  31
ATOM     31  N   UNL     1       2.180   7.774  19.190  0.00  0.00    +0.000 NA
ATOM     32  H   UNL     1       2.440   8.266  20.044  0.00  0.00    +0.000 HD
ATOM     33  H   UNL     1       2.776   6.948  19.145  0.00  0.00    +0.000 HD
ENDBRANCH  30  31
ENDBRANCH  29  30
ENDBRANCH  28  29
ENDBRANCH   6  28
TORSDOF 6
ENDMDL
MODEL 8
REMARK VINA RESULT:      -6.2      8.891     11.222
REMARK  Name = 
REMARK  8 active torsions:
REMARK  status: ('A' for Active; 'I' for Inactive)
REMARK    1  A    between atoms: C_1  and  O_2
REMARK    2  A    between atoms: O_2  and  C_3
REMARK    3  A    between atoms: N_8  and  C_9
REMARK    4  A    between atoms: C_9  and  C_10
REMARK    5  A    between atoms: C_10  and  C_11
REMARK    6  A    between atoms: C_11  and  N_12
REMARK    7  A    between atoms: C_17  and  O_18
REMARK    8  A    between atoms: O_18  and  C_19
REMARK                            x       y       z     vdW  Elec       q    Type
REMARK                         _______ _______ _______ _____ _____    ______ ____
ROOT
ATOM      1  C   UNL     1       5.419  16.848  20.661  0.00  0.00    +0.000 A 
ATOM      2  C   UNL     1       6.255  16.854  21.768  0.00  0.00    +0.000 A 
ATOM      3  C   UNL     1       6.688  15.623  22.251  0.00  0.00    +0.000 A 
ATOM      4  C   UNL     1       8.006  15.048  21.819  0.00  0.00    +0.000 A 
ATOM      5  C   UNL     1       8.321  13.774  22.142  0.00  0.00    +0.000 A 
ATOM      6  N   UNL     1       7.456  13.013  22.923  0.00  0.00    +0.000 N 
ATOM      7  C   UNL     1       6.089  13.361  22.929  0.00  0.00    +0.000 A 
ATOM      8  O   UNL     1       5.190  12.751  23.494  0.00  0.00    +0.000 OA
ATOM      9  C   UNL     1       5.765  14.582  22.152  0.00  0.00    +0.000 A 
ATOM     10  C   UNL     1       5.039  14.504  20.965  0.00  0.00    +0.000 A 
ATOM     11  C   UNL     1       5.103  15.605  20.114  0.00  0.00    +0.000 A 
ATOM     12  C   UNL     1       9.373  13.264  21.252  0.00  0.00    +0.000 A 
ATOM     13  C   UNL     1      10.058  12.062  21.189  0.00  0.00    +0.000 A 
ATOM     14  C   UNL     1      10.930  11.828  20.119  0.00  0.00    +0.000 A 
ATOM     15  C   UNL     1      11.063  12.748  19.060  0.00  0.00    +0.000 A 
ATOM     16  C   UNL     1      11.904  12.452  17.975  0.00  0.00    +0.000 A 
ATOM     17  C   UNL     1      11.966  13.292  16.866  0.00  0.00    +0.000 A 
ATOM     18  C   UNL     1      11.184  14.439  16.832  0.00  0.00    +0.000 A 
ATOM     19  C   UNL     1      10.387  14.771  17.935  0.00  0.00    +0.000 A 
ATOM     20  C   UNL     1      10.331  13.949  19.081  0.00  0.00    +0.000 A 
ATOM     21  C   UNL     1       9.567  14.196  20.236  0.00  0.00    +0.000 A 
ATOM     22  C   UNL     1       8.797  15.389  20.605  0.00  0.00    +0.000 C 
ATOM     23  O   UNL     1       8.787  16.443  20.013  0.00  0.00    +0.000 OA
ENDROOT
BRANCH   1  25
ATOM     24  C   UNL     1       3.845  18.580  20.739  0.00  0.00    +0.000 C 
ATOM     25  O   UNL     1       5.033  18.050  20.137  0.00  0.00    +0.000 OA
ENDBRANCH   1  25
BRANCH  11  26
ATOM     26  O   UNL     1       4.984  15.402  18.763  0.00  0.00    +0.000 OA
ATOM     27  C   UNL     1       6.206  14.886  18.176  0.00  0.00    +0.000 C 
ENDBRANCH  11  26
BRANCH   6  28
ATOM     28  C   UNL     1       7.858  11.800  23.624  0.00  0.00    +0.000 C 
BRANCH  28  29
ATOM     29  C   UNL     1       8.676  12.057  24.897  0.00  0.00    +0.000 C 
BRANCH  29  30
ATOM     30  C   UNL     1       8.005  13.053  25.839  0.00  0.00    +0.000 C 
BRANCH  30  31
ATOM     31  N   UNL     1       8.841  13.246  27.021  0.00  0.00    +0.000 NA
ATOM     32  H   UNL     1       8.395  13.903  27.660  0.00  0.00    +0.000 HD
ATOM     33  H   UNL     1       9.724  13.674  26.744  0.00  0.00    +0.000 HD
ENDBRANCH  30  31
ENDBRANCH  29  30
ENDBRANCH  28  29
ENDBRANCH   6  28
TORSDOF 6
ENDMDL
MODEL 9
REMARK VINA RESULT:      -6.2      8.739     11.097
REMARK  Name = 
REMARK  8 active torsions:
REMARK  status: ('A' for Active; 'I' for Inactive)
REMARK    1  A    between atoms: C_1  and  O_2
REMARK    2  A    between atoms: O_2  and  C_3
REMARK    3  A    between atoms: N_8  and  C_9
REMARK    4  A    between atoms: C_9  and  C_10
REMARK    5  A    between atoms: C_10  and  C_11
REMARK    6  A    between atoms: C_11  and  N_12
REMARK    7  A    between atoms: C_17  and  O_18
REMARK    8  A    between atoms: O_18  and  C_19
REMARK                            x       y       z     vdW  Elec       q    Type
REMARK                         _______ _______ _______ _____ _____    ______ ____
ROOT
ATOM      1  C   UNL     1       0.336  14.701  22.096  0.00  0.00    +0.000 A 
ATOM      2  C   UNL     1      -0.438  13.878  22.901  0.00  0.00    +0.000 A 
ATOM      3  C   UNL     1      -1.820  14.020  22.822  0.00  0.00    +0.000 A 
ATOM      4  C   UNL     1      -2.632  13.142  21.915  0.00  0.00    +0.000 A 
ATOM      5  C   UNL     1      -3.939  13.419  21.705  0.00  0.00    +0.000 A 
ATOM      6  N   UNL     1      -4.547  14.478  22.372  0.00  0.00    +0.000 N 
ATOM      7  C   UNL     1      -3.730  15.533  22.828  0.00  0.00    +0.000 A 
ATOM      8  O   UNL     1      -4.113  16.568  23.358  0.00  0.00    +0.000 OA
ATOM      9  C   UNL     1      -2.278  15.320  22.609  0.00  0.00    +0.000 A 
ATOM     10  C   UNL     1      -1.575  16.084  21.681  0.00  0.00    +0.000 A 
ATOM     11  C   UNL     1      -0.343  15.586  21.259  0.00  0.00    +0.000 A 
ATOM     12  C   UNL     1      -4.406  12.781  20.467  0.00  0.00    +0.000 A 
ATOM     13  C   UNL     1      -5.639  12.724  19.840  0.00  0.00    +0.000 A 
ATOM     14  C   UNL     1      -5.735  12.132  18.575  0.00  0.00    +0.000 A 
ATOM     15  C   UNL     1      -4.596  11.671  17.886  0.00  0.00    +0.000 A 
ATOM     16  C   UNL     1      -4.725  11.136  16.594  0.00  0.00    +0.000 A 
ATOM     17  C   UNL     1      -3.603  10.777  15.851  0.00  0.00    +0.000 A 
ATOM     18  C   UNL     1      -2.337  10.952  16.396  0.00  0.00    +0.000 A 
ATOM     19  C   UNL     1      -2.203  11.430  17.705  0.00  0.00    +0.000 A 
ATOM     20  C   UNL     1      -3.327  11.773  18.487  0.00  0.00    +0.000 A 
ATOM     21  C   UNL     1      -3.297  12.257  19.807  0.00  0.00    +0.000 A 
ATOM     22  C   UNL     1      -2.164  12.371  20.731  0.00  0.00    +0.000 C 
ATOM     23  O   UNL     1      -1.049  11.943  20.548  0.00  0.00    +0.000 OA
ENDROOT
BRANCH   1  25
ATOM     24  C   UNL     1       2.412  15.747  22.375  0.00  0.00    +0.000 C 
ATOM     25  O   UNL     1       1.692  14.535  22.116  0.00  0.00    +0.000 OA
ENDBRANCH   1  25
BRANCH  11  26
ATOM     26  O   UNL     1       0.088  15.880  19.991  0.00  0.00    +0.000 OA
ATOM     27  C   UNL     1      -0.345  14.892  19.022  0.00  0.00    +0.000 C 
ENDBRANCH  11  26
BRANCH   6  28
ATOM     28  C   UNL     1      -5.992  14.624  22.505  0.00  0.00    +0.000 C 
BRANCH  28  29
ATOM     29  C   UNL     1      -6.546  14.141  23.853  0.00  0.00    +0.000 C 
BRANCH  29  30
ATOM     30  C   UNL     1      -6.622  12.619  23.947  0.00  0.00    +0.000 C 
BRANCH  30  31
ATOM     31  N   UNL     1      -5.521  12.126  24.772  0.00  0.00    +0.000 NA
ATOM     32  H   UNL     1      -5.316  11.156  24.537  0.00  0.00    +0.000 HD
ATOM     33  H   UNL     1      -5.806  12.128  25.751  0.00  0.00    +0.000 HD
ENDBRANCH  30  31
ENDBRANCH  29  30
ENDBRANCH  28  29
ENDBRANCH   6  28
TORSDOF 6
ENDMDL
