MODEL 1
REMARK VINA RESULT:      -9.2      0.000      0.000
REMARK  Name = 
REMARK  4 active torsions:
REMARK  status: ('A' for Active; 'I' for Inactive)
REMARK    1  A    between atoms: C_1  and  C_2
REMARK    2  A    between atoms: C_2  and  C_3
REMARK    3  A    between atoms: C_8  and  C_9
REMARK    4  A    between atoms: C_16  and  C_17
REMARK                            x       y       z     vdW  Elec       q    Type
REMARK                         _______ _______ _______ _____ _____    ______ ____
ROOT
ATOM      1  C   UNL     1       3.154   1.687  18.653  0.00  0.00    +0.000 C 
ATOM      2  C   UNL     1       2.764   3.173  18.512  0.00  0.00    +0.000 C 
ATOM      3  C   UNL     1       1.232   3.191  18.279  0.00  0.00    +0.000 C 
ATOM      4  O   UNL     1       2.893   3.757  19.879  0.00  0.00    +0.000 OA
ATOM      5  C   UNL     1       2.680   5.119  19.819  0.00  0.00    +0.000 A 
ATOM      6  C   UNL     1       1.717   5.733  20.609  0.00  0.00    +0.000 A 
ATOM      7  C   UNL     1       1.376   7.065  20.352  0.00  0.00    +0.000 A 
ATOM      8  C   UNL     1       2.025   7.793  19.340  0.00  0.00    +0.000 A 
ATOM      9  C   UNL     1       3.033   7.180  18.594  0.00  0.00    +0.000 A 
ATOM     10  C   UNL     1       3.355   5.843  18.845  0.00  0.00    +0.000 A 
ATOM     11  C   UNL     1       4.259   5.093  17.990  0.00  0.00    +0.000 C 
ATOM     12  C   UNL     1       3.781   3.915  17.543  0.00  0.00    +0.000 C 
ATOM     13  O   UNL     1       4.474   3.189  16.557  0.00  0.00    +0.000 OA
ATOM     14  C   UNL     1       5.838   3.596  16.155  0.00  0.00    +0.000 C 
ATOM     15  C   UNL     1       6.429   4.628  17.068  0.00  0.00    +0.000 A 
ATOM     16  C   UNL     1       7.731   5.048  17.265  0.00  0.00    +0.000 A 
ATOM     17  C   UNL     1       7.686   6.121  18.179  0.00  0.00    +0.000 A 
ATOM     18  C   UNL     1       6.363   6.325  18.499  0.00  0.00    +0.000 A 
ATOM     19  N   UNL     1       5.596   5.400  17.827  0.00  0.00    +0.000 N 
ENDROOT
BRANCH  14  20
ATOM     20  C   UNL     1       6.098   4.066  14.703  0.00  0.00    +0.000 A 
ATOM     21  C   UNL     1       7.154   4.926  14.360  0.00  0.00    +0.000 A 
ATOM     22  C   UNL     1       7.574   5.054  13.022  0.00  0.00    +0.000 A 
ATOM     23  C   UNL     1       6.949   4.332  12.005  0.00  0.00    +0.000 A 
ATOM     24  C   UNL     1       5.888   3.490  12.318  0.00  0.00    +0.000 A 
ATOM     25  C   UNL     1       5.467   3.363  13.647  0.00  0.00    +0.000 A 
ENDBRANCH  14  20
BRANCH   8  26
ATOM     26  C   UNL     1       1.631   9.137  19.040  0.00  0.00    +0.000 C 
ATOM     27  N   UNL     1       1.295  10.224  18.791  0.00  0.00    +0.000 NA
ENDBRANCH   8  26
TORSDOF 2
ENDMDL
MODEL 2
REMARK VINA RESULT:      -8.6      4.017      6.646
REMARK  Name = 
REMARK  4 active torsions:
REMARK  status: ('A' for Active; 'I' for Inactive)
REMARK    1  A    between atoms: C_1  and  C_2
REMARK    2  A    between atoms: C_2  and  C_3
REMARK    3  A    between atoms: C_8  and  C_9
REMARK    4  A    between atoms: C_16  and  C_17
REMARK                            x       y       z     vdW  Elec       q    Type
REMARK                         _______ _______ _______ _____ _____    ______ ____
ROOT
ATOM      1  C   UNL     1       1.676   9.327  23.233  0.00  0.00    +0.000 C 
ATOM      2  C   UNL     1       0.707   9.548  22.054  0.00  0.00    +0.000 C 
ATOM      3  C   UNL     1      -0.662   9.904  22.689  0.00  0.00    +0.000 C 
ATOM      4  O   UNL     1       1.119  10.837  21.427  0.00  0.00    +0.000 OA
ATOM      5  C   UNL     1       0.378  11.050  20.282  0.00  0.00    +0.000 A 
ATOM      6  C   UNL     1      -0.353  12.218  20.104  0.00  0.00    +0.000 A 
ATOM      7  C   UNL     1      -1.266  12.293  19.048  0.00  0.00    +0.000 A 
ATOM      8  C   UNL     1      -1.417  11.224  18.148  0.00  0.00    +0.000 A 
ATOM      9  C   UNL     1      -0.632  10.081  18.304  0.00  0.00    +0.000 A 
ATOM     10  C   UNL     1       0.265  10.006  19.374  0.00  0.00    +0.000 A 
ATOM     11  C   UNL     1       0.975   8.782  19.701  0.00  0.00    +0.000 C 
ATOM     12  C   UNL     1       0.872   8.384  20.985  0.00  0.00    +0.000 C 
ATOM     13  O   UNL     1       1.346   7.122  21.384  0.00  0.00    +0.000 OA
ATOM     14  C   UNL     1       2.156   6.304  20.455  0.00  0.00    +0.000 C 
ATOM     15  C   UNL     1       2.596   7.067  19.241  0.00  0.00    +0.000 A 
ATOM     16  C   UNL     1       3.585   6.825  18.307  0.00  0.00    +0.000 A 
ATOM     17  C   UNL     1       3.481   7.830  17.323  0.00  0.00    +0.000 A 
ATOM     18  C   UNL     1       2.430   8.642  17.684  0.00  0.00    +0.000 A 
ATOM     19  N   UNL     1       1.897   8.180  18.867  0.00  0.00    +0.000 N 
ENDROOT
BRANCH  14  20
ATOM     20  C   UNL     1       1.613   4.940  19.965  0.00  0.00    +0.000 A 
ATOM     21  C   UNL     1       1.551   4.589  18.607  0.00  0.00    +0.000 A 
ATOM     22  C   UNL     1       1.389   3.246  18.216  0.00  0.00    +0.000 A 
ATOM     23  C   UNL     1       1.282   2.232  19.169  0.00  0.00    +0.000 A 
ATOM     24  C   UNL     1       1.320   2.558  20.520  0.00  0.00    +0.000 A 
ATOM     25  C   UNL     1       1.478   3.893  20.911  0.00  0.00    +0.000 A 
ENDBRANCH  14  20
BRANCH   8  26
ATOM     26  C   UNL     1      -2.396  11.282  17.103  0.00  0.00    +0.000 C 
ATOM     27  N   UNL     1      -3.203  11.318  16.264  0.00  0.00    +0.000 NA
ENDBRANCH   8  26
TORSDOF 2
ENDMDL
MODEL 3
REMARK VINA RESULT:      -7.9      5.659      9.804
REMARK  Name = 
REMARK  4 active torsions:
REMARK  status: ('A' for Active; 'I' for Inactive)
REMARK    1  A    between atoms: C_1  and  C_2
REMARK    2  A    between atoms: C_2  and  C_3
REMARK    3  A    between atoms: C_8  and  C_9
REMARK    4  A    between atoms: C_16  and  C_17
REMARK                            x       y       z     vdW  Elec       q    Type
REMARK                         _______ _______ _______ _____ _____    ______ ____
ROOT
ATOM      1  C   UNL     1       1.499  14.736  19.169  0.00  0.00    +0.000 C 
ATOM      2  C   UNL     1       0.563  14.177  20.260  0.00  0.00    +0.000 C 
ATOM      3  C   UNL     1       1.126  14.694  21.609  0.00  0.00    +0.000 C 
ATOM      4  O   UNL     1      -0.713  14.938  20.127  0.00  0.00    +0.000 OA
ATOM      5  C   UNL     1      -1.653  14.413  20.991  0.00  0.00    +0.000 A 
ATOM      6  C   UNL     1      -2.303  15.213  21.922  0.00  0.00    +0.000 A 
ATOM      7  C   UNL     1      -3.068  14.607  22.923  0.00  0.00    +0.000 A 
ATOM      8  C   UNL     1      -3.219  13.210  22.969  0.00  0.00    +0.000 A 
ATOM      9  C   UNL     1      -2.609  12.423  21.990  0.00  0.00    +0.000 A 
ATOM     10  C   UNL     1      -1.831  13.035  21.004  0.00  0.00    +0.000 A 
ATOM     11  C   UNL     1      -1.023  12.269  20.072  0.00  0.00    +0.000 C 
ATOM     12  C   UNL     1       0.271  12.638  19.994  0.00  0.00    +0.000 C 
ATOM     13  O   UNL     1       1.197  11.857  19.280  0.00  0.00    +0.000 OA
ATOM     14  C   UNL     1       0.729  10.742  18.427  0.00  0.00    +0.000 C 
ATOM     15  C   UNL     1      -0.758  10.746  18.230  0.00  0.00    +0.000 A 
ATOM     16  C   UNL     1      -1.567  10.123  17.299  0.00  0.00    +0.000 A 
ATOM     17  C   UNL     1      -2.902  10.403  17.657  0.00  0.00    +0.000 A 
ATOM     18  C   UNL     1      -2.862  11.176  18.795  0.00  0.00    +0.000 A 
ATOM     19  N   UNL     1      -1.547  11.396  19.137  0.00  0.00    +0.000 N 
ENDROOT
BRANCH  14  20
ATOM     20  C   UNL     1       1.141   9.291  18.772  0.00  0.00    +0.000 A 
ATOM     21  C   UNL     1       1.891   8.485  17.901  0.00  0.00    +0.000 A 
ATOM     22  C   UNL     1       2.538   7.326  18.369  0.00  0.00    +0.000 A 
ATOM     23  C   UNL     1       2.447   6.948  19.709  0.00  0.00    +0.000 A 
ATOM     24  C   UNL     1       1.694   7.718  20.586  0.00  0.00    +0.000 A 
ATOM     25  C   UNL     1       1.047   8.871  20.122  0.00  0.00    +0.000 A 
ENDBRANCH  14  20
BRANCH   8  26
ATOM     26  C   UNL     1      -3.954  12.589  24.030  0.00  0.00    +0.000 C 
ATOM     27  N   UNL     1      -4.545  12.068  24.888  0.00  0.00    +0.000 NA
ENDBRANCH   8  26
TORSDOF 2
ENDMDL
MODEL 4
REMARK VINA RESULT:      -7.5      6.335     10.565
REMARK  Name = 
REMARK  4 active torsions:
REMARK  status: ('A' for Active; 'I' for Inactive)
REMARK    1  A    between atoms: C_1  and  C_2
REMARK    2  A    between atoms: C_2  and  C_3
REMARK    3  A    between atoms: C_8  and  C_9
REMARK    4  A    between atoms: C_16  and  C_17
REMARK                            x       y       z     vdW  Elec       q    Type
REMARK                         _______ _______ _______ _____ _____    ______ ____
ROOT
ATOM      1  C   UNL     1       0.518  15.435  19.420  0.00  0.00    +0.000 C 
ATOM      2  C   UNL     1      -0.442  14.771  20.428  0.00  0.00    +0.000 C 
ATOM      3  C   UNL     1      -0.015  15.286  21.826  0.00  0.00    +0.000 C 
ATOM      4  O   UNL     1      -1.763  15.435  20.226  0.00  0.00    +0.000 OA
ATOM      5  C   UNL     1      -2.715  14.812  21.007  0.00  0.00    +0.000 A 
ATOM      6  C   UNL     1      -3.488  15.531  21.910  0.00  0.00    +0.000 A 
ATOM      7  C   UNL     1      -4.270  14.835  22.839  0.00  0.00    +0.000 A 
ATOM      8  C   UNL     1      -4.313  13.430  22.837  0.00  0.00    +0.000 A 
ATOM      9  C   UNL     1      -3.577  12.724  21.883  0.00  0.00    +0.000 A 
ATOM     10  C   UNL     1      -2.784  13.426  20.970  0.00  0.00    +0.000 A 
ATOM     11  C   UNL     1      -1.857  12.754  20.077  0.00  0.00    +0.000 C 
ATOM     12  C   UNL     1      -0.594  13.224  20.101  0.00  0.00    +0.000 C 
ATOM     13  O   UNL     1       0.438  12.539  19.433  0.00  0.00    +0.000 OA
ATOM     14  C   UNL     1       0.118  11.419  18.520  0.00  0.00    +0.000 C 
ATOM     15  C   UNL     1      -1.347  11.316  18.220  0.00  0.00    +0.000 A 
ATOM     16  C   UNL     1      -2.039  10.662  17.218  0.00  0.00    +0.000 A 
ATOM     17  C   UNL     1      -3.414  10.827  17.488  0.00  0.00    +0.000 A 
ATOM     18  C   UNL     1      -3.513  11.564  18.646  0.00  0.00    +0.000 A 
ATOM     19  N   UNL     1      -2.245  11.873  19.086  0.00  0.00    +0.000 N 
ENDROOT
BRANCH  14  20
ATOM     20  C   UNL     1       0.619   9.994  18.855  0.00  0.00    +0.000 A 
ATOM     21  C   UNL     1       1.440   9.253  17.990  0.00  0.00    +0.000 A 
ATOM     22  C   UNL     1       2.153   8.133  18.457  0.00  0.00    +0.000 A 
ATOM     23  C   UNL     1       2.058   7.729  19.789  0.00  0.00    +0.000 A 
ATOM     24  C   UNL     1       1.235   8.434  20.659  0.00  0.00    +0.000 A 
ATOM     25  C   UNL     1       0.523   9.548  20.197  0.00  0.00    +0.000 A 
ENDBRANCH  14  20
BRANCH   8  26
ATOM     26  C   UNL     1      -5.067  12.721  23.826  0.00  0.00    +0.000 C 
ATOM     27  N   UNL     1      -5.680  12.160  24.643  0.00  0.00    +0.000 NA
ENDBRANCH   8  26
TORSDOF 2
ENDMDL
MODEL 5
REMARK VINA RESULT:      -7.5      7.014     10.076
REMARK  Name = 
REMARK  4 active torsions:
REMARK  status: ('A' for Active; 'I' for Inactive)
REMARK    1  A    between atoms: C_1  and  C_2
REMARK    2  A    between atoms: C_2  and  C_3
REMARK    3  A    between atoms: C_8  and  C_9
REMARK    4  A    between atoms: C_16  and  C_17
REMARK                            x       y       z     vdW  Elec       q    Type
REMARK                         _______ _______ _______ _____ _____    ______ ____
ROOT
ATOM      1  C   UNL     1      -1.155  12.405  22.967  0.00  0.00    +0.000 C 
ATOM      2  C   UNL     1      -0.643  13.358  21.869  0.00  0.00    +0.000 C 
ATOM      3  C   UNL     1      -1.239  14.750  22.200  0.00  0.00    +0.000 C 
ATOM      4  O   UNL     1       0.810  13.552  22.147  0.00  0.00    +0.000 OA
ATOM      5  C   UNL     1       1.377  14.299  21.133  0.00  0.00    +0.000 A 
ATOM      6  C   UNL     1       2.073  15.469  21.404  0.00  0.00    +0.000 A 
ATOM      7  C   UNL     1       2.428  16.309  20.343  0.00  0.00    +0.000 A 
ATOM      8  C   UNL     1       2.126  15.961  19.015  0.00  0.00    +0.000 A 
ATOM      9  C   UNL     1       1.479  14.751  18.755  0.00  0.00    +0.000 A 
ATOM     10  C   UNL     1       1.111  13.926  19.822  0.00  0.00    +0.000 A 
ATOM     11  C   UNL     1       0.278  12.751  19.637  0.00  0.00    +0.000 C 
ATOM     12  C   UNL     1      -0.803  12.682  20.440  0.00  0.00    +0.000 C 
ATOM     13  O   UNL     1      -1.789  11.701  20.229  0.00  0.00    +0.000 OA
ATOM     14  C   UNL     1      -1.553  10.602  19.268  0.00  0.00    +0.000 C 
ATOM     15  C   UNL     1      -0.128  10.533  18.804  0.00  0.00    +0.000 A 
ATOM     16  C   UNL     1       0.594   9.528  18.188  0.00  0.00    +0.000 A 
ATOM     17  C   UNL     1       1.867  10.056  17.890  0.00  0.00    +0.000 A 
ATOM     18  C   UNL     1       1.876  11.363  18.324  0.00  0.00    +0.000 A 
ATOM     19  N   UNL     1       0.656  11.649  18.895  0.00  0.00    +0.000 N 
ENDROOT
BRANCH  14  20
ATOM     20  C   UNL     1      -2.449  10.479  18.012  0.00  0.00    +0.000 A 
ATOM     21  C   UNL     1      -3.622  11.231  17.838  0.00  0.00    +0.000 A 
ATOM     22  C   UNL     1      -4.214  11.359  16.567  0.00  0.00    +0.000 A 
ATOM     23  C   UNL     1      -3.651  10.740  15.451  0.00  0.00    +0.000 A 
ATOM     24  C   UNL     1      -2.502   9.974  15.601  0.00  0.00    +0.000 A 
ATOM     25  C   UNL     1      -1.912   9.843  16.865  0.00  0.00    +0.000 A 
ENDBRANCH  14  20
BRANCH   8  26
ATOM     26  C   UNL     1       2.437  16.851  17.938  0.00  0.00    +0.000 C 
ATOM     27  N   UNL     1       2.674  17.585  17.064  0.00  0.00    +0.000 NA
ENDBRANCH   8  26
TORSDOF 2
ENDMDL
MODEL 6
REMARK VINA RESULT:      -7.5      4.223      9.246
REMARK  Name = 
REMARK  4 active torsions:
REMARK  status: ('A' for Active; 'I' for Inactive)
REMARK    1  A    between atoms: C_1  and  C_2
REMARK    2  A    between atoms: C_2  and  C_3
REMARK    3  A    between atoms: C_8  and  C_9
REMARK    4  A    between atoms: C_16  and  C_17
REMARK                            x       y       z     vdW  Elec       q    Type
REMARK                         _______ _______ _______ _____ _____    ______ ____
ROOT
ATOM      1  C   UNL     1      -0.416  10.001  23.183  0.00  0.00    +0.000 C 
ATOM      2  C   UNL     1       0.585   9.588  22.086  0.00  0.00    +0.000 C 
ATOM      3  C   UNL     1       1.922   9.301  22.816  0.00  0.00    +0.000 C 
ATOM      4  O   UNL     1       0.160   8.230  21.640  0.00  0.00    +0.000 OA
ATOM      5  C   UNL     1       0.933   7.835  20.567  0.00  0.00    +0.000 A 
ATOM      6  C   UNL     1       1.639   6.638  20.590  0.00  0.00    +0.000 A 
ATOM      7  C   UNL     1       2.584   6.389  19.590  0.00  0.00    +0.000 A 
ATOM      8  C   UNL     1       2.793   7.310  18.549  0.00  0.00    +0.000 A 
ATOM      9  C   UNL     1       2.033   8.480  18.506  0.00  0.00    +0.000 A 
ATOM     10  C   UNL     1       1.103   8.731  19.520  0.00  0.00    +0.000 A 
ATOM     11  C   UNL     1       0.415  10.004  19.638  0.00  0.00    +0.000 C 
ATOM     12  C   UNL     1       0.487  10.585  20.853  0.00  0.00    +0.000 C 
ATOM     13  O   UNL     1       0.032  11.902  21.044  0.00  0.00    +0.000 OA
ATOM     14  C   UNL     1      -0.725  12.591  19.976  0.00  0.00    +0.000 C 
ATOM     15  C   UNL     1      -1.144  11.666  18.872  0.00  0.00    +0.000 A 
ATOM     16  C   UNL     1      -2.095  11.789  17.877  0.00  0.00    +0.000 A 
ATOM     17  C   UNL     1      -1.985  10.647  17.056  0.00  0.00    +0.000 A 
ATOM     18  C   UNL     1      -0.967   9.875  17.570  0.00  0.00    +0.000 A 
ATOM     19  N   UNL     1      -0.462  10.496  18.691  0.00  0.00    +0.000 N 
ENDROOT
BRANCH  14  20
ATOM     20  C   UNL     1      -0.130  13.856  19.311  0.00  0.00    +0.000 A 
ATOM     21  C   UNL     1      -0.739  15.118  19.397  0.00  0.00    +0.000 A 
ATOM     22  C   UNL     1      -0.017  16.289  19.095  0.00  0.00    +0.000 A 
ATOM     23  C   UNL     1       1.320  16.222  18.699  0.00  0.00    +0.000 A 
ATOM     24  C   UNL     1       1.938  14.982  18.587  0.00  0.00    +0.000 A 
ATOM     25  C   UNL     1       1.221  13.817  18.885  0.00  0.00    +0.000 A 
ENDBRANCH  14  20
BRANCH   8  26
ATOM     26  C   UNL     1       3.804   7.078  17.561  0.00  0.00    +0.000 C 
ATOM     27  N   UNL     1       4.628   6.872  16.764  0.00  0.00    +0.000 NA
ENDBRANCH   8  26
TORSDOF 2
ENDMDL
MODEL 7
REMARK VINA RESULT:      -7.4      6.895     11.198
REMARK  Name = 
REMARK  4 active torsions:
REMARK  status: ('A' for Active; 'I' for Inactive)
REMARK    1  A    between atoms: C_1  and  C_2
REMARK    2  A    between atoms: C_2  and  C_3
REMARK    3  A    between atoms: C_8  and  C_9
REMARK    4  A    between atoms: C_16  and  C_17
REMARK                            x       y       z     vdW  Elec       q    Type
REMARK                         _______ _______ _______ _____ _____    ______ ____
ROOT
ATOM      1  C   UNL     1      -0.431  15.609  20.185  0.00  0.00    +0.000 C 
ATOM      2  C   UNL     1      -1.553  14.864  20.936  0.00  0.00    +0.000 C 
ATOM      3  C   UNL     1      -1.475  15.347  22.406  0.00  0.00    +0.000 C 
ATOM      4  O   UNL     1      -2.831  15.470  20.461  0.00  0.00    +0.000 OA
ATOM      5  C   UNL     1      -3.897  14.773  20.995  0.00  0.00    +0.000 A 
ATOM      6  C   UNL     1      -4.888  15.420  21.721  0.00  0.00    +0.000 A 
ATOM      7  C   UNL     1      -5.816  14.654  22.434  0.00  0.00    +0.000 A 
ATOM      8  C   UNL     1      -5.780  13.250  22.387  0.00  0.00    +0.000 A 
ATOM      9  C   UNL     1      -4.814  12.615  21.604  0.00  0.00    +0.000 A 
ATOM     10  C   UNL     1      -3.879  13.388  20.909  0.00  0.00    +0.000 A 
ATOM     11  C   UNL     1      -2.742  12.794  20.228  0.00  0.00    +0.000 C 
ATOM     12  C   UNL     1      -1.543  13.324  20.545  0.00  0.00    +0.000 C 
ATOM     13  O   UNL     1      -0.353  12.714  20.106  0.00  0.00    +0.000 OA
ATOM     14  C   UNL     1      -0.400  11.615  19.117  0.00  0.00    +0.000 C 
ATOM     15  C   UNL     1      -1.755  11.452  18.495  0.00  0.00    +0.000 A 
ATOM     16  C   UNL     1      -2.171  10.803  17.348  0.00  0.00    +0.000 A 
ATOM     17  C   UNL     1      -3.578  10.892  17.309  0.00  0.00    +0.000 A 
ATOM     18  C   UNL     1      -3.972  11.580  18.435  0.00  0.00    +0.000 A 
ATOM     19  N   UNL     1      -2.851  11.934  19.153  0.00  0.00    +0.000 N 
ENDROOT
BRANCH  14  20
ATOM     20  C   UNL     1       0.091  10.204  19.519  0.00  0.00    +0.000 A 
ATOM     21  C   UNL     1       1.096   9.520  18.816  0.00  0.00    +0.000 A 
ATOM     22  C   UNL     1       1.757   8.419  19.394  0.00  0.00    +0.000 A 
ATOM     23  C   UNL     1       1.428   7.979  20.676  0.00  0.00    +0.000 A 
ATOM     24  C   UNL     1       0.423   8.628  21.383  0.00  0.00    +0.000 A 
ATOM     25  C   UNL     1      -0.238   9.722  20.810  0.00  0.00    +0.000 A 
ENDBRANCH  14  20
BRANCH   8  26
ATOM     26  C   UNL     1      -6.694  12.469  23.165  0.00  0.00    +0.000 C 
ATOM     27  N   UNL     1      -7.451  11.848  23.797  0.00  0.00    +0.000 NA
ENDBRANCH   8  26
TORSDOF 2
ENDMDL
MODEL 8
REMARK VINA RESULT:      -7.4      0.657      1.168
REMARK  Name = 
REMARK  4 active torsions:
REMARK  status: ('A' for Active; 'I' for Inactive)
REMARK    1  A    between atoms: C_1  and  C_2
REMARK    2  A    between atoms: C_2  and  C_3
REMARK    3  A    between atoms: C_8  and  C_9
REMARK    4  A    between atoms: C_16  and  C_17
REMARK                            x       y       z     vdW  Elec       q    Type
REMARK                         _______ _______ _______ _____ _____    ______ ____
ROOT
ATOM      1  C   UNL     1       2.745   2.237  18.679  0.00  0.00    +0.000 C 
ATOM      2  C   UNL     1       2.568   3.725  18.316  0.00  0.00    +0.000 C 
ATOM      3  C   UNL     1       1.084   3.888  17.901  0.00  0.00    +0.000 C 
ATOM      4  O   UNL     1       2.627   4.466  19.610  0.00  0.00    +0.000 OA
ATOM      5  C   UNL     1       2.599   5.824  19.363  0.00  0.00    +0.000 A 
ATOM      6  C   UNL     1       1.646   6.644  19.953  0.00  0.00    +0.000 A 
ATOM      7  C   UNL     1       1.509   7.961  19.501  0.00  0.00    +0.000 A 
ATOM      8  C   UNL     1       2.349   8.469  18.495  0.00  0.00    +0.000 A 
ATOM      9  C   UNL     1       3.342   7.650  17.954  0.00  0.00    +0.000 A 
ATOM     10  C   UNL     1       3.461   6.330  18.398  0.00  0.00    +0.000 A 
ATOM     11  C   UNL     1       4.344   5.375  17.753  0.00  0.00    +0.000 C 
ATOM     12  C   UNL     1       3.768   4.210  17.395  0.00  0.00    +0.000 C 
ATOM     13  O   UNL     1       4.461   3.285  16.593  0.00  0.00    +0.000 OA
ATOM     14  C   UNL     1       5.901   3.476  16.312  0.00  0.00    +0.000 C 
ATOM     15  C   UNL     1       6.521   4.545  17.161  0.00  0.00    +0.000 A 
ATOM     16  C   UNL     1       7.839   4.835  17.463  0.00  0.00    +0.000 A 
ATOM     17  C   UNL     1       7.837   6.018  18.230  0.00  0.00    +0.000 A 
ATOM     18  C   UNL     1       6.525   6.413  18.362  0.00  0.00    +0.000 A 
ATOM     19  N   UNL     1       5.720   5.502  17.717  0.00  0.00    +0.000 N 
ENDROOT
BRANCH  14  20
ATOM     20  C   UNL     1       6.370   3.717  14.858  0.00  0.00    +0.000 A 
ATOM     21  C   UNL     1       5.700   3.186  13.744  0.00  0.00    +0.000 A 
ATOM     22  C   UNL     1       5.931   3.696  12.452  0.00  0.00    +0.000 A 
ATOM     23  C   UNL     1       6.835   4.740  12.247  0.00  0.00    +0.000 A 
ATOM     24  C   UNL     1       7.526   5.267  13.332  0.00  0.00    +0.000 A 
ATOM     25  C   UNL     1       7.299   4.759  14.617  0.00  0.00    +0.000 A 
ENDBRANCH  14  20
BRANCH   8  26
ATOM     26  C   UNL     1       2.166   9.797  17.993  0.00  0.00    +0.000 C 
ATOM     27  N   UNL     1       2.017  10.885  17.602  0.00  0.00    +0.000 NA
ENDBRANCH   8  26
TORSDOF 2
ENDMDL
MODEL 9
REMARK VINA RESULT:      -7.3      7.975     13.069
REMARK  Name = 
REMARK  4 active torsions:
REMARK  status: ('A' for Active; 'I' for Inactive)
REMARK    1  A    between atoms: C_1  and  C_2
REMARK    2  A    between atoms: C_2  and  C_3
REMARK    3  A    between atoms: C_8  and  C_9
REMARK    4  A    between atoms: C_16  and  C_17
REMARK                            x       y       z     vdW  Elec       q    Type
REMARK                         _______ _______ _______ _____ _____    ______ ____
ROOT
ATOM      1  C   UNL     1      -4.702  11.822  16.786  0.00  0.00    +0.000 C 
ATOM      2  C   UNL     1      -3.775  11.304  17.905  0.00  0.00    +0.000 C 
ATOM      3  C   UNL     1      -3.740   9.763  17.749  0.00  0.00    +0.000 C 
ATOM      4  O   UNL     1      -2.394  11.703  17.504  0.00  0.00    +0.000 OA
ATOM      5  C   UNL     1      -1.512  11.385  18.516  0.00  0.00    +0.000 A 
ATOM      6  C   UNL     1      -0.399  10.589  18.277  0.00  0.00    +0.000 A 
ATOM      7  C   UNL     1       0.335  10.103  19.364  0.00  0.00    +0.000 A 
ATOM      8  C   UNL     1      -0.016  10.445  20.682  0.00  0.00    +0.000 A 
ATOM      9  C   UNL     1      -1.102  11.295  20.903  0.00  0.00    +0.000 A 
ATOM     10  C   UNL     1      -1.841  11.762  19.812  0.00  0.00    +0.000 A 
ATOM     11  C   UNL     1      -3.083  12.494  19.978  0.00  0.00    +0.000 C 
ATOM     12  C   UNL     1      -4.132  12.012  19.282  0.00  0.00    +0.000 C 
ATOM     13  O   UNL     1      -5.429  12.509  19.505  0.00  0.00    +0.000 OA
ATOM     14  C   UNL     1      -5.632  13.710  20.345  0.00  0.00    +0.000 C 
ATOM     15  C   UNL     1      -4.349  14.420  20.661  0.00  0.00    +0.000 A 
ATOM     16  C   UNL     1      -4.092  15.699  21.119  0.00  0.00    +0.000 A 
ATOM     17  C   UNL     1      -2.701  15.789  21.334  0.00  0.00    +0.000 A 
ATOM     18  C   UNL     1      -2.161  14.565  21.011  0.00  0.00    +0.000 A 
ATOM     19  N   UNL     1      -3.172  13.732  20.587  0.00  0.00    +0.000 N 
ENDROOT
BRANCH  14  20
ATOM     20  C   UNL     1      -6.427  13.592  21.667  0.00  0.00    +0.000 A 
ATOM     21  C   UNL     1      -6.030  12.755  22.722  0.00  0.00    +0.000 A 
ATOM     22  C   UNL     1      -6.558  12.927  24.016  0.00  0.00    +0.000 A 
ATOM     23  C   UNL     1      -7.492  13.929  24.280  0.00  0.00    +0.000 A 
ATOM     24  C   UNL     1      -7.916  14.756  23.247  0.00  0.00    +0.000 A 
ATOM     25  C   UNL     1      -7.394  14.586  21.958  0.00  0.00    +0.000 A 
ENDBRANCH  14  20
BRANCH   8  26
ATOM     26  C   UNL     1       0.701   9.897  21.794  0.00  0.00    +0.000 C 
ATOM     27  N   UNL     1       1.298   9.448  22.688  0.00  0.00    +0.000 NA
ENDBRANCH   8  26
TORSDOF 2
ENDMDL
