MODEL 1
REMARK VINA RESULT:      -7.4      0.000      0.000
REMARK  Name = 
REMARK  5 active torsions:
REMARK  status: ('A' for Active; 'I' for Inactive)
REMARK    1  A    between atoms: C_1  and  C_2
REMARK    2  A    between atoms: C_4  and  C_5
REMARK    3  A    between atoms: N_6  and  C_7
REMARK    4  A    between atoms: C_7  and  C_8
REMARK    5  A    between atoms: C_8  and  C_9
REMARK                            x       y       z     vdW  Elec       q    Type
REMARK                         _______ _______ _______ _____ _____    ______ ____
ROOT
ATOM      1  C   UNL     1       3.733   6.116  18.263  0.00  0.00    +0.000 C 
ATOM      2  O   UNL     1       4.396   5.855  19.261  0.00  0.00    +0.000 OA
ATOM      3  N   UNL     1       2.511   5.557  17.949  0.00  0.00    +0.000 N 
ATOM      4  C   UNL     1       1.917   4.568  18.736  0.00  0.00    +0.000 A 
ATOM      5  C   UNL     1       1.931   4.622  20.125  0.00  0.00    +0.000 A 
ATOM      6  C   UNL     1       1.383   3.563  20.840  0.00  0.00    +0.000 A 
ATOM      7  C   UNL     1       0.867   2.477  20.148  0.00  0.00    +0.000 A 
ATOM      8  C   UNL     1       0.869   2.524  18.764  0.00  0.00    +0.000 A 
ATOM      9  N   UNL     1       1.345   3.563  18.043  0.00  0.00    +0.000 NA
ATOM     10  H   UNL     1       2.254   5.486  16.973  0.00  0.00    +0.000 HD
ENDROOT
BRANCH   1  11
ATOM     11  C   UNL     1       4.204   7.119  17.237  0.00  0.00    +0.000 C 
BRANCH  11  12
ATOM     12  C   UNL     1       5.727   7.107  17.172  0.00  0.00    +0.000 C 
BRANCH  12  18
ATOM     13  C   UNL     1       6.366   4.016  13.516  0.00  0.00    +0.000 C 
ATOM     14  C   UNL     1       6.491   4.660  14.834  0.00  0.00    +0.000 A 
ATOM     15  N   UNL     1       7.286   4.160  15.828  0.00  0.00    +0.000 NA
ATOM     16  C   UNL     1       7.108   4.997  16.827  0.00  0.00    +0.000 A 
ATOM     17  C   UNL     1       7.717   4.931  18.173  0.00  0.00    +0.000 C 
ATOM     18  N   UNL     1       6.237   5.981  16.424  0.00  0.00    +0.000 N 
ATOM     19  N   UNL     1       5.831   5.783  15.156  0.00  0.00    +0.000 NA
ENDBRANCH  12  18
ENDBRANCH  11  12
ENDBRANCH   1  11
TORSDOF 3
ENDMDL
MODEL 2
REMARK VINA RESULT:      -7.1      1.148      1.309
REMARK  Name = 
REMARK  5 active torsions:
REMARK  status: ('A' for Active; 'I' for Inactive)
REMARK    1  A    between atoms: C_1  and  C_2
REMARK    2  A    between atoms: C_4  and  C_5
REMARK    3  A    between atoms: N_6  and  C_7
REMARK    4  A    between atoms: C_7  and  C_8
REMARK    5  A    between atoms: C_8  and  C_9
REMARK                            x       y       z     vdW  Elec       q    Type
REMARK                         _______ _______ _______ _____ _____    ______ ____
ROOT
ATOM      1  C   UNL     1       3.247   6.363  18.237  0.00  0.00    +0.000 C 
ATOM      2  O   UNL     1       2.543   7.013  19.004  0.00  0.00    +0.000 OA
ATOM      3  N   UNL     1       3.445   4.999  18.301  0.00  0.00    +0.000 N 
ATOM      4  C   UNL     1       2.888   4.208  19.309  0.00  0.00    +0.000 A 
ATOM      5  C   UNL     1       1.586   4.394  19.759  0.00  0.00    +0.000 A 
ATOM      6  C   UNL     1       1.128   3.617  20.817  0.00  0.00    +0.000 A 
ATOM      7  C   UNL     1       1.991   2.703  21.406  0.00  0.00    +0.000 A 
ATOM      8  C   UNL     1       3.261   2.566  20.871  0.00  0.00    +0.000 A 
ATOM      9  N   UNL     1       3.714   3.268  19.810  0.00  0.00    +0.000 NA
ATOM     10  H   UNL     1       4.317   4.625  17.948  0.00  0.00    +0.000 HD
ENDROOT
BRANCH   1  11
ATOM     11  C   UNL     1       3.993   7.015  17.099  0.00  0.00    +0.000 C 
BRANCH  11  12
ATOM     12  C   UNL     1       5.490   6.990  17.388  0.00  0.00    +0.000 C 
BRANCH  12  18
ATOM     13  C   UNL     1       6.699   4.259  13.592  0.00  0.00    +0.000 C 
ATOM     14  C   UNL     1       6.686   4.834  14.948  0.00  0.00    +0.000 A 
ATOM     15  N   UNL     1       7.518   4.399  15.942  0.00  0.00    +0.000 NA
ATOM     16  C   UNL     1       7.185   5.138  16.979  0.00  0.00    +0.000 A 
ATOM     17  C   UNL     1       7.757   5.081  18.341  0.00  0.00    +0.000 C 
ATOM     18  N   UNL     1       6.187   6.002  16.598  0.00  0.00    +0.000 N 
ATOM     19  N   UNL     1       5.854   5.823  15.306  0.00  0.00    +0.000 NA
ENDBRANCH  12  18
ENDBRANCH  11  12
ENDBRANCH   1  11
TORSDOF 3
ENDMDL
MODEL 3
REMARK VINA RESULT:      -7.0      2.440      6.128
REMARK  Name = 
REMARK  5 active torsions:
REMARK  status: ('A' for Active; 'I' for Inactive)
REMARK    1  A    between atoms: C_1  and  C_2
REMARK    2  A    between atoms: C_4  and  C_5
REMARK    3  A    between atoms: N_6  and  C_7
REMARK    4  A    between atoms: C_7  and  C_8
REMARK    5  A    between atoms: C_8  and  C_9
REMARK                            x       y       z     vdW  Elec       q    Type
REMARK                         _______ _______ _______ _____ _____    ______ ____
ROOT
ATOM      1  C   UNL     1       4.272   3.444  17.641  0.00  0.00    +0.000 C 
ATOM      2  O   UNL     1       4.410   3.740  16.459  0.00  0.00    +0.000 OA
ATOM      3  N   UNL     1       4.905   4.067  18.698  0.00  0.00    +0.000 N 
ATOM      4  C   UNL     1       5.833   5.094  18.513  0.00  0.00    +0.000 A 
ATOM      5  C   UNL     1       5.643   6.102  17.575  0.00  0.00    +0.000 A 
ATOM      6  C   UNL     1       6.646   7.048  17.397  0.00  0.00    +0.000 A 
ATOM      7  C   UNL     1       7.814   6.940  18.140  0.00  0.00    +0.000 A 
ATOM      8  C   UNL     1       7.902   5.920  19.072  0.00  0.00    +0.000 A 
ATOM      9  N   UNL     1       6.922   5.020  19.304  0.00  0.00    +0.000 NA
ATOM     10  H   UNL     1       5.081   3.528  19.535  0.00  0.00    +0.000 HD
ENDROOT
BRANCH   1  11
ATOM     11  C   UNL     1       3.358   2.325  18.078  0.00  0.00    +0.000 C 
BRANCH  11  12
ATOM     12  C   UNL     1       1.944   2.864  18.264  0.00  0.00    +0.000 C 
BRANCH  12  18
ATOM     13  C   UNL     1       2.139   7.404  19.902  0.00  0.00    +0.000 C 
ATOM     14  C   UNL     1       1.989   5.939  19.870  0.00  0.00    +0.000 A 
ATOM     15  N   UNL     1       1.748   5.197  20.992  0.00  0.00    +0.000 NA
ATOM     16  C   UNL     1       1.702   3.959  20.549  0.00  0.00    +0.000 A 
ATOM     17  C   UNL     1       1.484   2.730  21.341  0.00  0.00    +0.000 C 
ATOM     18  N   UNL     1       1.895   3.974  19.188  0.00  0.00    +0.000 N 
ATOM     19  N   UNL     1       2.081   5.228  18.736  0.00  0.00    +0.000 NA
ENDBRANCH  12  18
ENDBRANCH  11  12
ENDBRANCH   1  11
TORSDOF 3
ENDMDL
MODEL 4
REMARK VINA RESULT:      -6.9      1.952      6.012
REMARK  Name = 
REMARK  5 active torsions:
REMARK  status: ('A' for Active; 'I' for Inactive)
REMARK    1  A    between atoms: C_1  and  C_2
REMARK    2  A    between atoms: C_4  and  C_5
REMARK    3  A    between atoms: N_6  and  C_7
REMARK    4  A    between atoms: C_7  and  C_8
REMARK    5  A    between atoms: C_8  and  C_9
REMARK                            x       y       z     vdW  Elec       q    Type
REMARK                         _______ _______ _______ _____ _____    ______ ____
ROOT
ATOM      1  C   UNL     1       4.414   2.897  18.674  0.00  0.00    +0.000 C 
ATOM      2  O   UNL     1       4.996   3.011  19.748  0.00  0.00    +0.000 OA
ATOM      3  N   UNL     1       4.661   3.659  17.550  0.00  0.00    +0.000 N 
ATOM      4  C   UNL     1       5.591   4.701  17.542  0.00  0.00    +0.000 A 
ATOM      5  C   UNL     1       6.826   4.594  18.170  0.00  0.00    +0.000 A 
ATOM      6  C   UNL     1       7.667   5.701  18.182  0.00  0.00    +0.000 A 
ATOM      7  C   UNL     1       7.237   6.882  17.593  0.00  0.00    +0.000 A 
ATOM      8  C   UNL     1       6.003   6.886  16.964  0.00  0.00    +0.000 A 
ATOM      9  N   UNL     1       5.188   5.810  16.890  0.00  0.00    +0.000 NA
ATOM     10  H   UNL     1       3.902   3.807  16.896  0.00  0.00    +0.000 HD
ENDROOT
BRANCH   1  11
ATOM     11  C   UNL     1       3.328   1.870  18.464  0.00  0.00    +0.000 C 
BRANCH  11  12
ATOM     12  C   UNL     1       1.970   2.561  18.430  0.00  0.00    +0.000 C 
BRANCH  12  18
ATOM     13  C   UNL     1       2.254   7.215  19.692  0.00  0.00    +0.000 C 
ATOM     14  C   UNL     1       2.067   5.757  19.778  0.00  0.00    +0.000 A 
ATOM     15  N   UNL     1       1.787   5.116  20.953  0.00  0.00    +0.000 NA
ATOM     16  C   UNL     1       1.716   3.847  20.612  0.00  0.00    +0.000 A 
ATOM     17  C   UNL     1       1.453   2.693  21.498  0.00  0.00    +0.000 C 
ATOM     18  N   UNL     1       1.933   3.745  19.259  0.00  0.00    +0.000 N 
ATOM     19  N   UNL     1       2.160   4.952  18.709  0.00  0.00    +0.000 NA
ENDBRANCH  12  18
ENDBRANCH  11  12
ENDBRANCH   1  11
TORSDOF 3
ENDMDL
MODEL 5
REMARK VINA RESULT:      -6.8      1.464      2.270
REMARK  Name = 
REMARK  5 active torsions:
REMARK  status: ('A' for Active; 'I' for Inactive)
REMARK    1  A    between atoms: C_1  and  C_2
REMARK    2  A    between atoms: C_4  and  C_5
REMARK    3  A    between atoms: N_6  and  C_7
REMARK    4  A    between atoms: C_7  and  C_8
REMARK    5  A    between atoms: C_8  and  C_9
REMARK                            x       y       z     vdW  Elec       q    Type
REMARK                         _______ _______ _______ _____ _____    ______ ____
ROOT
ATOM      1  C   UNL     1       5.658   4.703  18.971  0.00  0.00    +0.000 C 
ATOM      2  O   UNL     1       5.087   5.501  19.708  0.00  0.00    +0.000 OA
ATOM      3  N   UNL     1       5.051   3.650  18.317  0.00  0.00    +0.000 N 
ATOM      4  C   UNL     1       3.697   3.350  18.477  0.00  0.00    +0.000 A 
ATOM      5  C   UNL     1       2.722   4.339  18.526  0.00  0.00    +0.000 A 
ATOM      6  C   UNL     1       1.403   3.967  18.763  0.00  0.00    +0.000 A 
ATOM      7  C   UNL     1       1.108   2.627  18.968  0.00  0.00    +0.000 A 
ATOM      8  C   UNL     1       2.140   1.708  18.871  0.00  0.00    +0.000 A 
ATOM      9  N   UNL     1       3.419   2.036  18.589  0.00  0.00    +0.000 NA
ATOM     10  H   UNL     1       5.610   2.833  18.105  0.00  0.00    +0.000 HD
ENDROOT
BRANCH   1  11
ATOM     11  C   UNL     1       7.138   4.798  18.692  0.00  0.00    +0.000 C 
BRANCH  11  12
ATOM     12  C   UNL     1       7.396   5.909  17.680  0.00  0.00    +0.000 C 
BRANCH  12  18
ATOM     13  C   UNL     1       6.833   4.084  13.243  0.00  0.00    +0.000 C 
ATOM     14  C   UNL     1       6.579   4.838  14.482  0.00  0.00    +0.000 A 
ATOM     15  N   UNL     1       5.474   5.624  14.656  0.00  0.00    +0.000 NA
ATOM     16  C   UNL     1       5.629   6.127  15.862  0.00  0.00    +0.000 A 
ATOM     17  C   UNL     1       4.730   7.068  16.564  0.00  0.00    +0.000 C 
ATOM     18  N   UNL     1       6.796   5.634  16.394  0.00  0.00    +0.000 N 
ATOM     19  N   UNL     1       7.417   4.811  15.529  0.00  0.00    +0.000 NA
ENDBRANCH  12  18
ENDBRANCH  11  12
ENDBRANCH   1  11
TORSDOF 3
ENDMDL
MODEL 6
REMARK VINA RESULT:      -6.8      2.045      2.989
REMARK  Name = 
REMARK  5 active torsions:
REMARK  status: ('A' for Active; 'I' for Inactive)
REMARK    1  A    between atoms: C_1  and  C_2
REMARK    2  A    between atoms: C_4  and  C_5
REMARK    3  A    between atoms: N_6  and  C_7
REMARK    4  A    between atoms: C_7  and  C_8
REMARK    5  A    between atoms: C_8  and  C_9
REMARK                            x       y       z     vdW  Elec       q    Type
REMARK                         _______ _______ _______ _____ _____    ______ ____
ROOT
ATOM      1  C   UNL     1       5.622   4.465  17.185  0.00  0.00    +0.000 C 
ATOM      2  O   UNL     1       5.399   5.396  17.952  0.00  0.00    +0.000 OA
ATOM      3  N   UNL     1       4.751   3.430  16.914  0.00  0.00    +0.000 N 
ATOM      4  C   UNL     1       3.513   3.308  17.549  0.00  0.00    +0.000 A 
ATOM      5  C   UNL     1       2.692   4.405  17.781  0.00  0.00    +0.000 A 
ATOM      6  C   UNL     1       1.508   4.215  18.485  0.00  0.00    +0.000 A 
ATOM      7  C   UNL     1       1.199   2.947  18.956  0.00  0.00    +0.000 A 
ATOM      8  C   UNL     1       2.063   1.909  18.650  0.00  0.00    +0.000 A 
ATOM      9  N   UNL     1       3.192   2.054  17.923  0.00  0.00    +0.000 NA
ATOM     10  H   UNL     1       5.141   2.536  16.643  0.00  0.00    +0.000 HD
ENDROOT
BRANCH   1  11
ATOM     11  C   UNL     1       6.922   4.358  16.425  0.00  0.00    +0.000 C 
BRANCH  11  12
ATOM     12  C   UNL     1       6.938   5.378  15.291  0.00  0.00    +0.000 C 
BRANCH  12  18
ATOM     13  C   UNL     1       5.424   2.431  11.776  0.00  0.00    +0.000 C 
ATOM     14  C   UNL     1       6.180   3.473  12.493  0.00  0.00    +0.000 A 
ATOM     15  N   UNL     1       7.194   4.181  11.912  0.00  0.00    +0.000 NA
ATOM     16  C   UNL     1       7.612   4.980  12.870  0.00  0.00    +0.000 A 
ATOM     17  C   UNL     1       8.714   5.963  12.802  0.00  0.00    +0.000 C 
ATOM     18  N   UNL     1       6.847   4.757  13.990  0.00  0.00    +0.000 N 
ATOM     19  N   UNL     1       5.928   3.798  13.770  0.00  0.00    +0.000 NA
ENDBRANCH  12  18
ENDBRANCH  11  12
ENDBRANCH   1  11
TORSDOF 3
ENDMDL
MODEL 7
REMARK VINA RESULT:      -6.7      2.416      3.464
REMARK  Name = 
REMARK  5 active torsions:
REMARK  status: ('A' for Active; 'I' for Inactive)
REMARK    1  A    between atoms: C_1  and  C_2
REMARK    2  A    between atoms: C_4  and  C_5
REMARK    3  A    between atoms: N_6  and  C_7
REMARK    4  A    between atoms: C_7  and  C_8
REMARK    5  A    between atoms: C_8  and  C_9
REMARK                            x       y       z     vdW  Elec       q    Type
REMARK                         _______ _______ _______ _____ _____    ______ ____
ROOT
ATOM      1  C   UNL     1       2.604   5.123  18.684  0.00  0.00    +0.000 C 
ATOM      2  O   UNL     1       1.711   4.848  19.478  0.00  0.00    +0.000 OA
ATOM      3  N   UNL     1       2.979   6.399  18.317  0.00  0.00    +0.000 N 
ATOM      4  C   UNL     1       2.321   7.537  18.789  0.00  0.00    +0.000 A 
ATOM      5  C   UNL     1       1.913   7.658  20.112  0.00  0.00    +0.000 A 
ATOM      6  C   UNL     1       1.197   8.789  20.489  0.00  0.00    +0.000 A 
ATOM      7  C   UNL     1       0.890   9.744  19.530  0.00  0.00    +0.000 A 
ATOM      8  C   UNL     1       1.364   9.552  18.243  0.00  0.00    +0.000 A 
ATOM      9  N   UNL     1       2.107   8.491  17.861  0.00  0.00    +0.000 NA
ATOM     10  H   UNL     1       3.382   6.534  17.399  0.00  0.00    +0.000 HD
ENDROOT
BRANCH   1  11
ATOM     11  C   UNL     1       3.420   4.050  18.004  0.00  0.00    +0.000 C 
BRANCH  11  12
ATOM     12  C   UNL     1       4.885   4.192  18.402  0.00  0.00    +0.000 C 
BRANCH  12  18
ATOM     13  C   UNL     1       6.436   3.978  13.833  0.00  0.00    +0.000 C 
ATOM     14  C   UNL     1       6.402   4.237  15.282  0.00  0.00    +0.000 A 
ATOM     15  N   UNL     1       7.461   4.769  15.963  0.00  0.00    +0.000 NA
ATOM     16  C   UNL     1       7.043   4.822  17.209  0.00  0.00    +0.000 A 
ATOM     17  C   UNL     1       7.794   5.303  18.388  0.00  0.00    +0.000 C 
ATOM     18  N   UNL     1       5.755   4.345  17.259  0.00  0.00    +0.000 N 
ATOM     19  N   UNL     1       5.328   3.965  16.040  0.00  0.00    +0.000 NA
ENDBRANCH  12  18
ENDBRANCH  11  12
ENDBRANCH   1  11
TORSDOF 3
ENDMDL
MODEL 8
REMARK VINA RESULT:      -6.7      2.117      3.121
REMARK  Name = 
REMARK  5 active torsions:
REMARK  status: ('A' for Active; 'I' for Inactive)
REMARK    1  A    between atoms: C_1  and  C_2
REMARK    2  A    between atoms: C_4  and  C_5
REMARK    3  A    between atoms: N_6  and  C_7
REMARK    4  A    between atoms: C_7  and  C_8
REMARK    5  A    between atoms: C_8  and  C_9
REMARK                            x       y       z     vdW  Elec       q    Type
REMARK                         _______ _______ _______ _____ _____    ______ ____
ROOT
ATOM      1  C   UNL     1       4.418   4.923  17.081  0.00  0.00    +0.000 C 
ATOM      2  O   UNL     1       4.236   3.751  16.767  0.00  0.00    +0.000 OA
ATOM      3  N   UNL     1       4.102   5.478  18.304  0.00  0.00    +0.000 N 
ATOM      4  C   UNL     1       3.475   4.749  19.317  0.00  0.00    +0.000 A 
ATOM      5  C   UNL     1       3.828   3.436  19.609  0.00  0.00    +0.000 A 
ATOM      6  C   UNL     1       3.107   2.752  20.581  0.00  0.00    +0.000 A 
ATOM      7  C   UNL     1       2.046   3.389  21.207  0.00  0.00    +0.000 A 
ATOM      8  C   UNL     1       1.786   4.708  20.873  0.00  0.00    +0.000 A 
ATOM      9  N   UNL     1       2.503   5.414  19.972  0.00  0.00    +0.000 NA
ATOM     10  H   UNL     1       3.880   6.465  18.338  0.00  0.00    +0.000 HD
ENDROOT
BRANCH   1  11
ATOM     11  C   UNL     1       5.035   5.914  16.124  0.00  0.00    +0.000 C 
BRANCH  11  12
ATOM     12  C   UNL     1       6.547   5.722  16.095  0.00  0.00    +0.000 C 
BRANCH  12  18
ATOM     13  C   UNL     1       8.508   9.573  18.253  0.00  0.00    +0.000 C 
ATOM     14  C   UNL     1       8.066   8.191  18.001  0.00  0.00    +0.000 A 
ATOM     15  N   UNL     1       8.308   7.168  18.875  0.00  0.00    +0.000 NA
ATOM     16  C   UNL     1       7.780   6.116  18.286  0.00  0.00    +0.000 A 
ATOM     17  C   UNL     1       7.766   4.723  18.780  0.00  0.00    +0.000 C 
ATOM     18  N   UNL     1       7.223   6.517  17.094  0.00  0.00    +0.000 N 
ATOM     19  N   UNL     1       7.397   7.836  16.894  0.00  0.00    +0.000 NA
ENDBRANCH  12  18
ENDBRANCH  11  12
ENDBRANCH   1  11
TORSDOF 3
ENDMDL
MODEL 9
REMARK VINA RESULT:      -6.7      1.761      2.352
REMARK  Name = 
REMARK  5 active torsions:
REMARK  status: ('A' for Active; 'I' for Inactive)
REMARK    1  A    between atoms: C_1  and  C_2
REMARK    2  A    between atoms: C_4  and  C_5
REMARK    3  A    between atoms: N_6  and  C_7
REMARK    4  A    between atoms: C_7  and  C_8
REMARK    5  A    between atoms: C_8  and  C_9
REMARK                            x       y       z     vdW  Elec       q    Type
REMARK                         _______ _______ _______ _____ _____    ______ ____
ROOT
ATOM      1  C   UNL     1       5.513   5.000  19.255  0.00  0.00    +0.000 C 
ATOM      2  O   UNL     1       4.760   5.967  19.298  0.00  0.00    +0.000 OA
ATOM      3  N   UNL     1       5.129   3.702  18.984  0.00  0.00    +0.000 N 
ATOM      4  C   UNL     1       3.794   3.345  18.780  0.00  0.00    +0.000 A 
ATOM      5  C   UNL     1       2.925   4.130  18.033  0.00  0.00    +0.000 A 
ATOM      6  C   UNL     1       1.592   3.746  17.937  0.00  0.00    +0.000 A 
ATOM      7  C   UNL     1       1.168   2.609  18.611  0.00  0.00    +0.000 A 
ATOM      8  C   UNL     1       2.112   1.872  19.307  0.00  0.00    +0.000 A 
ATOM      9  N   UNL     1       3.423   2.192  19.373  0.00  0.00    +0.000 NA
ATOM     10  H   UNL     1       5.680   2.949  19.375  0.00  0.00    +0.000 HD
ENDROOT
BRANCH   1  11
ATOM     11  C   UNL     1       6.997   5.138  19.497  0.00  0.00    +0.000 C 
BRANCH  11  12
ATOM     12  C   UNL     1       7.763   4.621  18.284  0.00  0.00    +0.000 C 
BRANCH  12  18
ATOM     13  C   UNL     1       5.616   4.172  13.981  0.00  0.00    +0.000 C 
ATOM     14  C   UNL     1       6.218   4.776  15.182  0.00  0.00    +0.000 A 
ATOM     15  N   UNL     1       6.347   6.127  15.344  0.00  0.00    +0.000 NA
ATOM     16  C   UNL     1       6.938   6.251  16.513  0.00  0.00    +0.000 A 
ATOM     17  C   UNL     1       7.339   7.504  17.187  0.00  0.00    +0.000 C 
ATOM     18  N   UNL     1       7.138   4.996  17.037  0.00  0.00    +0.000 N 
ATOM     19  N   UNL     1       6.688   4.041  16.202  0.00  0.00    +0.000 NA
ENDBRANCH  12  18
ENDBRANCH  11  12
ENDBRANCH   1  11
TORSDOF 3
ENDMDL
