MODEL 1
REMARK VINA RESULT:      -8.8      0.000      0.000
REMARK  Name = 
REMARK  7 active torsions:
REMARK  status: ('A' for Active; 'I' for Inactive)
REMARK    1  A    between atoms: C_2  and  C_3
REMARK    2  A    between atoms: C_3  and  C_4
REMARK    3  A    between atoms: C_9  and  O_10
REMARK    4  A    between atoms: N_11  and  C_12
REMARK    5  A    between atoms: C_12  and  C_13
REMARK    6  A    between atoms: C_16  and  C_17
REMARK    7  A    between atoms: C_19  and  C_20
REMARK                            x       y       z     vdW  Elec       q    Type
REMARK                         _______ _______ _______ _____ _____    ______ ____
ROOT
ATOM      1  C   UNL     1       2.662   7.431  18.412  0.00  0.00    +0.000 A 
ATOM      2  C   UNL     1       2.200   8.689  18.005  0.00  0.00    +0.000 A 
ATOM      3  C   UNL     1       1.442   9.481  18.873  0.00  0.00    +0.000 A 
ATOM      4  C   UNL     1       1.137   9.037  20.169  0.00  0.00    +0.000 A 
ATOM      5  C   UNL     1       1.593   7.773  20.567  0.00  0.00    +0.000 A 
ATOM      6  C   UNL     1       2.352   6.981  19.701  0.00  0.00    +0.000 A 
ENDROOT
BRANCH   4   7
ATOM      7  C   UNL     1       0.383   9.901  21.073  0.00  0.00    +0.000 A 
ATOM      8  N   UNL     1       0.185  11.204  21.007  0.00  0.00    +0.000 NA
ATOM      9  C   UNL     1      -0.594  11.490  22.118  0.00  0.00    +0.000 A 
ATOM     10  C   UNL     1      -0.796  10.326  22.828  0.00  0.00    +0.000 A 
ATOM     11  O   UNL     1      -0.196   9.303  22.164  0.00  0.00    +0.000 OA
BRANCH   9  12
ATOM     12  C   UNL     1      -1.065  12.813  22.529  0.00  0.00    +0.000 C 
ATOM     13  O   UNL     1      -0.502  13.400  23.452  0.00  0.00    +0.000 OA
ATOM     14  N   UNL     1      -2.143  13.381  21.846  0.00  0.00    +0.000 N 
ATOM     15  C   UNL     1      -2.470  14.785  22.075  0.00  0.00    +0.000 C 
ATOM     16  C   UNL     1      -3.864  14.934  22.677  0.00  0.00    +0.000 C 
ATOM     17  C   UNL     1      -4.908  14.217  21.821  0.00  0.00    +0.000 C 
ATOM     18  C   UNL     1      -4.511  12.761  21.589  0.00  0.00    +0.000 C 
ATOM     19  C   UNL     1      -3.100  12.649  21.012  0.00  0.00    +0.000 C 
ENDBRANCH   9  12
ENDBRANCH   4   7
BRANCH   1  20
ATOM     20  C   UNL     1       3.536   6.605  17.507  0.00  0.00    +0.000 C 
BRANCH  20  23
ATOM     21  O   UNL     1       4.758   4.522  16.091  0.00  0.00    +0.000 OA
ATOM     22  C   UNL     1       4.064   4.249  17.068  0.00  0.00    +0.000 C 
ATOM     23  N   UNL     1       3.402   5.201  17.810  0.00  0.00    +0.000 N 
ATOM     24  H   UNL     1       3.025   4.923  18.709  0.00  0.00    +0.000 HD
BRANCH  22  25
ATOM     25  C   UNL     1       3.848   2.826  17.544  0.00  0.00    +0.000 C 
BRANCH  25  26
ATOM     26  C   UNL     1       3.058   2.745  18.826  0.00  0.00    +0.000 A 
ATOM     27  C   UNL     1       1.660   2.861  18.794  0.00  0.00    +0.000 A 
ATOM     28  C   UNL     1       0.914   2.808  19.973  0.00  0.00    +0.000 A 
ATOM     29  C   UNL     1       1.555   2.624  21.197  0.00  0.00    +0.000 A 
ATOM     30  C   UNL     1       2.944   2.490  21.243  0.00  0.00    +0.000 A 
ATOM     31  C   UNL     1       3.684   2.550  20.061  0.00  0.00    +0.000 A 
BRANCH  31  32
ATOM     32  O   UNL     1       5.045   2.422  20.096  0.00  0.00    +0.000 OA
ATOM     33  H   UNL     1       5.356   2.756  20.955  0.00  0.00    +0.000 HD
ENDBRANCH  31  32
ENDBRANCH  25  26
ENDBRANCH  22  25
ENDBRANCH  20  23
ENDBRANCH   1  20
TORSDOF 7
ENDMDL
MODEL 2
REMARK VINA RESULT:      -8.6      2.500     10.378
REMARK  Name = 
REMARK  7 active torsions:
REMARK  status: ('A' for Active; 'I' for Inactive)
REMARK    1  A    between atoms: C_2  and  C_3
REMARK    2  A    between atoms: C_3  and  C_4
REMARK    3  A    between atoms: C_9  and  O_10
REMARK    4  A    between atoms: N_11  and  C_12
REMARK    5  A    between atoms: C_12  and  C_13
REMARK    6  A    between atoms: C_16  and  C_17
REMARK    7  A    between atoms: C_19  and  C_20
REMARK                            x       y       z     vdW  Elec       q    Type
REMARK                         _______ _______ _______ _____ _____    ______ ____
ROOT
ATOM      1  C   UNL     1      -1.135  11.227  22.404  0.00  0.00    +0.000 A 
ATOM      2  C   UNL     1      -0.690  10.061  23.041  0.00  0.00    +0.000 A 
ATOM      3  C   UNL     1       0.087   9.127  22.348  0.00  0.00    +0.000 A 
ATOM      4  C   UNL     1       0.443   9.341  21.008  0.00  0.00    +0.000 A 
ATOM      5  C   UNL     1      -0.014  10.504  20.372  0.00  0.00    +0.000 A 
ATOM      6  C   UNL     1      -0.790  11.439  21.064  0.00  0.00    +0.000 A 
ENDROOT
BRANCH   4   7
ATOM      7  C   UNL     1       1.292   8.374  20.319  0.00  0.00    +0.000 A 
ATOM      8  N   UNL     1       1.799   7.242  20.770  0.00  0.00    +0.000 NA
ATOM      9  C   UNL     1       2.520   6.738  19.699  0.00  0.00    +0.000 A 
ATOM     10  C   UNL     1       2.439   7.631  18.651  0.00  0.00    +0.000 A 
ATOM     11  O   UNL     1       1.644   8.667  19.026  0.00  0.00    +0.000 OA
BRANCH   9  12
ATOM     12  C   UNL     1       3.311   5.506  19.689  0.00  0.00    +0.000 C 
ATOM     13  O   UNL     1       4.527   5.564  19.513  0.00  0.00    +0.000 OA
ATOM     14  N   UNL     1       2.655   4.289  19.893  0.00  0.00    +0.000 N 
ATOM     15  C   UNL     1       3.447   3.086  20.127  0.00  0.00    +0.000 C 
ATOM     16  C   UNL     1       3.220   2.055  19.024  0.00  0.00    +0.000 C 
ATOM     17  C   UNL     1       1.731   1.759  18.852  0.00  0.00    +0.000 C 
ATOM     18  C   UNL     1       0.943   3.047  18.634  0.00  0.00    +0.000 C 
ATOM     19  C   UNL     1       1.215   4.066  19.741  0.00  0.00    +0.000 C 
ENDBRANCH   9  12
ENDBRANCH   4   7
BRANCH   1  20
ATOM     20  C   UNL     1      -1.912  12.267  23.165  0.00  0.00    +0.000 C 
BRANCH  20  23
ATOM     21  O   UNL     1      -3.529  14.313  22.147  0.00  0.00    +0.000 OA
ATOM     22  C   UNL     1      -4.030  13.211  22.363  0.00  0.00    +0.000 C 
ATOM     23  N   UNL     1      -3.323  12.154  22.888  0.00  0.00    +0.000 N 
ATOM     24  H   UNL     1      -3.746  11.233  22.845  0.00  0.00    +0.000 HD
BRANCH  22  25
ATOM     25  C   UNL     1      -5.492  12.913  22.095  0.00  0.00    +0.000 C 
BRANCH  25  26
ATOM     26  C   UNL     1      -5.724  12.246  20.763  0.00  0.00    +0.000 A 
ATOM     27  C   UNL     1      -4.874  12.526  19.683  0.00  0.00    +0.000 A 
ATOM     28  C   UNL     1      -5.085  11.932  18.437  0.00  0.00    +0.000 A 
ATOM     29  C   UNL     1      -6.140  11.040  18.259  0.00  0.00    +0.000 A 
ATOM     30  C   UNL     1      -6.986  10.739  19.329  0.00  0.00    +0.000 A 
ATOM     31  C   UNL     1      -6.772  11.340  20.570  0.00  0.00    +0.000 A 
BRANCH  31  32
ATOM     32  O   UNL     1      -7.596  11.052  21.623  0.00  0.00    +0.000 OA
ATOM     33  H   UNL     1      -8.429  10.700  21.265  0.00  0.00    +0.000 HD
ENDBRANCH  31  32
ENDBRANCH  25  26
ENDBRANCH  22  25
ENDBRANCH  20  23
ENDBRANCH   1  20
TORSDOF 7
ENDMDL
MODEL 3
REMARK VINA RESULT:      -8.6      1.352      1.805
REMARK  Name = 
REMARK  7 active torsions:
REMARK  status: ('A' for Active; 'I' for Inactive)
REMARK    1  A    between atoms: C_2  and  C_3
REMARK    2  A    between atoms: C_3  and  C_4
REMARK    3  A    between atoms: C_9  and  O_10
REMARK    4  A    between atoms: N_11  and  C_12
REMARK    5  A    between atoms: C_12  and  C_13
REMARK    6  A    between atoms: C_16  and  C_17
REMARK    7  A    between atoms: C_19  and  C_20
REMARK                            x       y       z     vdW  Elec       q    Type
REMARK                         _______ _______ _______ _____ _____    ______ ____
ROOT
ATOM      1  C   UNL     1       2.772   7.558  18.253  0.00  0.00    +0.000 A 
ATOM      2  C   UNL     1       2.361   8.769  17.681  0.00  0.00    +0.000 A 
ATOM      3  C   UNL     1       1.591   9.675  18.417  0.00  0.00    +0.000 A 
ATOM      4  C   UNL     1       1.223   9.396  19.742  0.00  0.00    +0.000 A 
ATOM      5  C   UNL     1       1.627   8.178  20.305  0.00  0.00    +0.000 A 
ATOM      6  C   UNL     1       2.398   7.271  19.571  0.00  0.00    +0.000 A 
ENDROOT
BRANCH   4   7
ATOM      7  C   UNL     1       0.457  10.377  20.505  0.00  0.00    +0.000 A 
ATOM      8  N   UNL     1      -0.764  10.280  20.996  0.00  0.00    +0.000 NA
ATOM      9  C   UNL     1      -0.981  11.499  21.620  0.00  0.00    +0.000 A 
ATOM     10  C   UNL     1       0.130  12.295  21.435  0.00  0.00    +0.000 A 
ATOM     11  O   UNL     1       1.060  11.586  20.744  0.00  0.00    +0.000 OA
BRANCH   9  12
ATOM     12  C   UNL     1      -2.208  11.920  22.297  0.00  0.00    +0.000 C 
ATOM     13  O   UNL     1      -2.405  11.588  23.465  0.00  0.00    +0.000 OA
ATOM     14  N   UNL     1      -3.125  12.706  21.593  0.00  0.00    +0.000 N 
ATOM     15  C   UNL     1      -4.227  13.333  22.315  0.00  0.00    +0.000 C 
ATOM     16  C   UNL     1      -5.574  12.816  21.820  0.00  0.00    +0.000 C 
ATOM     17  C   UNL     1      -5.696  12.973  20.305  0.00  0.00    +0.000 C 
ATOM     18  C   UNL     1      -4.512  12.323  19.596  0.00  0.00    +0.000 C 
ATOM     19  C   UNL     1      -3.179  12.844  20.135  0.00  0.00    +0.000 C 
ENDBRANCH   9  12
ENDBRANCH   4   7
BRANCH   1  20
ATOM     20  C   UNL     1       3.657   6.610  17.489  0.00  0.00    +0.000 C 
BRANCH  20  23
ATOM     21  O   UNL     1       5.072   4.363  16.606  0.00  0.00    +0.000 OA
ATOM     22  C   UNL     1       4.085   4.200  17.321  0.00  0.00    +0.000 C 
ATOM     23  N   UNL     1       3.311   5.240  17.780  0.00  0.00    +0.000 N 
ATOM     24  H   UNL     1       2.646   5.046  18.522  0.00  0.00    +0.000 HD
BRANCH  22  25
ATOM     25  C   UNL     1       3.604   2.828  17.749  0.00  0.00    +0.000 C 
BRANCH  25  26
ATOM     26  C   UNL     1       2.825   2.851  19.039  0.00  0.00    +0.000 A 
ATOM     27  C   UNL     1       3.487   2.645  20.260  0.00  0.00    +0.000 A 
ATOM     28  C   UNL     1       2.779   2.643  21.463  0.00  0.00    +0.000 A 
ATOM     29  C   UNL     1       1.403   2.863  21.463  0.00  0.00    +0.000 A 
ATOM     30  C   UNL     1       0.732   3.086  20.258  0.00  0.00    +0.000 A 
ATOM     31  C   UNL     1       1.446   3.080  19.059  0.00  0.00    +0.000 A 
BRANCH  31  32
ATOM     32  O   UNL     1       0.798   3.297  17.874  0.00  0.00    +0.000 OA
ATOM     33  H   UNL     1      -0.129   3.023  17.984  0.00  0.00    +0.000 HD
ENDBRANCH  31  32
ENDBRANCH  25  26
ENDBRANCH  22  25
ENDBRANCH  20  23
ENDBRANCH   1  20
TORSDOF 7
ENDMDL
MODEL 4
REMARK VINA RESULT:      -8.6      1.184      1.359
REMARK  Name = 
REMARK  7 active torsions:
REMARK  status: ('A' for Active; 'I' for Inactive)
REMARK    1  A    between atoms: C_2  and  C_3
REMARK    2  A    between atoms: C_3  and  C_4
REMARK    3  A    between atoms: C_9  and  O_10
REMARK    4  A    between atoms: N_11  and  C_12
REMARK    5  A    between atoms: C_12  and  C_13
REMARK    6  A    between atoms: C_16  and  C_17
REMARK    7  A    between atoms: C_19  and  C_20
REMARK                            x       y       z     vdW  Elec       q    Type
REMARK                         _______ _______ _______ _____ _____    ______ ____
ROOT
ATOM      1  C   UNL     1       2.627   7.903  18.299  0.00  0.00    +0.000 A 
ATOM      2  C   UNL     1       2.255   9.153  17.787  0.00  0.00    +0.000 A 
ATOM      3  C   UNL     1       1.470  10.025  18.548  0.00  0.00    +0.000 A 
ATOM      4  C   UNL     1       1.047   9.671  19.838  0.00  0.00    +0.000 A 
ATOM      5  C   UNL     1       1.414   8.415  20.341  0.00  0.00    +0.000 A 
ATOM      6  C   UNL     1       2.200   7.543  19.582  0.00  0.00    +0.000 A 
ENDROOT
BRANCH   4   7
ATOM      7  C   UNL     1       0.266  10.617  20.631  0.00  0.00    +0.000 A 
ATOM      8  N   UNL     1      -0.938  10.470  21.151  0.00  0.00    +0.000 NA
ATOM      9  C   UNL     1      -1.183  11.674  21.793  0.00  0.00    +0.000 A 
ATOM     10  C   UNL     1      -0.107  12.512  21.590  0.00  0.00    +0.000 A 
ATOM     11  O   UNL     1       0.831  11.844  20.868  0.00  0.00    +0.000 OA
BRANCH   9  12
ATOM     12  C   UNL     1      -2.407  12.043  22.505  0.00  0.00    +0.000 C 
ATOM     13  O   UNL     1      -2.579  11.661  23.662  0.00  0.00    +0.000 OA
ATOM     14  N   UNL     1      -3.350  12.838  21.847  0.00  0.00    +0.000 N 
ATOM     15  C   UNL     1      -4.452  13.413  22.611  0.00  0.00    +0.000 C 
ATOM     16  C   UNL     1      -5.797  12.890  22.116  0.00  0.00    +0.000 C 
ATOM     17  C   UNL     1      -5.946  13.105  20.611  0.00  0.00    +0.000 C 
ATOM     18  C   UNL     1      -4.761  12.508  19.858  0.00  0.00    +0.000 C 
ATOM     19  C   UNL     1      -3.431  13.033  20.397  0.00  0.00    +0.000 C 
ENDBRANCH   9  12
ENDBRANCH   4   7
BRANCH   1  20
ATOM     20  C   UNL     1       3.529   6.990  17.512  0.00  0.00    +0.000 C 
BRANCH  20  23
ATOM     21  O   UNL     1       4.961   4.778  16.569  0.00  0.00    +0.000 OA
ATOM     22  C   UNL     1       3.937   4.588  17.223  0.00  0.00    +0.000 C 
ATOM     23  N   UNL     1       3.153   5.611  17.705  0.00  0.00    +0.000 N 
ATOM     24  H   UNL     1       2.450   5.383  18.400  0.00  0.00    +0.000 HD
BRANCH  22  25
ATOM     25  C   UNL     1       3.420   3.200  17.546  0.00  0.00    +0.000 C 
BRANCH  25  26
ATOM     26  C   UNL     1       2.808   3.103  18.921  0.00  0.00    +0.000 A 
ATOM     27  C   UNL     1       1.451   3.407  19.105  0.00  0.00    +0.000 A 
ATOM     28  C   UNL     1       0.872   3.341  20.374  0.00  0.00    +0.000 A 
ATOM     29  C   UNL     1       1.639   2.956  21.472  0.00  0.00    +0.000 A 
ATOM     30  C   UNL     1       2.988   2.634  21.301  0.00  0.00    +0.000 A 
ATOM     31  C   UNL     1       3.561   2.708  20.031  0.00  0.00    +0.000 A 
BRANCH  31  32
ATOM     32  O   UNL     1       4.881   2.396  19.855  0.00  0.00    +0.000 OA
ATOM     33  H   UNL     1       5.405   3.195  20.036  0.00  0.00    +0.000 HD
ENDBRANCH  31  32
ENDBRANCH  25  26
ENDBRANCH  22  25
ENDBRANCH  20  23
ENDBRANCH   1  20
TORSDOF 7
ENDMDL
MODEL 5
REMARK VINA RESULT:      -8.6      0.558      1.039
REMARK  Name = 
REMARK  7 active torsions:
REMARK  status: ('A' for Active; 'I' for Inactive)
REMARK    1  A    between atoms: C_2  and  C_3
REMARK    2  A    between atoms: C_3  and  C_4
REMARK    3  A    between atoms: C_9  and  O_10
REMARK    4  A    between atoms: N_11  and  C_12
REMARK    5  A    between atoms: C_12  and  C_13
REMARK    6  A    between atoms: C_16  and  C_17
REMARK    7  A    between atoms: C_19  and  C_20
REMARK                            x       y       z     vdW  Elec       q    Type
REMARK                         _______ _______ _______ _____ _____    ______ ____
ROOT
ATOM      1  C   UNL     1       2.503   7.759  18.547  0.00  0.00    +0.000 A 
ATOM      2  C   UNL     1       2.282   7.356  19.871  0.00  0.00    +0.000 A 
ATOM      3  C   UNL     1       1.513   8.144  20.733  0.00  0.00    +0.000 A 
ATOM      4  C   UNL     1       0.941   9.346  20.289  0.00  0.00    +0.000 A 
ATOM      5  C   UNL     1       1.175   9.750  18.967  0.00  0.00    +0.000 A 
ATOM      6  C   UNL     1       1.942   8.962  18.104  0.00  0.00    +0.000 A 
ENDROOT
BRANCH   4   7
ATOM      7  C   UNL     1       0.104  10.130  21.194  0.00  0.00    +0.000 A 
ATOM      8  N   UNL     1      -0.343  11.363  21.054  0.00  0.00    +0.000 NA
ATOM      9  C   UNL     1      -1.078  11.595  22.206  0.00  0.00    +0.000 A 
ATOM     10  C   UNL     1      -1.001  10.478  23.012  0.00  0.00    +0.000 A 
ATOM     11  O   UNL     1      -0.268   9.531  22.370  0.00  0.00    +0.000 OA
BRANCH   9  12
ATOM     12  C   UNL     1      -1.761  12.838  22.563  0.00  0.00    +0.000 C 
ATOM     13  O   UNL     1      -1.530  13.371  23.648  0.00  0.00    +0.000 OA
ATOM     14  N   UNL     1      -2.656  13.397  21.647  0.00  0.00    +0.000 N 
ATOM     15  C   UNL     1      -3.159  14.748  21.877  0.00  0.00    +0.000 C 
ATOM     16  C   UNL     1      -4.672  14.746  22.070  0.00  0.00    +0.000 C 
ATOM     17  C   UNL     1      -5.371  14.047  20.904  0.00  0.00    +0.000 C 
ATOM     18  C   UNL     1      -4.796  12.650  20.688  0.00  0.00    +0.000 C 
ATOM     19  C   UNL     1      -3.277  12.686  20.526  0.00  0.00    +0.000 C 
ENDBRANCH   9  12
ENDBRANCH   4   7
BRANCH   1  20
ATOM     20  C   UNL     1       3.272   6.881  17.597  0.00  0.00    +0.000 C 
BRANCH  20  23
ATOM     21  O   UNL     1       4.642   4.706  16.488  0.00  0.00    +0.000 OA
ATOM     22  C   UNL     1       3.683   4.490  17.226  0.00  0.00    +0.000 C 
ATOM     23  N   UNL     1       2.932   5.493  17.795  0.00  0.00    +0.000 N 
ATOM     24  H   UNL     1       2.296   5.242  18.545  0.00  0.00    +0.000 HD
BRANCH  22  25
ATOM     25  C   UNL     1       3.213   3.090  17.566  0.00  0.00    +0.000 C 
BRANCH  25  26
ATOM     26  C   UNL     1       2.674   2.971  18.968  0.00  0.00    +0.000 A 
ATOM     27  C   UNL     1       1.310   3.194  19.214  0.00  0.00    +0.000 A 
ATOM     28  C   UNL     1       0.796   3.108  20.509  0.00  0.00    +0.000 A 
ATOM     29  C   UNL     1       1.636   2.784  21.573  0.00  0.00    +0.000 A 
ATOM     30  C   UNL     1       2.992   2.543  21.342  0.00  0.00    +0.000 A 
ATOM     31  C   UNL     1       3.500   2.637  20.046  0.00  0.00    +0.000 A 
BRANCH  31  32
ATOM     32  O   UNL     1       4.827   2.404  19.810  0.00  0.00    +0.000 OA
ATOM     33  H   UNL     1       5.322   2.657  20.609  0.00  0.00    +0.000 HD
ENDBRANCH  31  32
ENDBRANCH  25  26
ENDBRANCH  22  25
ENDBRANCH  20  23
ENDBRANCH   1  20
TORSDOF 7
ENDMDL
MODEL 6
REMARK VINA RESULT:      -8.6      1.136      1.766
REMARK  Name = 
REMARK  7 active torsions:
REMARK  status: ('A' for Active; 'I' for Inactive)
REMARK    1  A    between atoms: C_2  and  C_3
REMARK    2  A    between atoms: C_3  and  C_4
REMARK    3  A    between atoms: C_9  and  O_10
REMARK    4  A    between atoms: N_11  and  C_12
REMARK    5  A    between atoms: C_12  and  C_13
REMARK    6  A    between atoms: C_16  and  C_17
REMARK    7  A    between atoms: C_19  and  C_20
REMARK                            x       y       z     vdW  Elec       q    Type
REMARK                         _______ _______ _______ _____ _____    ______ ____
ROOT
ATOM      1  C   UNL     1       2.496   7.756  18.528  0.00  0.00    +0.000 A 
ATOM      2  C   UNL     1       2.257   7.250  19.813  0.00  0.00    +0.000 A 
ATOM      3  C   UNL     1       1.472   7.966  20.722  0.00  0.00    +0.000 A 
ATOM      4  C   UNL     1       0.901   9.197  20.365  0.00  0.00    +0.000 A 
ATOM      5  C   UNL     1       1.152   9.704  19.083  0.00  0.00    +0.000 A 
ATOM      6  C   UNL     1       1.936   8.989  18.172  0.00  0.00    +0.000 A 
ENDROOT
BRANCH   4   7
ATOM      7  C   UNL     1       0.048   9.905  21.316  0.00  0.00    +0.000 A 
ATOM      8  N   UNL     1      -0.692  10.981  21.128  0.00  0.00    +0.000 NA
ATOM      9  C   UNL     1      -1.282  11.212  22.361  0.00  0.00    +0.000 A 
ATOM     10  C   UNL     1      -0.825  10.266  23.254  0.00  0.00    +0.000 A 
ATOM     11  O   UNL     1       0.007   9.416  22.597  0.00  0.00    +0.000 OA
BRANCH   9  12
ATOM     12  C   UNL     1      -2.177  12.318  22.700  0.00  0.00    +0.000 C 
ATOM     13  O   UNL     1      -3.384  12.111  22.819  0.00  0.00    +0.000 OA
ATOM     14  N   UNL     1      -1.628  13.589  22.892  0.00  0.00    +0.000 N 
ATOM     15  C   UNL     1      -2.460  14.644  23.463  0.00  0.00    +0.000 C 
ATOM     16  C   UNL     1      -2.638  15.796  22.479  0.00  0.00    +0.000 C 
ATOM     17  C   UNL     1      -1.285  16.311  21.989  0.00  0.00    +0.000 C 
ATOM     18  C   UNL     1      -0.444  15.170  21.424  0.00  0.00    +0.000 C 
ATOM     19  C   UNL     1      -0.309  14.022  22.425  0.00  0.00    +0.000 C 
ENDBRANCH   9  12
ENDBRANCH   4   7
BRANCH   1  20
ATOM     20  C   UNL     1       3.282   6.958  17.524  0.00  0.00    +0.000 C 
BRANCH  20  23
ATOM     21  O   UNL     1       4.822   4.948  16.329  0.00  0.00    +0.000 OA
ATOM     22  C   UNL     1       3.970   4.631  17.158  0.00  0.00    +0.000 C 
ATOM     23  N   UNL     1       3.148   5.544  17.777  0.00  0.00    +0.000 N 
ATOM     24  H   UNL     1       2.622   5.235  18.588  0.00  0.00    +0.000 HD
BRANCH  22  25
ATOM     25  C   UNL     1       3.723   3.192  17.565  0.00  0.00    +0.000 C 
BRANCH  25  26
ATOM     26  C   UNL     1       2.969   3.066  18.864  0.00  0.00    +0.000 A 
ATOM     27  C   UNL     1       1.589   3.320  18.899  0.00  0.00    +0.000 A 
ATOM     28  C   UNL     1       0.878   3.228  20.097  0.00  0.00    +0.000 A 
ATOM     29  C   UNL     1       1.534   2.867  21.272  0.00  0.00    +0.000 A 
ATOM     30  C   UNL     1       2.904   2.595  21.250  0.00  0.00    +0.000 A 
ATOM     31  C   UNL     1       3.609   2.695  20.050  0.00  0.00    +0.000 A 
BRANCH  31  32
ATOM     32  O   UNL     1       4.951   2.432  20.020  0.00  0.00    +0.000 OA
ATOM     33  H   UNL     1       5.234   2.208  20.923  0.00  0.00    +0.000 HD
ENDBRANCH  31  32
ENDBRANCH  25  26
ENDBRANCH  22  25
ENDBRANCH  20  23
ENDBRANCH   1  20
TORSDOF 7
ENDMDL
MODEL 7
REMARK VINA RESULT:      -8.6      6.727      8.686
REMARK  Name = 
REMARK  7 active torsions:
REMARK  status: ('A' for Active; 'I' for Inactive)
REMARK    1  A    between atoms: C_2  and  C_3
REMARK    2  A    between atoms: C_3  and  C_4
REMARK    3  A    between atoms: C_9  and  O_10
REMARK    4  A    between atoms: N_11  and  C_12
REMARK    5  A    between atoms: C_12  and  C_13
REMARK    6  A    between atoms: C_16  and  C_17
REMARK    7  A    between atoms: C_19  and  C_20
REMARK                            x       y       z     vdW  Elec       q    Type
REMARK                         _______ _______ _______ _____ _____    ______ ____
ROOT
ATOM      1  C   UNL     1       7.070   6.492  17.794  0.00  0.00    +0.000 A 
ATOM      2  C   UNL     1       8.013   6.511  18.831  0.00  0.00    +0.000 A 
ATOM      3  C   UNL     1       8.701   7.688  19.142  0.00  0.00    +0.000 A 
ATOM      4  C   UNL     1       8.456   8.873  18.431  0.00  0.00    +0.000 A 
ATOM      5  C   UNL     1       7.519   8.845  17.388  0.00  0.00    +0.000 A 
ATOM      6  C   UNL     1       6.830   7.670  17.077  0.00  0.00    +0.000 A 
ENDROOT
BRANCH   4   7
ATOM      7  C   UNL     1       9.153  10.101  18.804  0.00  0.00    +0.000 A 
ATOM      8  N   UNL     1       9.706  11.012  18.025  0.00  0.00    +0.000 NA
ATOM      9  C   UNL     1      10.222  11.949  18.907  0.00  0.00    +0.000 A 
ATOM     10  C   UNL     1       9.980  11.524  20.196  0.00  0.00    +0.000 A 
ATOM     11  O   UNL     1       9.283  10.359  20.144  0.00  0.00    +0.000 OA
BRANCH   9  12
ATOM     12  C   UNL     1      10.973  13.153  18.551  0.00  0.00    +0.000 C 
ATOM     13  O   UNL     1      12.191  13.184  18.718  0.00  0.00    +0.000 OA
ATOM     14  N   UNL     1      10.278  14.240  18.013  0.00  0.00    +0.000 N 
ATOM     15  C   UNL     1      11.030  15.347  17.431  0.00  0.00    +0.000 C 
ATOM     16  C   UNL     1      10.776  16.645  18.193  0.00  0.00    +0.000 C 
ATOM     17  C   UNL     1       9.279  16.936  18.293  0.00  0.00    +0.000 C 
ATOM     18  C   UNL     1       8.534  15.743  18.884  0.00  0.00    +0.000 C 
ATOM     19  C   UNL     1       8.832  14.456  18.114  0.00  0.00    +0.000 C 
ENDBRANCH   9  12
ENDBRANCH   4   7
BRANCH   1  20
ATOM     20  C   UNL     1       6.278   5.246  17.501  0.00  0.00    +0.000 C 
BRANCH  20  23
ATOM     21  O   UNL     1       4.171   3.688  16.518  0.00  0.00    +0.000 OA
ATOM     22  C   UNL     1       3.918   4.608  17.294  0.00  0.00    +0.000 C 
ATOM     23  N   UNL     1       4.882   5.444  17.807  0.00  0.00    +0.000 N 
ATOM     24  H   UNL     1       4.627   6.039  18.588  0.00  0.00    +0.000 HD
BRANCH  22  25
ATOM     25  C   UNL     1       2.508   4.931  17.745  0.00  0.00    +0.000 C 
BRANCH  25  26
ATOM     26  C   UNL     1       2.106   4.197  19.000  0.00  0.00    +0.000 A 
ATOM     27  C   UNL     1       1.363   3.011  18.909  0.00  0.00    +0.000 A 
ATOM     28  C   UNL     1       0.966   2.328  20.060  0.00  0.00    +0.000 A 
ATOM     29  C   UNL     1       1.319   2.816  21.317  0.00  0.00    +0.000 A 
ATOM     30  C   UNL     1       2.073   3.987  21.424  0.00  0.00    +0.000 A 
ATOM     31  C   UNL     1       2.461   4.667  20.268  0.00  0.00    +0.000 A 
BRANCH  31  32
ATOM     32  O   UNL     1       3.198   5.815  20.363  0.00  0.00    +0.000 OA
ATOM     33  H   UNL     1       2.860   6.444  19.702  0.00  0.00    +0.000 HD
ENDBRANCH  31  32
ENDBRANCH  25  26
ENDBRANCH  22  25
ENDBRANCH  20  23
ENDBRANCH   1  20
TORSDOF 7
ENDMDL
MODEL 8
REMARK VINA RESULT:      -8.5      0.813      1.510
REMARK  Name = 
REMARK  7 active torsions:
REMARK  status: ('A' for Active; 'I' for Inactive)
REMARK    1  A    between atoms: C_2  and  C_3
REMARK    2  A    between atoms: C_3  and  C_4
REMARK    3  A    between atoms: C_9  and  O_10
REMARK    4  A    between atoms: N_11  and  C_12
REMARK    5  A    between atoms: C_12  and  C_13
REMARK    6  A    between atoms: C_16  and  C_17
REMARK    7  A    between atoms: C_19  and  C_20
REMARK                            x       y       z     vdW  Elec       q    Type
REMARK                         _______ _______ _______ _____ _____    ______ ____
ROOT
ATOM      1  C   UNL     1       2.638   7.421  18.289  0.00  0.00    +0.000 A 
ATOM      2  C   UNL     1       2.385   7.039  19.613  0.00  0.00    +0.000 A 
ATOM      3  C   UNL     1       1.666   7.881  20.468  0.00  0.00    +0.000 A 
ATOM      4  C   UNL     1       1.176   9.116  20.016  0.00  0.00    +0.000 A 
ATOM      5  C   UNL     1       1.442   9.497  18.694  0.00  0.00    +0.000 A 
ATOM      6  C   UNL     1       2.160   8.656  17.838  0.00  0.00    +0.000 A 
ENDROOT
BRANCH   4   7
ATOM      7  C   UNL     1       0.389   9.957  20.913  0.00  0.00    +0.000 A 
ATOM      8  N   UNL     1       0.200  11.263  20.877  0.00  0.00    +0.000 NA
ATOM      9  C   UNL     1      -0.622  11.521  21.962  0.00  0.00    +0.000 A 
ATOM     10  C   UNL     1      -0.858  10.338  22.630  0.00  0.00    +0.000 A 
ATOM     11  O   UNL     1      -0.236   9.332  21.962  0.00  0.00    +0.000 OA
BRANCH   9  12
ATOM     12  C   UNL     1      -1.104  12.834  22.392  0.00  0.00    +0.000 C 
ATOM     13  O   UNL     1      -0.550  13.411  23.327  0.00  0.00    +0.000 OA
ATOM     14  N   UNL     1      -2.183  13.407  21.712  0.00  0.00    +0.000 N 
ATOM     15  C   UNL     1      -2.520  14.804  21.962  0.00  0.00    +0.000 C 
ATOM     16  C   UNL     1      -3.918  14.935  22.558  0.00  0.00    +0.000 C 
ATOM     17  C   UNL     1      -4.952  14.225  21.685  0.00  0.00    +0.000 C 
ATOM     18  C   UNL     1      -4.545  12.776  21.433  0.00  0.00    +0.000 C 
ATOM     19  C   UNL     1      -3.131  12.681  20.862  0.00  0.00    +0.000 C 
ENDBRANCH   9  12
ENDBRANCH   4   7
BRANCH   1  20
ATOM     20  C   UNL     1       3.351   6.490  17.346  0.00  0.00    +0.000 C 
BRANCH  20  23
ATOM     21  O   UNL     1       4.814   4.320  16.351  0.00  0.00    +0.000 OA
ATOM     22  C   UNL     1       3.987   4.122  17.239  0.00  0.00    +0.000 C 
ATOM     23  N   UNL     1       3.203   5.119  17.772  0.00  0.00    +0.000 N 
ATOM     24  H   UNL     1       2.700   4.920  18.630  0.00  0.00    +0.000 HD
BRANCH  22  25
ATOM     25  C   UNL     1       3.731   2.747  17.824  0.00  0.00    +0.000 C 
BRANCH  25  26
ATOM     26  C   UNL     1       2.896   2.785  19.079  0.00  0.00    +0.000 A 
ATOM     27  C   UNL     1       3.491   2.523  20.323  0.00  0.00    +0.000 A 
ATOM     28  C   UNL     1       2.730   2.535  21.493  0.00  0.00    +0.000 A 
ATOM     29  C   UNL     1       1.368   2.823  21.437  0.00  0.00    +0.000 A 
ATOM     30  C   UNL     1       0.765   3.103  20.209  0.00  0.00    +0.000 A 
ATOM     31  C   UNL     1       1.531   3.083  19.042  0.00  0.00    +0.000 A 
BRANCH  31  32
ATOM     32  O   UNL     1       0.948   3.354  17.834  0.00  0.00    +0.000 OA
ATOM     33  H   UNL     1       0.958   2.537  17.306  0.00  0.00    +0.000 HD
ENDBRANCH  31  32
ENDBRANCH  25  26
ENDBRANCH  22  25
ENDBRANCH  20  23
ENDBRANCH   1  20
TORSDOF 7
ENDMDL
MODEL 9
REMARK VINA RESULT:      -8.5      1.685      2.073
REMARK  Name = 
REMARK  7 active torsions:
REMARK  status: ('A' for Active; 'I' for Inactive)
REMARK    1  A    between atoms: C_2  and  C_3
REMARK    2  A    between atoms: C_3  and  C_4
REMARK    3  A    between atoms: C_9  and  O_10
REMARK    4  A    between atoms: N_11  and  C_12
REMARK    5  A    between atoms: C_12  and  C_13
REMARK    6  A    between atoms: C_16  and  C_17
REMARK    7  A    between atoms: C_19  and  C_20
REMARK                            x       y       z     vdW  Elec       q    Type
REMARK                         _______ _______ _______ _____ _____    ______ ____
ROOT
ATOM      1  C   UNL     1       3.177   7.271  18.154  0.00  0.00    +0.000 A 
ATOM      2  C   UNL     1       2.845   8.415  17.417  0.00  0.00    +0.000 A 
ATOM      3  C   UNL     1       1.970   9.370  17.946  0.00  0.00    +0.000 A 
ATOM      4  C   UNL     1       1.415   9.206  19.223  0.00  0.00    +0.000 A 
ATOM      5  C   UNL     1       1.741   8.053  19.952  0.00  0.00    +0.000 A 
ATOM      6  C   UNL     1       2.617   7.099  19.425  0.00  0.00    +0.000 A 
ENDROOT
BRANCH   4   7
ATOM      7  C   UNL     1       0.539  10.237  19.773  0.00  0.00    +0.000 A 
ATOM      8  N   UNL     1      -0.779  10.259  19.843  0.00  0.00    +0.000 NA
ATOM      9  C   UNL     1      -1.070  11.470  20.451  0.00  0.00    +0.000 A 
ATOM     10  C   UNL     1       0.110  12.144  20.683  0.00  0.00    +0.000 A 
ATOM     11  O   UNL     1       1.143  11.362  20.274  0.00  0.00    +0.000 OA
BRANCH   9  12
ATOM     12  C   UNL     1      -2.405  11.999  20.732  0.00  0.00    +0.000 C 
ATOM     13  O   UNL     1      -2.739  12.225  21.895  0.00  0.00    +0.000 OA
ATOM     14  N   UNL     1      -3.266  12.247  19.660  0.00  0.00    +0.000 N 
ATOM     15  C   UNL     1      -4.498  12.995  19.895  0.00  0.00    +0.000 C 
ATOM     16  C   UNL     1      -5.725  12.143  19.586  0.00  0.00    +0.000 C 
ATOM     17  C   UNL     1      -5.647  11.564  18.174  0.00  0.00    +0.000 C 
ATOM     18  C   UNL     1      -4.334  10.813  17.969  0.00  0.00    +0.000 C 
ATOM     19  C   UNL     1      -3.128  11.686  18.314  0.00  0.00    +0.000 C 
ENDBRANCH   9  12
ENDBRANCH   4   7
BRANCH   1  20
ATOM     20  C   UNL     1       4.171   6.276  17.618  0.00  0.00    +0.000 C 
BRANCH  20  23
ATOM     21  O   UNL     1       4.590   3.982  16.070  0.00  0.00    +0.000 OA
ATOM     22  C   UNL     1       4.078   3.863  17.181  0.00  0.00    +0.000 C 
ATOM     23  N   UNL     1       3.807   4.933  18.002  0.00  0.00    +0.000 N 
ATOM     24  H   UNL     1       3.578   4.742  18.972  0.00  0.00    +0.000 HD
BRANCH  22  25
ATOM     25  C   UNL     1       3.667   2.520  17.752  0.00  0.00    +0.000 C 
BRANCH  25  26
ATOM     26  C   UNL     1       2.867   2.638  19.024  0.00  0.00    +0.000 A 
ATOM     27  C   UNL     1       1.487   2.887  18.961  0.00  0.00    +0.000 A 
ATOM     28  C   UNL     1       0.733   3.019  20.129  0.00  0.00    +0.000 A 
ATOM     29  C   UNL     1       1.346   2.890  21.373  0.00  0.00    +0.000 A 
ATOM     30  C   UNL     1       2.715   2.625  21.452  0.00  0.00    +0.000 A 
ATOM     31  C   UNL     1       3.463   2.500  20.281  0.00  0.00    +0.000 A 
BRANCH  31  32
ATOM     32  O   UNL     1       4.805   2.243  20.348  0.00  0.00    +0.000 OA
ATOM     33  H   UNL     1       4.957   1.345  20.005  0.00  0.00    +0.000 HD
ENDBRANCH  31  32
ENDBRANCH  25  26
ENDBRANCH  22  25
ENDBRANCH  20  23
ENDBRANCH   1  20
TORSDOF 7
ENDMDL
