MODEL 1
REMARK VINA RESULT:      -7.6      0.000      0.000
REMARK  Name = 
REMARK  6 active torsions:
REMARK  status: ('A' for Active; 'I' for Inactive)
REMARK    1  A    between atoms: C_1  and  O_2
REMARK    2  A    between atoms: O_2  and  C_3
REMARK    3  A    between atoms: C_6  and  C_7
REMARK    4  A    between atoms: N_11  and  C_12
REMARK    5  A    between atoms: C_15  and  O_16
REMARK    6  A    between atoms: O_16  and  C_17
REMARK                            x       y       z     vdW  Elec       q    Type
REMARK                         _______ _______ _______ _____ _____    ______ ____
ROOT
ATOM      1  C   UNL     1       2.698   4.873  20.227  0.00  0.00    +0.000 A 
ATOM      2  N   UNL     1       2.053   4.312  21.240  0.00  0.00    +0.000 NA
ATOM      3  C   UNL     1       2.453   3.008  21.276  0.00  0.00    +0.000 A 
ATOM      4  C   UNL     1       3.385   2.760  20.299  0.00  0.00    +0.000 A 
ATOM      5  N   UNL     1       3.637   3.974  19.698  0.00  0.00    +0.000 N 
ENDROOT
BRANCH   1   9
ATOM      6  C   UNL     1       1.797   8.801  18.739  0.00  0.00    +0.000 A 
ATOM      7  C   UNL     1       1.523   8.460  20.065  0.00  0.00    +0.000 A 
ATOM      8  C   UNL     1       1.819   7.180  20.550  0.00  0.00    +0.000 A 
ATOM      9  C   UNL     1       2.376   6.212  19.706  0.00  0.00    +0.000 A 
ATOM     10  C   UNL     1       2.576   6.546  18.358  0.00  0.00    +0.000 A 
ATOM     11  C   UNL     1       2.323   7.837  17.885  0.00  0.00    +0.000 A 
BRANCH   6  13
ATOM     12  C   UNL     1       0.114  10.463  18.624  0.00  0.00    +0.000 C 
ATOM     13  O   UNL     1       1.462  10.076  18.375  0.00  0.00    +0.000 OA
ENDBRANCH   6  13
ENDBRANCH   1   9
BRANCH   5  14
ATOM     14  C   UNL     1       4.663   4.213  18.736  0.00  0.00    +0.000 A 
ATOM     15  C   UNL     1       4.520   3.759  17.422  0.00  0.00    +0.000 A 
ATOM     16  C   UNL     1       5.494   4.073  16.468  0.00  0.00    +0.000 A 
ATOM     17  C   UNL     1       6.609   4.841  16.810  0.00  0.00    +0.000 A 
ATOM     18  C   UNL     1       6.777   5.250  18.132  0.00  0.00    +0.000 A 
ATOM     19  C   UNL     1       5.821   4.921  19.097  0.00  0.00    +0.000 A 
BRANCH  17  20
ATOM     20  O   UNL     1       7.486   5.092  15.793  0.00  0.00    +0.000 OA
ATOM     21  C   UNL     1       7.014   4.801  14.480  0.00  0.00    +0.000 C 
ENDBRANCH  17  20
ENDBRANCH   5  14
TORSDOF 4
ENDMDL
MODEL 2
REMARK VINA RESULT:      -7.5      0.272      1.086
REMARK  Name = 
REMARK  6 active torsions:
REMARK  status: ('A' for Active; 'I' for Inactive)
REMARK    1  A    between atoms: C_1  and  O_2
REMARK    2  A    between atoms: O_2  and  C_3
REMARK    3  A    between atoms: C_6  and  C_7
REMARK    4  A    between atoms: N_11  and  C_12
REMARK    5  A    between atoms: C_15  and  O_16
REMARK    6  A    between atoms: O_16  and  C_17
REMARK                            x       y       z     vdW  Elec       q    Type
REMARK                         _______ _______ _______ _____ _____    ______ ____
ROOT
ATOM      1  C   UNL     1       2.653   4.918  20.235  0.00  0.00    +0.000 A 
ATOM      2  N   UNL     1       2.062   4.357  21.280  0.00  0.00    +0.000 NA
ATOM      3  C   UNL     1       2.441   3.047  21.281  0.00  0.00    +0.000 A 
ATOM      4  C   UNL     1       3.308   2.794  20.247  0.00  0.00    +0.000 A 
ATOM      5  N   UNL     1       3.544   4.010  19.642  0.00  0.00    +0.000 N 
ENDROOT
BRANCH   1   9
ATOM      6  C   UNL     1       1.726   8.875  18.842  0.00  0.00    +0.000 A 
ATOM      7  C   UNL     1       1.470   8.506  20.164  0.00  0.00    +0.000 A 
ATOM      8  C   UNL     1       1.775   7.216  20.617  0.00  0.00    +0.000 A 
ATOM      9  C   UNL     1       2.322   6.267  19.746  0.00  0.00    +0.000 A 
ATOM     10  C   UNL     1       2.504   6.630  18.403  0.00  0.00    +0.000 A 
ATOM     11  C   UNL     1       2.242   7.929  17.961  0.00  0.00    +0.000 A 
BRANCH   6  13
ATOM     12  C   UNL     1       0.429  10.788  19.355  0.00  0.00    +0.000 C 
ATOM     13  O   UNL     1       1.384  10.156  18.509  0.00  0.00    +0.000 OA
ENDBRANCH   6  13
ENDBRANCH   1   9
BRANCH   5  14
ATOM     14  C   UNL     1       4.513   4.241  18.622  0.00  0.00    +0.000 A 
ATOM     15  C   UNL     1       5.727   4.862  18.927  0.00  0.00    +0.000 A 
ATOM     16  C   UNL     1       6.703   5.005  17.934  0.00  0.00    +0.000 A 
ATOM     17  C   UNL     1       6.482   4.532  16.639  0.00  0.00    +0.000 A 
ATOM     18  C   UNL     1       5.252   3.960  16.323  0.00  0.00    +0.000 A 
ATOM     19  C   UNL     1       4.262   3.834  17.301  0.00  0.00    +0.000 A 
BRANCH  17  20
ATOM     20  O   UNL     1       7.511   4.720  15.760  0.00  0.00    +0.000 OA
ATOM     21  C   UNL     1       7.142   4.827  14.387  0.00  0.00    +0.000 C 
ENDBRANCH  17  20
ENDBRANCH   5  14
TORSDOF 4
ENDMDL
MODEL 3
REMARK VINA RESULT:      -7.4      0.206      1.499
REMARK  Name = 
REMARK  6 active torsions:
REMARK  status: ('A' for Active; 'I' for Inactive)
REMARK    1  A    between atoms: C_1  and  O_2
REMARK    2  A    between atoms: O_2  and  C_3
REMARK    3  A    between atoms: C_6  and  C_7
REMARK    4  A    between atoms: N_11  and  C_12
REMARK    5  A    between atoms: C_15  and  O_16
REMARK    6  A    between atoms: O_16  and  C_17
REMARK                            x       y       z     vdW  Elec       q    Type
REMARK                         _______ _______ _______ _____ _____    ______ ____
ROOT
ATOM      1  C   UNL     1       2.628   4.893  20.288  0.00  0.00    +0.000 A 
ATOM      2  N   UNL     1       2.037   4.318  21.325  0.00  0.00    +0.000 NA
ATOM      3  C   UNL     1       2.410   3.006  21.303  0.00  0.00    +0.000 A 
ATOM      4  C   UNL     1       3.274   2.767  20.263  0.00  0.00    +0.000 A 
ATOM      5  N   UNL     1       3.514   3.991  19.678  0.00  0.00    +0.000 N 
ENDROOT
BRANCH   1   9
ATOM      6  C   UNL     1       1.638   8.834  18.894  0.00  0.00    +0.000 A 
ATOM      7  C   UNL     1       2.240   7.907  18.042  0.00  0.00    +0.000 A 
ATOM      8  C   UNL     1       2.560   6.621  18.497  0.00  0.00    +0.000 A 
ATOM      9  C   UNL     1       2.302   6.252  19.822  0.00  0.00    +0.000 A 
ATOM     10  C   UNL     1       1.765   7.218  20.686  0.00  0.00    +0.000 A 
ATOM     11  C   UNL     1       1.404   8.486  20.221  0.00  0.00    +0.000 A 
BRANCH   6  13
ATOM     12  C   UNL     1       0.097  10.613  18.636  0.00  0.00    +0.000 C 
ATOM     13  O   UNL     1       1.375  10.058  18.344  0.00  0.00    +0.000 OA
ENDBRANCH   6  13
ENDBRANCH   1   9
BRANCH   5  14
ATOM     14  C   UNL     1       4.482   4.235  18.660  0.00  0.00    +0.000 A 
ATOM     15  C   UNL     1       5.694   4.858  18.970  0.00  0.00    +0.000 A 
ATOM     16  C   UNL     1       6.669   5.014  17.979  0.00  0.00    +0.000 A 
ATOM     17  C   UNL     1       6.450   4.550  16.680  0.00  0.00    +0.000 A 
ATOM     18  C   UNL     1       5.222   3.976  16.359  0.00  0.00    +0.000 A 
ATOM     19  C   UNL     1       4.233   3.837  17.336  0.00  0.00    +0.000 A 
BRANCH  17  20
ATOM     20  O   UNL     1       7.478   4.750  15.802  0.00  0.00    +0.000 OA
ATOM     21  C   UNL     1       7.116   4.810  14.425  0.00  0.00    +0.000 C 
ENDBRANCH  17  20
ENDBRANCH   5  14
TORSDOF 4
ENDMDL
MODEL 4
REMARK VINA RESULT:      -7.4      0.672      5.679
REMARK  Name = 
REMARK  6 active torsions:
REMARK  status: ('A' for Active; 'I' for Inactive)
REMARK    1  A    between atoms: C_1  and  O_2
REMARK    2  A    between atoms: O_2  and  C_3
REMARK    3  A    between atoms: C_6  and  C_7
REMARK    4  A    between atoms: N_11  and  C_12
REMARK    5  A    between atoms: C_15  and  O_16
REMARK    6  A    between atoms: O_16  and  C_17
REMARK                            x       y       z     vdW  Elec       q    Type
REMARK                         _______ _______ _______ _____ _____    ______ ____
ROOT
ATOM      1  C   UNL     1       3.522   3.958  19.517  0.00  0.00    +0.000 A 
ATOM      2  N   UNL     1       3.309   2.790  20.107  0.00  0.00    +0.000 NA
ATOM      3  C   UNL     1       2.430   3.027  21.123  0.00  0.00    +0.000 A 
ATOM      4  C   UNL     1       2.061   4.349  21.145  0.00  0.00    +0.000 A 
ATOM      5  N   UNL     1       2.662   4.930  20.050  0.00  0.00    +0.000 N 
ENDROOT
BRANCH   1   9
ATOM      6  C   UNL     1       6.586   4.636  16.583  0.00  0.00    +0.000 A 
ATOM      7  C   UNL     1       5.405   3.975  16.241  0.00  0.00    +0.000 A 
ATOM      8  C   UNL     1       4.406   3.756  17.198  0.00  0.00    +0.000 A 
ATOM      9  C   UNL     1       4.585   4.178  18.521  0.00  0.00    +0.000 A 
ATOM     10  C   UNL     1       5.806   4.776  18.865  0.00  0.00    +0.000 A 
ATOM     11  C   UNL     1       6.785   5.034  17.902  0.00  0.00    +0.000 A 
BRANCH   6  13
ATOM     12  C   UNL     1       6.966   4.748  14.248  0.00  0.00    +0.000 C 
ATOM     13  O   UNL     1       7.493   4.790  15.570  0.00  0.00    +0.000 OA
ENDBRANCH   6  13
ENDBRANCH   1   9
BRANCH   5  14
ATOM     14  C   UNL     1       2.420   6.259  19.594  0.00  0.00    +0.000 A 
ATOM     15  C   UNL     1       2.677   6.610  18.266  0.00  0.00    +0.000 A 
ATOM     16  C   UNL     1       2.355   7.893  17.811  0.00  0.00    +0.000 A 
ATOM     17  C   UNL     1       1.772   8.831  18.666  0.00  0.00    +0.000 A 
ATOM     18  C   UNL     1       1.563   8.498  20.002  0.00  0.00    +0.000 A 
ATOM     19  C   UNL     1       1.904   7.226  20.472  0.00  0.00    +0.000 A 
BRANCH  17  20
ATOM     20  O   UNL     1       1.493  10.046  18.106  0.00  0.00    +0.000 OA
ATOM     21  C   UNL     1       1.093  11.070  19.012  0.00  0.00    +0.000 C 
ENDBRANCH  17  20
ENDBRANCH   5  14
TORSDOF 4
ENDMDL
MODEL 5
REMARK VINA RESULT:      -7.4      0.341      1.103
REMARK  Name = 
REMARK  6 active torsions:
REMARK  status: ('A' for Active; 'I' for Inactive)
REMARK    1  A    between atoms: C_1  and  O_2
REMARK    2  A    between atoms: O_2  and  C_3
REMARK    3  A    between atoms: C_6  and  C_7
REMARK    4  A    between atoms: N_11  and  C_12
REMARK    5  A    between atoms: C_15  and  O_16
REMARK    6  A    between atoms: O_16  and  C_17
REMARK                            x       y       z     vdW  Elec       q    Type
REMARK                         _______ _______ _______ _____ _____    ______ ____
ROOT
ATOM      1  C   UNL     1       2.708   4.921  20.060  0.00  0.00    +0.000 A 
ATOM      2  N   UNL     1       2.087   4.311  21.060  0.00  0.00    +0.000 NA
ATOM      3  C   UNL     1       2.488   3.008  21.025  0.00  0.00    +0.000 A 
ATOM      4  C   UNL     1       3.398   2.809  20.016  0.00  0.00    +0.000 A 
ATOM      5  N   UNL     1       3.636   4.051  19.467  0.00  0.00    +0.000 N 
ENDROOT
BRANCH   1   9
ATOM      6  C   UNL     1       1.691   8.872  18.713  0.00  0.00    +0.000 A 
ATOM      7  C   UNL     1       2.295   7.957  17.848  0.00  0.00    +0.000 A 
ATOM      8  C   UNL     1       2.624   6.668  18.288  0.00  0.00    +0.000 A 
ATOM      9  C   UNL     1       2.373   6.283  19.610  0.00  0.00    +0.000 A 
ATOM     10  C   UNL     1       1.833   7.237  20.486  0.00  0.00    +0.000 A 
ATOM     11  C   UNL     1       1.464   8.507  20.036  0.00  0.00    +0.000 A 
BRANCH   6  13
ATOM     12  C   UNL     1       0.925  11.082  19.083  0.00  0.00    +0.000 C 
ATOM     13  O   UNL     1       1.419  10.100  18.177  0.00  0.00    +0.000 OA
ENDBRANCH   6  13
ENDBRANCH   1   9
BRANCH   5  14
ATOM     14  C   UNL     1       4.639   4.336  18.495  0.00  0.00    +0.000 A 
ATOM     15  C   UNL     1       4.446   3.987  17.155  0.00  0.00    +0.000 A 
ATOM     16  C   UNL     1       5.400   4.350  16.199  0.00  0.00    +0.000 A 
ATOM     17  C   UNL     1       6.545   5.062  16.563  0.00  0.00    +0.000 A 
ATOM     18  C   UNL     1       6.762   5.364  17.905  0.00  0.00    +0.000 A 
ATOM     19  C   UNL     1       5.826   4.986  18.872  0.00  0.00    +0.000 A 
BRANCH  17  20
ATOM     20  O   UNL     1       7.399   5.368  15.540  0.00  0.00    +0.000 OA
ATOM     21  C   UNL     1       7.089   4.784  14.278  0.00  0.00    +0.000 C 
ENDBRANCH  17  20
ENDBRANCH   5  14
TORSDOF 4
ENDMDL
MODEL 6
REMARK VINA RESULT:      -7.4      0.667      5.684
REMARK  Name = 
REMARK  6 active torsions:
REMARK  status: ('A' for Active; 'I' for Inactive)
REMARK    1  A    between atoms: C_1  and  O_2
REMARK    2  A    between atoms: O_2  and  C_3
REMARK    3  A    between atoms: C_6  and  C_7
REMARK    4  A    between atoms: N_11  and  C_12
REMARK    5  A    between atoms: C_15  and  O_16
REMARK    6  A    between atoms: O_16  and  C_17
REMARK                            x       y       z     vdW  Elec       q    Type
REMARK                         _______ _______ _______ _____ _____    ______ ____
ROOT
ATOM      1  C   UNL     1       3.534   3.792  19.614  0.00  0.00    +0.000 A 
ATOM      2  N   UNL     1       3.408   2.620  20.218  0.00  0.00    +0.000 NA
ATOM      3  C   UNL     1       2.567   2.819  21.273  0.00  0.00    +0.000 A 
ATOM      4  C   UNL     1       2.133   4.121  21.307  0.00  0.00    +0.000 A 
ATOM      5  N   UNL     1       2.651   4.724  20.182  0.00  0.00    +0.000 N 
ENDROOT
BRANCH   1   9
ATOM      6  C   UNL     1       6.491   4.535  16.586  0.00  0.00    +0.000 A 
ATOM      7  C   UNL     1       6.702   4.943  17.905  0.00  0.00    +0.000 A 
ATOM      8  C   UNL     1       5.738   4.698  18.891  0.00  0.00    +0.000 A 
ATOM      9  C   UNL     1       4.536   4.059  18.567  0.00  0.00    +0.000 A 
ATOM     10  C   UNL     1       4.307   3.722  17.225  0.00  0.00    +0.000 A 
ATOM     11  C   UNL     1       5.286   3.926  16.249  0.00  0.00    +0.000 A 
BRANCH   6  13
ATOM     12  C   UNL     1       7.141   4.834  14.329  0.00  0.00    +0.000 C 
ATOM     13  O   UNL     1       7.496   4.831  15.708  0.00  0.00    +0.000 OA
ENDBRANCH   6  13
ENDBRANCH   1   9
BRANCH   5  14
ATOM     14  C   UNL     1       2.321   6.036  19.731  0.00  0.00    +0.000 A 
ATOM     15  C   UNL     1       1.803   6.981  20.622  0.00  0.00    +0.000 A 
ATOM     16  C   UNL     1       1.563   8.288  20.186  0.00  0.00    +0.000 A 
ATOM     17  C   UNL     1       1.840   8.666  18.870  0.00  0.00    +0.000 A 
ATOM     18  C   UNL     1       2.307   7.712  17.970  0.00  0.00    +0.000 A 
ATOM     19  C   UNL     1       2.527   6.397  18.390  0.00  0.00    +0.000 A 
BRANCH  17  20
ATOM     20  O   UNL     1       1.574   9.972  18.565  0.00  0.00    +0.000 OA
ATOM     21  C   UNL     1       0.873  10.712  19.561  0.00  0.00    +0.000 C 
ENDBRANCH  17  20
ENDBRANCH   5  14
TORSDOF 4
ENDMDL
MODEL 7
REMARK VINA RESULT:      -7.3      0.608      5.731
REMARK  Name = 
REMARK  6 active torsions:
REMARK  status: ('A' for Active; 'I' for Inactive)
REMARK    1  A    between atoms: C_1  and  O_2
REMARK    2  A    between atoms: O_2  and  C_3
REMARK    3  A    between atoms: C_6  and  C_7
REMARK    4  A    between atoms: N_11  and  C_12
REMARK    5  A    between atoms: C_15  and  O_16
REMARK    6  A    between atoms: O_16  and  C_17
REMARK                            x       y       z     vdW  Elec       q    Type
REMARK                         _______ _______ _______ _____ _____    ______ ____
ROOT
ATOM      1  C   UNL     1       3.690   3.975  19.458  0.00  0.00    +0.000 A 
ATOM      2  N   UNL     1       3.611   2.765  19.995  0.00  0.00    +0.000 NA
ATOM      3  C   UNL     1       2.733   2.863  21.034  0.00  0.00    +0.000 A 
ATOM      4  C   UNL     1       2.229   4.136  21.125  0.00  0.00    +0.000 A 
ATOM      5  N   UNL     1       2.744   4.827  20.048  0.00  0.00    +0.000 N 
ENDROOT
BRANCH   1   9
ATOM      6  C   UNL     1       6.607   5.102  16.512  0.00  0.00    +0.000 A 
ATOM      7  C   UNL     1       5.497   4.333  16.158  0.00  0.00    +0.000 A 
ATOM      8  C   UNL     1       4.546   3.968  17.119  0.00  0.00    +0.000 A 
ATOM      9  C   UNL     1       4.703   4.350  18.457  0.00  0.00    +0.000 A 
ATOM     10  C   UNL     1       5.862   5.059  18.810  0.00  0.00    +0.000 A 
ATOM     11  C   UNL     1       6.788   5.462  17.844  0.00  0.00    +0.000 A 
BRANCH   6  13
ATOM     12  C   UNL     1       7.119   4.892  14.209  0.00  0.00    +0.000 C 
ATOM     13  O   UNL     1       7.472   5.395  15.494  0.00  0.00    +0.000 OA
ENDBRANCH   6  13
ENDBRANCH   1   9
BRANCH   5  14
ATOM     14  C   UNL     1       2.356   6.142  19.659  0.00  0.00    +0.000 A 
ATOM     15  C   UNL     1       1.829   7.032  20.599  0.00  0.00    +0.000 A 
ATOM     16  C   UNL     1       1.533   8.346  20.222  0.00  0.00    +0.000 A 
ATOM     17  C   UNL     1       1.760   8.785  18.916  0.00  0.00    +0.000 A 
ATOM     18  C   UNL     1       2.236   7.884  17.967  0.00  0.00    +0.000 A 
ATOM     19  C   UNL     1       2.514   6.562  18.328  0.00  0.00    +0.000 A 
BRANCH  17  20
ATOM     20  O   UNL     1       1.441  10.091  18.670  0.00  0.00    +0.000 OA
ATOM     21  C   UNL     1       0.081  10.451  18.897  0.00  0.00    +0.000 C 
ENDBRANCH  17  20
ENDBRANCH   5  14
TORSDOF 4
ENDMDL
MODEL 8
REMARK VINA RESULT:      -7.3      0.648      5.631
REMARK  Name = 
REMARK  6 active torsions:
REMARK  status: ('A' for Active; 'I' for Inactive)
REMARK    1  A    between atoms: C_1  and  O_2
REMARK    2  A    between atoms: O_2  and  C_3
REMARK    3  A    between atoms: C_6  and  C_7
REMARK    4  A    between atoms: N_11  and  C_12
REMARK    5  A    between atoms: C_15  and  O_16
REMARK    6  A    between atoms: O_16  and  C_17
REMARK                            x       y       z     vdW  Elec       q    Type
REMARK                         _______ _______ _______ _____ _____    ______ ____
ROOT
ATOM      1  C   UNL     1       3.470   3.800  19.492  0.00  0.00    +0.000 A 
ATOM      2  N   UNL     1       3.289   2.600  20.026  0.00  0.00    +0.000 NA
ATOM      3  C   UNL     1       2.463   2.776  21.097  0.00  0.00    +0.000 A 
ATOM      4  C   UNL     1       2.094   4.093  21.212  0.00  0.00    +0.000 A 
ATOM      5  N   UNL     1       2.636   4.737  20.121  0.00  0.00    +0.000 N 
ENDROOT
BRANCH   1   9
ATOM      6  C   UNL     1       6.447   4.578  16.494  0.00  0.00    +0.000 A 
ATOM      7  C   UNL     1       6.681   4.900  17.832  0.00  0.00    +0.000 A 
ATOM      8  C   UNL     1       5.711   4.644  18.809  0.00  0.00    +0.000 A 
ATOM      9  C   UNL     1       4.479   4.080  18.457  0.00  0.00    +0.000 A 
ATOM     10  C   UNL     1       4.231   3.830  17.098  0.00  0.00    +0.000 A 
ATOM     11  C   UNL     1       5.215   4.044  16.130  0.00  0.00    +0.000 A 
BRANCH   6  13
ATOM     12  C   UNL     1       7.133   4.842  14.243  0.00  0.00    +0.000 C 
ATOM     13  O   UNL     1       7.462   4.877  15.628  0.00  0.00    +0.000 OA
ENDBRANCH   6  13
ENDBRANCH   1   9
BRANCH   5  14
ATOM     14  C   UNL     1       2.369   6.088  19.753  0.00  0.00    +0.000 A 
ATOM     15  C   UNL     1       2.570   6.517  18.438  0.00  0.00    +0.000 A 
ATOM     16  C   UNL     1       2.222   7.821  18.071  0.00  0.00    +0.000 A 
ATOM     17  C   UNL     1       1.672   8.704  19.002  0.00  0.00    +0.000 A 
ATOM     18  C   UNL     1       1.520   8.294  20.324  0.00  0.00    +0.000 A 
ATOM     19  C   UNL     1       1.886   7.000  20.706  0.00  0.00    +0.000 A 
BRANCH  17  20
ATOM     20  O   UNL     1       1.364   9.947  18.525  0.00  0.00    +0.000 OA
ATOM     21  C   UNL     1      -0.021  10.202  18.304  0.00  0.00    +0.000 C 
ENDBRANCH  17  20
ENDBRANCH   5  14
TORSDOF 4
ENDMDL
MODEL 9
REMARK VINA RESULT:      -7.1      1.686      2.181
REMARK  Name = 
REMARK  6 active torsions:
REMARK  status: ('A' for Active; 'I' for Inactive)
REMARK    1  A    between atoms: C_1  and  O_2
REMARK    2  A    between atoms: O_2  and  C_3
REMARK    3  A    between atoms: C_6  and  C_7
REMARK    4  A    between atoms: N_11  and  C_12
REMARK    5  A    between atoms: C_15  and  O_16
REMARK    6  A    between atoms: O_16  and  C_17
REMARK                            x       y       z     vdW  Elec       q    Type
REMARK                         _______ _______ _______ _____ _____    ______ ____
ROOT
ATOM      1  C   UNL     1       2.668   4.186  19.017  0.00  0.00    +0.000 A 
ATOM      2  N   UNL     1       1.960   3.093  19.264  0.00  0.00    +0.000 NA
ATOM      3  C   UNL     1       2.510   2.099  18.510  0.00  0.00    +0.000 A 
ATOM      4  C   UNL     1       3.597   2.565  17.813  0.00  0.00    +0.000 A 
ATOM      5  N   UNL     1       3.779   3.869  18.220  0.00  0.00    +0.000 N 
ENDROOT
BRANCH   1   9
ATOM      6  C   UNL     1       1.513   8.109  20.334  0.00  0.00    +0.000 A 
ATOM      7  C   UNL     1       1.300   6.993  21.145  0.00  0.00    +0.000 A 
ATOM      8  C   UNL     1       1.679   5.715  20.716  0.00  0.00    +0.000 A 
ATOM      9  C   UNL     1       2.259   5.531  19.455  0.00  0.00    +0.000 A 
ATOM     10  C   UNL     1       2.398   6.652  18.622  0.00  0.00    +0.000 A 
ATOM     11  C   UNL     1       2.062   7.933  19.067  0.00  0.00    +0.000 A 
BRANCH   6  13
ATOM     12  C   UNL     1       0.778   9.306  22.240  0.00  0.00    +0.000 C 
ATOM     13  O   UNL     1       1.099   9.304  20.853  0.00  0.00    +0.000 OA
ENDBRANCH   6  13
ENDBRANCH   1   9
BRANCH   5  14
ATOM     14  C   UNL     1       4.894   4.686  17.871  0.00  0.00    +0.000 A 
ATOM     15  C   UNL     1       4.986   5.252  16.596  0.00  0.00    +0.000 A 
ATOM     16  C   UNL     1       6.041   6.120  16.295  0.00  0.00    +0.000 A 
ATOM     17  C   UNL     1       7.005   6.435  17.255  0.00  0.00    +0.000 A 
ATOM     18  C   UNL     1       6.942   5.831  18.508  0.00  0.00    +0.000 A 
ATOM     19  C   UNL     1       5.905   4.944  18.811  0.00  0.00    +0.000 A 
BRANCH  17  20
ATOM     20  O   UNL     1       7.981   7.301  16.847  0.00  0.00    +0.000 OA
ATOM     21  C   UNL     1       8.113   8.493  17.617  0.00  0.00    +0.000 C 
ENDBRANCH  17  20
ENDBRANCH   5  14
TORSDOF 4
ENDMDL
