MODEL 1
REMARK VINA RESULT:      -8.1      0.000      0.000
REMARK  Name = 
REMARK  5 active torsions:
REMARK  status: ('A' for Active; 'I' for Inactive)
REMARK    1  A    between atoms: C_1  and  C_17
REMARK    2  A    between atoms: C_2  and  C_3
REMARK    3  A    between atoms: N_7  and  C_8
REMARK    4  A    between atoms: C_8  and  C_9
REMARK    5  A    between atoms: C_9  and  C_10
REMARK                            x       y       z     vdW  Elec       q    Type
REMARK                         _______ _______ _______ _____ _____    ______ ____
ROOT
ATOM      1  C   UNL     1       1.330   4.365  19.092  0.00  0.00    +0.000 C 
ATOM      2  C   UNL     1       0.873   2.946  19.456  0.00  0.00    +0.000 C 
ATOM      3  C   UNL     1       2.017   1.931  19.371  0.00  0.00    +0.000 C 
ATOM      4  C   UNL     1       2.858   2.059  18.089  0.00  0.00    +0.000 C 
ATOM      5  N   UNL     1       3.258   3.454  17.825  0.00  0.00    +0.000 NA
ATOM      6  C   UNL     1       2.051   4.297  17.715  0.00  0.00    +0.000 C 
ENDROOT
BRANCH   1   8
ATOM      7  C   UNL     1       2.647   6.200  20.388  0.00  0.00    +0.000 C 
ATOM      8  C   UNL     1       2.272   4.939  20.134  0.00  0.00    +0.000 C 
BRANCH   7   9
ATOM      9  C   UNL     1       2.181   7.427  19.767  0.00  0.00    +0.000 A 
ATOM     10  C   UNL     1       2.420   7.644  18.411  0.00  0.00    +0.000 A 
ATOM     11  C   UNL     1       1.823   8.721  17.747  0.00  0.00    +0.000 A 
ATOM     12  C   UNL     1       0.990   9.588  18.450  0.00  0.00    +0.000 A 
ATOM     13  C   UNL     1       0.776   9.402  19.815  0.00  0.00    +0.000 A 
ATOM     14  C   UNL     1       1.360   8.322  20.472  0.00  0.00    +0.000 A 
ENDBRANCH   7   9
ENDBRANCH   1   8
BRANCH   5  15
ATOM     15  C   UNL     1       4.188   3.580  16.696  0.00  0.00    +0.000 C 
BRANCH  15  16
ATOM     16  C   UNL     1       5.514   4.341  16.995  0.00  0.00    +0.000 C 
BRANCH  16  17
ATOM     17  C   UNL     1       5.392   5.573  17.931  0.00  0.00    +0.000 C 
ATOM     18  C   UNL     1       6.157   5.409  19.250  0.00  0.00    +0.000 C 
ATOM     19  C   UNL     1       7.666   5.513  19.044  0.00  0.00    +0.000 C 
ATOM     20  C   UNL     1       8.024   6.904  18.546  0.00  0.00    +0.000 C 
ATOM     21  C   UNL     1       7.292   7.257  17.258  0.00  0.00    +0.000 C 
ATOM     22  C   UNL     1       5.798   6.902  17.249  0.00  0.00    +0.000 C 
ENDBRANCH  16  17
ENDBRANCH  15  16
ENDBRANCH   5  15
TORSDOF 5
ENDMDL
MODEL 2
REMARK VINA RESULT:      -7.8      0.370      1.094
REMARK  Name = 
REMARK  5 active torsions:
REMARK  status: ('A' for Active; 'I' for Inactive)
REMARK    1  A    between atoms: C_1  and  C_17
REMARK    2  A    between atoms: C_2  and  C_3
REMARK    3  A    between atoms: N_7  and  C_8
REMARK    4  A    between atoms: C_8  and  C_9
REMARK    5  A    between atoms: C_9  and  C_10
REMARK                            x       y       z     vdW  Elec       q    Type
REMARK                         _______ _______ _______ _____ _____    ______ ____
ROOT
ATOM      1  C   UNL     1       1.398   4.511  19.137  0.00  0.00    +0.000 C 
ATOM      2  C   UNL     1       0.893   3.182  19.712  0.00  0.00    +0.000 C 
ATOM      3  C   UNL     1       2.008   2.136  19.815  0.00  0.00    +0.000 C 
ATOM      4  C   UNL     1       2.875   2.036  18.548  0.00  0.00    +0.000 C 
ATOM      5  N   UNL     1       3.321   3.360  18.075  0.00  0.00    +0.000 NA
ATOM      6  C   UNL     1       2.141   4.206  17.805  0.00  0.00    +0.000 C 
ENDROOT
BRANCH   1   8
ATOM      7  C   UNL     1       2.591   6.521  20.285  0.00  0.00    +0.000 C 
ATOM      8  C   UNL     1       2.338   5.219  20.095  0.00  0.00    +0.000 C 
BRANCH   7   9
ATOM      9  C   UNL     1       1.957   7.669  19.661  0.00  0.00    +0.000 A 
ATOM     10  C   UNL     1       1.217   8.555  20.443  0.00  0.00    +0.000 A 
ATOM     11  C   UNL     1       0.758   9.763  19.908  0.00  0.00    +0.000 A 
ATOM     12  C   UNL     1       1.034  10.078  18.579  0.00  0.00    +0.000 A 
ATOM     13  C   UNL     1       1.740   9.181  17.778  0.00  0.00    +0.000 A 
ATOM     14  C   UNL     1       2.208   7.985  18.316  0.00  0.00    +0.000 A 
ENDBRANCH   7   9
ENDBRANCH   1   8
BRANCH   5  15
ATOM     15  C   UNL     1       4.274   3.280  16.961  0.00  0.00    +0.000 C 
BRANCH  15  16
ATOM     16  C   UNL     1       5.125   4.559  16.707  0.00  0.00    +0.000 C 
BRANCH  16  17
ATOM     17  C   UNL     1       5.162   5.590  17.867  0.00  0.00    +0.000 C 
ATOM     18  C   UNL     1       6.092   5.175  19.015  0.00  0.00    +0.000 C 
ATOM     19  C   UNL     1       7.562   5.315  18.630  0.00  0.00    +0.000 C 
ATOM     20  C   UNL     1       7.889   6.775  18.361  0.00  0.00    +0.000 C 
ATOM     21  C   UNL     1       7.001   7.369  17.274  0.00  0.00    +0.000 C 
ATOM     22  C   UNL     1       5.510   7.024  17.402  0.00  0.00    +0.000 C 
ENDBRANCH  16  17
ENDBRANCH  15  16
ENDBRANCH   5  15
TORSDOF 5
ENDMDL
MODEL 3
REMARK VINA RESULT:      -7.4      0.788      1.364
REMARK  Name = 
REMARK  5 active torsions:
REMARK  status: ('A' for Active; 'I' for Inactive)
REMARK    1  A    between atoms: C_1  and  C_17
REMARK    2  A    between atoms: C_2  and  C_3
REMARK    3  A    between atoms: N_7  and  C_8
REMARK    4  A    between atoms: C_8  and  C_9
REMARK    5  A    between atoms: C_9  and  C_10
REMARK                            x       y       z     vdW  Elec       q    Type
REMARK                         _______ _______ _______ _____ _____    ______ ____
ROOT
ATOM      1  C   UNL     1       1.277   4.213  19.057  0.00  0.00    +0.000 C 
ATOM      2  C   UNL     1       0.747   2.797  19.318  0.00  0.00    +0.000 C 
ATOM      3  C   UNL     1       1.877   1.769  19.428  0.00  0.00    +0.000 C 
ATOM      4  C   UNL     1       2.935   1.898  18.318  0.00  0.00    +0.000 C 
ATOM      5  N   UNL     1       3.390   3.290  18.145  0.00  0.00    +0.000 NA
ATOM      6  C   UNL     1       2.231   4.149  17.830  0.00  0.00    +0.000 C 
ENDROOT
BRANCH   1   8
ATOM      7  C   UNL     1       2.447   6.005  20.540  0.00  0.00    +0.000 C 
ATOM      8  C   UNL     1       2.023   4.766  20.256  0.00  0.00    +0.000 C 
BRANCH   7   9
ATOM      9  C   UNL     1       2.237   7.230  19.788  0.00  0.00    +0.000 A 
ATOM     10  C   UNL     1       2.732   7.332  18.489  0.00  0.00    +0.000 A 
ATOM     11  C   UNL     1       2.383   8.418  17.679  0.00  0.00    +0.000 A 
ATOM     12  C   UNL     1       1.542   9.409  18.178  0.00  0.00    +0.000 A 
ATOM     13  C   UNL     1       1.072   9.335  19.489  0.00  0.00    +0.000 A 
ATOM     14  C   UNL     1       1.409   8.248  20.291  0.00  0.00    +0.000 A 
ENDBRANCH   7   9
ENDBRANCH   1   8
BRANCH   5  15
ATOM     15  C   UNL     1       4.508   3.414  17.201  0.00  0.00    +0.000 C 
BRANCH  15  16
ATOM     16  C   UNL     1       4.595   4.765  16.432  0.00  0.00    +0.000 C 
BRANCH  16  17
ATOM     17  C   UNL     1       6.016   5.198  15.980  0.00  0.00    +0.000 C 
ATOM     18  C   UNL     1       6.238   6.714  16.053  0.00  0.00    +0.000 C 
ATOM     19  C   UNL     1       6.375   7.196  17.494  0.00  0.00    +0.000 C 
ATOM     20  C   UNL     1       7.612   6.582  18.129  0.00  0.00    +0.000 C 
ATOM     21  C   UNL     1       7.581   5.059  18.084  0.00  0.00    +0.000 C 
ATOM     22  C   UNL     1       7.149   4.464  16.737  0.00  0.00    +0.000 C 
ENDBRANCH  16  17
ENDBRANCH  15  16
ENDBRANCH   5  15
TORSDOF 5
ENDMDL
MODEL 4
REMARK VINA RESULT:      -7.3      3.344      5.782
REMARK  Name = 
REMARK  5 active torsions:
REMARK  status: ('A' for Active; 'I' for Inactive)
REMARK    1  A    between atoms: C_1  and  C_17
REMARK    2  A    between atoms: C_2  and  C_3
REMARK    3  A    between atoms: N_7  and  C_8
REMARK    4  A    between atoms: C_8  and  C_9
REMARK    5  A    between atoms: C_9  and  C_10
REMARK                            x       y       z     vdW  Elec       q    Type
REMARK                         _______ _______ _______ _____ _____    ______ ____
ROOT
ATOM      1  C   UNL     1       5.183   4.728  18.002  0.00  0.00    +0.000 C 
ATOM      2  C   UNL     1       6.243   5.433  18.859  0.00  0.00    +0.000 C 
ATOM      3  C   UNL     1       7.053   6.452  18.053  0.00  0.00    +0.000 C 
ATOM      4  C   UNL     1       7.534   5.918  16.693  0.00  0.00    +0.000 C 
ATOM      5  N   UNL     1       6.447   5.266  15.938  0.00  0.00    +0.000 NA
ATOM      6  C   UNL     1       5.890   4.158  16.739  0.00  0.00    +0.000 C 
ENDROOT
BRANCH   1   8
ATOM      7  C   UNL     1       2.761   5.669  17.845  0.00  0.00    +0.000 C 
ATOM      8  C   UNL     1       4.075   5.675  17.584  0.00  0.00    +0.000 C 
BRANCH   7   9
ATOM      9  C   UNL     1       2.010   4.766  18.699  0.00  0.00    +0.000 A 
ATOM     10  C   UNL     1       1.442   3.616  18.151  0.00  0.00    +0.000 A 
ATOM     11  C   UNL     1       0.880   2.637  18.977  0.00  0.00    +0.000 A 
ATOM     12  C   UNL     1       0.879   2.819  20.358  0.00  0.00    +0.000 A 
ATOM     13  C   UNL     1       1.409   3.983  20.913  0.00  0.00    +0.000 A 
ATOM     14  C   UNL     1       1.981   4.950  20.091  0.00  0.00    +0.000 A 
ENDBRANCH   7   9
ENDBRANCH   1   8
BRANCH   5  15
ATOM     15  C   UNL     1       6.844   4.886  14.576  0.00  0.00    +0.000 C 
BRANCH  15  16
ATOM     16  C   UNL     1       5.936   3.830  13.878  0.00  0.00    +0.000 C 
BRANCH  16  17
ATOM     17  C   UNL     1       5.796   3.968  12.338  0.00  0.00    +0.000 C 
ATOM     18  C   UNL     1       7.144   3.952  11.605  0.00  0.00    +0.000 C 
ATOM     19  C   UNL     1       7.759   2.555  11.585  0.00  0.00    +0.000 C 
ATOM     20  C   UNL     1       6.867   1.609  10.799  0.00  0.00    +0.000 C 
ATOM     21  C   UNL     1       5.453   1.553  11.365  0.00  0.00    +0.000 C 
ATOM     22  C   UNL     1       4.845   2.919  11.713  0.00  0.00    +0.000 C 
ENDBRANCH  16  17
ENDBRANCH  15  16
ENDBRANCH   5  15
TORSDOF 5
ENDMDL
MODEL 5
REMARK VINA RESULT:      -7.3      0.933      1.840
REMARK  Name = 
REMARK  5 active torsions:
REMARK  status: ('A' for Active; 'I' for Inactive)
REMARK    1  A    between atoms: C_1  and  C_17
REMARK    2  A    between atoms: C_2  and  C_3
REMARK    3  A    between atoms: N_7  and  C_8
REMARK    4  A    between atoms: C_8  and  C_9
REMARK    5  A    between atoms: C_9  and  C_10
REMARK                            x       y       z     vdW  Elec       q    Type
REMARK                         _______ _______ _______ _____ _____    ______ ____
ROOT
ATOM      1  C   UNL     1       1.331   4.613  19.312  0.00  0.00    +0.000 C 
ATOM      2  C   UNL     1       0.779   3.253  19.759  0.00  0.00    +0.000 C 
ATOM      3  C   UNL     1       1.895   2.268  20.122  0.00  0.00    +0.000 C 
ATOM      4  C   UNL     1       3.037   2.226  19.092  0.00  0.00    +0.000 C 
ATOM      5  N   UNL     1       3.508   3.577  18.731  0.00  0.00    +0.000 NA
ATOM      6  C   UNL     1       2.379   4.360  18.190  0.00  0.00    +0.000 C 
ENDROOT
BRANCH   1   8
ATOM      7  C   UNL     1       2.219   6.668  20.642  0.00  0.00    +0.000 C 
ATOM      8  C   UNL     1       1.982   5.362  20.459  0.00  0.00    +0.000 C 
BRANCH   7   9
ATOM      9  C   UNL     1       1.835   7.787  19.798  0.00  0.00    +0.000 A 
ATOM     10  C   UNL     1       1.062   8.816  20.332  0.00  0.00    +0.000 A 
ATOM     11  C   UNL     1       0.839   9.989  19.603  0.00  0.00    +0.000 A 
ATOM     12  C   UNL     1       1.385  10.124  18.329  0.00  0.00    +0.000 A 
ATOM     13  C   UNL     1       2.127   9.084  17.771  0.00  0.00    +0.000 A 
ATOM     14  C   UNL     1       2.360   7.922  18.502  0.00  0.00    +0.000 A 
ENDBRANCH   7   9
ENDBRANCH   1   8
BRANCH   5  15
ATOM     15  C   UNL     1       4.697   3.557  17.869  0.00  0.00    +0.000 C 
BRANCH  15  16
ATOM     16  C   UNL     1       4.473   4.019  16.399  0.00  0.00    +0.000 C 
BRANCH  16  17
ATOM     17  C   UNL     1       5.641   4.811  15.752  0.00  0.00    +0.000 C 
ATOM     18  C   UNL     1       5.453   6.332  15.823  0.00  0.00    +0.000 C 
ATOM     19  C   UNL     1       5.665   6.862  17.238  0.00  0.00    +0.000 C 
ATOM     20  C   UNL     1       7.102   6.617  17.671  0.00  0.00    +0.000 C 
ATOM     21  C   UNL     1       7.478   5.142  17.599  0.00  0.00    +0.000 C 
ATOM     22  C   UNL     1       7.029   4.426  16.318  0.00  0.00    +0.000 C 
ENDBRANCH  16  17
ENDBRANCH  15  16
ENDBRANCH   5  15
TORSDOF 5
ENDMDL
MODEL 6
REMARK VINA RESULT:      -7.3      1.069      1.785
REMARK  Name = 
REMARK  5 active torsions:
REMARK  status: ('A' for Active; 'I' for Inactive)
REMARK    1  A    between atoms: C_1  and  C_17
REMARK    2  A    between atoms: C_2  and  C_3
REMARK    3  A    between atoms: N_7  and  C_8
REMARK    4  A    between atoms: C_8  and  C_9
REMARK    5  A    between atoms: C_9  and  C_10
REMARK                            x       y       z     vdW  Elec       q    Type
REMARK                         _______ _______ _______ _____ _____    ______ ____
ROOT
ATOM      1  C   UNL     1       1.573   4.504  18.988  0.00  0.00    +0.000 C 
ATOM      2  C   UNL     1       1.012   3.078  19.061  0.00  0.00    +0.000 C 
ATOM      3  C   UNL     1       1.975   2.114  19.761  0.00  0.00    +0.000 C 
ATOM      4  C   UNL     1       3.431   2.242  19.279  0.00  0.00    +0.000 C 
ATOM      5  N   UNL     1       3.884   3.645  19.250  0.00  0.00    +0.000 NA
ATOM      6  C   UNL     1       2.997   4.428  18.367  0.00  0.00    +0.000 C 
ENDROOT
BRANCH   1   8
ATOM      7  C   UNL     1       1.794   6.433  20.723  0.00  0.00    +0.000 C 
ATOM      8  C   UNL     1       1.647   5.152  20.357  0.00  0.00    +0.000 C 
BRANCH   7   9
ATOM      9  C   UNL     1       1.846   7.616  19.882  0.00  0.00    +0.000 A 
ATOM     10  C   UNL     1       2.508   7.558  18.656  0.00  0.00    +0.000 A 
ATOM     11  C   UNL     1       2.413   8.616  17.747  0.00  0.00    +0.000 A 
ATOM     12  C   UNL     1       1.660   9.741  18.074  0.00  0.00    +0.000 A 
ATOM     13  C   UNL     1       1.026   9.825  19.313  0.00  0.00    +0.000 A 
ATOM     14  C   UNL     1       1.110   8.765  20.212  0.00  0.00    +0.000 A 
ENDBRANCH   7   9
ENDBRANCH   1   8
BRANCH   5  15
ATOM     15  C   UNL     1       5.314   3.778  18.943  0.00  0.00    +0.000 C 
BRANCH  15  16
ATOM     16  C   UNL     1       5.909   5.208  19.108  0.00  0.00    +0.000 C 
BRANCH  16  17
ATOM     17  C   UNL     1       6.776   5.722  17.928  0.00  0.00    +0.000 C 
ATOM     18  C   UNL     1       7.173   4.616  16.942  0.00  0.00    +0.000 C 
ATOM     19  C   UNL     1       5.990   4.168  16.089  0.00  0.00    +0.000 C 
ATOM     20  C   UNL     1       5.513   5.321  15.221  0.00  0.00    +0.000 C 
ATOM     21  C   UNL     1       5.132   6.541  16.051  0.00  0.00    +0.000 C 
ATOM     22  C   UNL     1       6.129   6.901  17.161  0.00  0.00    +0.000 C 
ENDBRANCH  16  17
ENDBRANCH  15  16
ENDBRANCH   5  15
TORSDOF 5
ENDMDL
MODEL 7
REMARK VINA RESULT:      -7.2      3.339      6.034
REMARK  Name = 
REMARK  5 active torsions:
REMARK  status: ('A' for Active; 'I' for Inactive)
REMARK    1  A    between atoms: C_1  and  C_17
REMARK    2  A    between atoms: C_2  and  C_3
REMARK    3  A    between atoms: N_7  and  C_8
REMARK    4  A    between atoms: C_8  and  C_9
REMARK    5  A    between atoms: C_9  and  C_10
REMARK                            x       y       z     vdW  Elec       q    Type
REMARK                         _______ _______ _______ _____ _____    ______ ____
ROOT
ATOM      1  C   UNL     1       6.021   5.779  17.074  0.00  0.00    +0.000 C 
ATOM      2  C   UNL     1       6.617   4.829  18.120  0.00  0.00    +0.000 C 
ATOM      3  C   UNL     1       7.246   5.584  19.295  0.00  0.00    +0.000 C 
ATOM      4  C   UNL     1       8.143   6.757  18.862  0.00  0.00    +0.000 C 
ATOM      5  N   UNL     1       7.484   7.619  17.862  0.00  0.00    +0.000 NA
ATOM      6  C   UNL     1       7.118   6.810  16.683  0.00  0.00    +0.000 C 
ENDROOT
BRANCH   1   8
ATOM      7  C   UNL     1       3.646   6.051  18.108  0.00  0.00    +0.000 C 
ATOM      8  C   UNL     1       4.801   6.508  17.604  0.00  0.00    +0.000 C 
BRANCH   7   9
ATOM      9  C   UNL     1       3.253   4.678  18.372  0.00  0.00    +0.000 A 
ATOM     10  C   UNL     1       2.818   3.874  17.320  0.00  0.00    +0.000 A 
ATOM     11  C   UNL     1       2.616   2.502  17.510  0.00  0.00    +0.000 A 
ATOM     12  C   UNL     1       2.841   1.939  18.763  0.00  0.00    +0.000 A 
ATOM     13  C   UNL     1       3.239   2.742  19.831  0.00  0.00    +0.000 A 
ATOM     14  C   UNL     1       3.453   4.104  19.638  0.00  0.00    +0.000 A 
ENDBRANCH   7   9
ENDBRANCH   1   8
BRANCH   5  15
ATOM     15  C   UNL     1       8.258   8.827  17.550  0.00  0.00    +0.000 C 
BRANCH  15  16
ATOM     16  C   UNL     1       8.848   9.586  18.775  0.00  0.00    +0.000 C 
BRANCH  16  17
ATOM     17  C   UNL     1       9.126  11.099  18.565  0.00  0.00    +0.000 C 
ATOM     18  C   UNL     1       9.130  11.900  19.874  0.00  0.00    +0.000 C 
ATOM     19  C   UNL     1      10.380  11.621  20.703  0.00  0.00    +0.000 C 
ATOM     20  C   UNL     1      11.616  12.085  19.948  0.00  0.00    +0.000 C 
ATOM     21  C   UNL     1      11.732  11.424  18.581  0.00  0.00    +0.000 C 
ATOM     22  C   UNL     1      10.427  11.379  17.774  0.00  0.00    +0.000 C 
ENDBRANCH  16  17
ENDBRANCH  15  16
ENDBRANCH   5  15
TORSDOF 5
ENDMDL
MODEL 8
REMARK VINA RESULT:      -7.1      3.077      5.435
REMARK  Name = 
REMARK  5 active torsions:
REMARK  status: ('A' for Active; 'I' for Inactive)
REMARK    1  A    between atoms: C_1  and  C_17
REMARK    2  A    between atoms: C_2  and  C_3
REMARK    3  A    between atoms: N_7  and  C_8
REMARK    4  A    between atoms: C_8  and  C_9
REMARK    5  A    between atoms: C_9  and  C_10
REMARK                            x       y       z     vdW  Elec       q    Type
REMARK                         _______ _______ _______ _____ _____    ______ ____
ROOT
ATOM      1  C   UNL     1       5.166   5.871  17.090  0.00  0.00    +0.000 C 
ATOM      2  C   UNL     1       5.519   4.793  18.122  0.00  0.00    +0.000 C 
ATOM      3  C   UNL     1       6.367   5.348  19.271  0.00  0.00    +0.000 C 
ATOM      4  C   UNL     1       7.531   6.238  18.801  0.00  0.00    +0.000 C 
ATOM      5  N   UNL     1       7.096   7.248  17.818  0.00  0.00    +0.000 NA
ATOM      6  C   UNL     1       6.486   6.571  16.657  0.00  0.00    +0.000 C 
ENDROOT
BRANCH   1   8
ATOM      7  C   UNL     1       3.045   6.761  18.310  0.00  0.00    +0.000 C 
ATOM      8  C   UNL     1       4.205   6.900  17.655  0.00  0.00    +0.000 C 
BRANCH   7   9
ATOM      9  C   UNL     1       2.393   5.540  18.750  0.00  0.00    +0.000 A 
ATOM     10  C   UNL     1       1.869   4.661  17.802  0.00  0.00    +0.000 A 
ATOM     11  C   UNL     1       1.408   3.397  18.184  0.00  0.00    +0.000 A 
ATOM     12  C   UNL     1       1.465   3.017  19.523  0.00  0.00    +0.000 A 
ATOM     13  C   UNL     1       1.951   3.903  20.483  0.00  0.00    +0.000 A 
ATOM     14  C   UNL     1       2.421   5.157  20.101  0.00  0.00    +0.000 A 
ENDBRANCH   7   9
ENDBRANCH   1   8
BRANCH   5  15
ATOM     15  C   UNL     1       8.155   8.205  17.473  0.00  0.00    +0.000 C 
BRANCH  15  16
ATOM     16  C   UNL     1       8.105   9.568  18.225  0.00  0.00    +0.000 C 
BRANCH  16  17
ATOM     17  C   UNL     1       9.470  10.121  18.716  0.00  0.00    +0.000 C 
ATOM     18  C   UNL     1      10.041  11.215  17.804  0.00  0.00    +0.000 C 
ATOM     19  C   UNL     1       9.275  12.527  17.949  0.00  0.00    +0.000 C 
ATOM     20  C   UNL     1       9.432  13.064  19.362  0.00  0.00    +0.000 C 
ATOM     21  C   UNL     1       8.962  12.063  20.410  0.00  0.00    +0.000 C 
ATOM     22  C   UNL     1       9.437  10.621  20.180  0.00  0.00    +0.000 C 
ENDBRANCH  16  17
ENDBRANCH  15  16
ENDBRANCH   5  15
TORSDOF 5
ENDMDL
MODEL 9
REMARK VINA RESULT:      -7.1      1.243      4.531
REMARK  Name = 
REMARK  5 active torsions:
REMARK  status: ('A' for Active; 'I' for Inactive)
REMARK    1  A    between atoms: C_1  and  C_17
REMARK    2  A    between atoms: C_2  and  C_3
REMARK    3  A    between atoms: N_7  and  C_8
REMARK    4  A    between atoms: C_8  and  C_9
REMARK    5  A    between atoms: C_9  and  C_10
REMARK                            x       y       z     vdW  Elec       q    Type
REMARK                         _______ _______ _______ _____ _____    ______ ____
ROOT
ATOM      1  C   UNL     1       5.148   6.784  17.983  0.00  0.00    +0.000 C 
ATOM      2  C   UNL     1       6.517   6.840  17.294  0.00  0.00    +0.000 C 
ATOM      3  C   UNL     1       6.709   5.692  16.298  0.00  0.00    +0.000 C 
ATOM      4  C   UNL     1       6.289   4.320  16.852  0.00  0.00    +0.000 C 
ATOM      5  N   UNL     1       4.958   4.362  17.487  0.00  0.00    +0.000 NA
ATOM      6  C   UNL     1       4.967   5.358  18.577  0.00  0.00    +0.000 C 
ENDROOT
BRANCH   1   8
ATOM      7  C   UNL     1       2.813   7.638  17.207  0.00  0.00    +0.000 C 
ATOM      8  C   UNL     1       4.017   7.081  17.016  0.00  0.00    +0.000 C 
BRANCH   7   9
ATOM      9  C   UNL     1       2.260   8.208  18.423  0.00  0.00    +0.000 A 
ATOM     10  C   UNL     1       1.629   9.451  18.373  0.00  0.00    +0.000 A 
ATOM     11  C   UNL     1       0.925   9.935  19.481  0.00  0.00    +0.000 A 
ATOM     12  C   UNL     1       0.862   9.173  20.645  0.00  0.00    +0.000 A 
ATOM     13  C   UNL     1       1.522   7.947  20.717  0.00  0.00    +0.000 A 
ATOM     14  C   UNL     1       2.211   7.460  19.610  0.00  0.00    +0.000 A 
ENDBRANCH   7   9
ENDBRANCH   1   8
BRANCH   5  15
ATOM     15  C   UNL     1       4.472   3.035  17.886  0.00  0.00    +0.000 C 
BRANCH  15  16
ATOM     16  C   UNL     1       4.379   2.783  19.420  0.00  0.00    +0.000 C 
BRANCH  16  17
ATOM     17  C   UNL     1       3.040   2.182  19.928  0.00  0.00    +0.000 C 
ATOM     18  C   UNL     1       2.622   2.717  21.304  0.00  0.00    +0.000 C 
ATOM     19  C   UNL     1       2.130   4.159  21.224  0.00  0.00    +0.000 C 
ATOM     20  C   UNL     1       0.874   4.230  20.371  0.00  0.00    +0.000 C 
ATOM     21  C   UNL     1       1.102   3.673  18.971  0.00  0.00    +0.000 C 
ATOM     22  C   UNL     1       1.874   2.347  18.924  0.00  0.00    +0.000 C 
ENDBRANCH  16  17
ENDBRANCH  15  16
ENDBRANCH   5  15
TORSDOF 5
ENDMDL
