MODEL 1
REMARK VINA RESULT:      -8.4      0.000      0.000
REMARK  Name = 
REMARK  10 active torsions:
REMARK  status: ('A' for Active; 'I' for Inactive)
REMARK    1  A    between atoms: C_1  and  C_2
REMARK    2  A    between atoms: C_4  and  C_5
REMARK    3  A    between atoms: C_5  and  N_6
REMARK    4  A    between atoms: C_9  and  O_10
REMARK    5  A    between atoms: C_14  and  C_15
REMARK    6  A    between atoms: C_15  and  C_17
REMARK    7  A    between atoms: C_17  and  N_18
REMARK    8  A    between atoms: C_21  and  O_22
REMARK    9  A    between atoms: O_22  and  C_23
REMARK   10  A    between atoms: C_23  and  C_24
REMARK                            x       y       z     vdW  Elec       q    Type
REMARK                         _______ _______ _______ _____ _____    ______ ____
ROOT
ATOM      1  C   UNL     1       2.984   4.151  17.440  0.00  0.00    +0.000 C 
ATOM      2  O   UNL     1       2.105   3.389  17.050  0.00  0.00    +0.000 OA
ENDROOT
BRANCH   1   9
ATOM      3  C   UNL     1       2.595   3.565  20.538  0.00  0.00    +0.000 C 
ATOM      4  C   UNL     1       2.317   4.878  19.854  0.00  0.00    +0.000 A 
ATOM      5  C   UNL     1       1.781   5.922  20.647  0.00  0.00    +0.000 A 
ATOM      6  C   UNL     1       1.670   7.237  20.168  0.00  0.00    +0.000 A 
ATOM      7  C   UNL     1       2.155   7.519  18.890  0.00  0.00    +0.000 A 
ATOM      8  C   UNL     1       2.610   6.490  18.066  0.00  0.00    +0.000 A 
ATOM      9  C   UNL     1       2.640   5.157  18.508  0.00  0.00    +0.000 A 
BRANCH   6  10
ATOM     10  C   UNL     1       0.957   8.326  20.954  0.00  0.00    +0.000 C 
BRANCH  10  11
ATOM     11  N   UNL     1       0.957   9.659  20.330  0.00  0.00    +0.000 NA
ATOM     12  C   UNL     1      -0.331   9.975  19.686  0.00  0.00    +0.000 C 
ATOM     13  C   UNL     1      -1.023  11.068  20.496  0.00  0.00    +0.000 C 
ATOM     14  C   UNL     1      -0.216  11.185  21.771  0.00  0.00    +0.000 C 
ATOM     15  C   UNL     1       1.170  10.711  21.345  0.00  0.00    +0.000 C 
BRANCH  14  16
ATOM     16  O   UNL     1      -0.205  12.503  22.300  0.00  0.00    +0.000 OA
ATOM     17  H   UNL     1       0.461  13.031  21.828  0.00  0.00    +0.000 HD
ENDBRANCH  14  16
ENDBRANCH  10  11
ENDBRANCH   6  10
ENDBRANCH   1   9
BRANCH   1  18
ATOM     18  C   UNL     1       4.429   4.024  16.973  0.00  0.00    +0.000 C 
BRANCH  18  19
ATOM     19  N   UNL     1       5.319   5.087  17.434  0.00  0.00    +0.000 N 
ATOM     20  C   UNL     1       5.573   6.146  16.582  0.00  0.00    +0.000 A 
ATOM     21  C   UNL     1       6.543   7.029  16.836  0.00  0.00    +0.000 A 
ATOM     22  C   UNL     1       7.315   6.919  18.055  0.00  0.00    +0.000 A 
ATOM     23  C   UNL     1       7.072   5.923  18.915  0.00  0.00    +0.000 A 
ATOM     24  C   UNL     1       6.027   4.907  18.623  0.00  0.00    +0.000 A 
ATOM     25  O   UNL     1       5.881   3.957  19.387  0.00  0.00    +0.000 OA
BRANCH  22  26
ATOM     26  O   UNL     1       8.315   7.828  18.327  0.00  0.00    +0.000 OA
BRANCH  26  27
ATOM     27  C   UNL     1       8.293   9.039  17.568  0.00  0.00    +0.000 C 
BRANCH  27  28
ATOM     28  C   UNL     1       8.776  10.188  18.413  0.00  0.00    +0.000 A 
ATOM     29  C   UNL     1       8.818  11.474  17.874  0.00  0.00    +0.000 A 
ATOM     30  C   UNL     1       9.352  12.507  18.639  0.00  0.00    +0.000 A 
ATOM     31  C   UNL     1       9.824  12.226  19.914  0.00  0.00    +0.000 A 
ATOM     32 CL   UNL     1      10.511  13.464  20.883  0.00  0.00    +0.000 Cl
ATOM     33  C   UNL     1       9.740  10.924  20.380  0.00  0.00    +0.000 A 
ATOM     34  N   UNL     1       9.235   9.896  19.657  0.00  0.00    +0.000 NA
ENDBRANCH  27  28
ENDBRANCH  26  27
ENDBRANCH  22  26
ENDBRANCH  18  19
ENDBRANCH   1  18
TORSDOF 9
ENDMDL
MODEL 2
REMARK VINA RESULT:      -7.7      3.023      6.682
REMARK  Name = 
REMARK  10 active torsions:
REMARK  status: ('A' for Active; 'I' for Inactive)
REMARK    1  A    between atoms: C_1  and  C_2
REMARK    2  A    between atoms: C_4  and  C_5
REMARK    3  A    between atoms: C_5  and  N_6
REMARK    4  A    between atoms: C_9  and  O_10
REMARK    5  A    between atoms: C_14  and  C_15
REMARK    6  A    between atoms: C_15  and  C_17
REMARK    7  A    between atoms: C_17  and  N_18
REMARK    8  A    between atoms: C_21  and  O_22
REMARK    9  A    between atoms: O_22  and  C_23
REMARK   10  A    between atoms: C_23  and  C_24
REMARK                            x       y       z     vdW  Elec       q    Type
REMARK                         _______ _______ _______ _____ _____    ______ ____
ROOT
ATOM      1  C   UNL     1       0.169  11.022  19.285  0.00  0.00    +0.000 C 
ATOM      2  O   UNL     1      -0.540  11.278  18.317  0.00  0.00    +0.000 OA
ENDROOT
BRANCH   1   9
ATOM      3  C   UNL     1       0.028   8.995  21.726  0.00  0.00    +0.000 C 
ATOM      4  C   UNL     1       0.884   8.827  20.497  0.00  0.00    +0.000 A 
ATOM      5  C   UNL     1       1.743   7.702  20.453  0.00  0.00    +0.000 A 
ATOM      6  C   UNL     1       2.432   7.338  19.285  0.00  0.00    +0.000 A 
ATOM      7  C   UNL     1       2.213   8.087  18.128  0.00  0.00    +0.000 A 
ATOM      8  C   UNL     1       1.436   9.244  18.173  0.00  0.00    +0.000 A 
ATOM      9  C   UNL     1       0.816   9.663  19.362  0.00  0.00    +0.000 A 
BRANCH   6  10
ATOM     10  C   UNL     1       3.470   6.227  19.272  0.00  0.00    +0.000 C 
BRANCH  10  11
ATOM     11  N   UNL     1       3.007   4.937  18.735  0.00  0.00    +0.000 NA
ATOM     12  C   UNL     1       3.849   3.811  19.180  0.00  0.00    +0.000 C 
ATOM     13  C   UNL     1       3.044   2.958  20.154  0.00  0.00    +0.000 C 
ATOM     14  C   UNL     1       1.805   3.771  20.461  0.00  0.00    +0.000 C 
ATOM     15  C   UNL     1       1.642   4.633  19.213  0.00  0.00    +0.000 C 
BRANCH  14  16
ATOM     16  O   UNL     1       0.665   2.966  20.723  0.00  0.00    +0.000 OA
ATOM     17  H   UNL     1       0.591   2.283  20.034  0.00  0.00    +0.000 HD
ENDBRANCH  14  16
ENDBRANCH  10  11
ENDBRANCH   6  10
ENDBRANCH   1   9
BRANCH   1  18
ATOM     18  C   UNL     1       0.513  12.073  20.334  0.00  0.00    +0.000 C 
BRANCH  18  19
ATOM     19  N   UNL     1       1.553  13.018  19.938  0.00  0.00    +0.000 N 
ATOM     20  C   UNL     1       2.128  12.877  18.688  0.00  0.00    +0.000 A 
ATOM     21  C   UNL     1       3.230  13.549  18.347  0.00  0.00    +0.000 A 
ATOM     22  C   UNL     1       3.814  14.493  19.275  0.00  0.00    +0.000 A 
ATOM     23  C   UNL     1       3.263  14.676  20.480  0.00  0.00    +0.000 A 
ATOM     24  C   UNL     1       2.063  13.901  20.891  0.00  0.00    +0.000 A 
ATOM     25  O   UNL     1       1.626  14.026  22.032  0.00  0.00    +0.000 OA
BRANCH  22  26
ATOM     26  O   UNL     1       4.950  15.195  18.929  0.00  0.00    +0.000 OA
BRANCH  26  27
ATOM     27  C   UNL     1       5.582  14.811  17.707  0.00  0.00    +0.000 C 
BRANCH  27  28
ATOM     28  C   UNL     1       6.998  14.372  17.973  0.00  0.00    +0.000 A 
ATOM     29  C   UNL     1       7.491  13.217  17.364  0.00  0.00    +0.000 A 
ATOM     30  C   UNL     1       8.770  12.778  17.692  0.00  0.00    +0.000 A 
ATOM     31  C   UNL     1       9.517  13.503  18.611  0.00  0.00    +0.000 A 
ATOM     32 CL   UNL     1      11.089  12.985  19.062  0.00  0.00    +0.000 Cl
ATOM     33  C   UNL     1       8.958  14.644  19.165  0.00  0.00    +0.000 A 
ATOM     34  N   UNL     1       7.714  15.092  18.874  0.00  0.00    +0.000 NA
ENDBRANCH  27  28
ENDBRANCH  26  27
ENDBRANCH  22  26
ENDBRANCH  18  19
ENDBRANCH   1  18
TORSDOF 9
ENDMDL
MODEL 3
REMARK VINA RESULT:      -7.6      1.166      1.639
REMARK  Name = 
REMARK  10 active torsions:
REMARK  status: ('A' for Active; 'I' for Inactive)
REMARK    1  A    between atoms: C_1  and  C_2
REMARK    2  A    between atoms: C_4  and  C_5
REMARK    3  A    between atoms: C_5  and  N_6
REMARK    4  A    between atoms: C_9  and  O_10
REMARK    5  A    between atoms: C_14  and  C_15
REMARK    6  A    between atoms: C_15  and  C_17
REMARK    7  A    between atoms: C_17  and  N_18
REMARK    8  A    between atoms: C_21  and  O_22
REMARK    9  A    between atoms: O_22  and  C_23
REMARK   10  A    between atoms: C_23  and  C_24
REMARK                            x       y       z     vdW  Elec       q    Type
REMARK                         _______ _______ _______ _____ _____    ______ ____
ROOT
ATOM      1  C   UNL     1       3.757   3.867  17.322  0.00  0.00    +0.000 C 
ATOM      2  O   UNL     1       2.865   3.035  17.187  0.00  0.00    +0.000 OA
ENDROOT
BRANCH   1   9
ATOM      3  C   UNL     1       2.940   4.339  20.355  0.00  0.00    +0.000 C 
ATOM      4  C   UNL     1       2.907   5.381  19.267  0.00  0.00    +0.000 A 
ATOM      5  C   UNL     1       2.414   6.663  19.611  0.00  0.00    +0.000 A 
ATOM      6  C   UNL     1       2.523   7.760  18.741  0.00  0.00    +0.000 A 
ATOM      7  C   UNL     1       3.185   7.576  17.526  0.00  0.00    +0.000 A 
ATOM      8  C   UNL     1       3.603   6.304  17.135  0.00  0.00    +0.000 A 
ATOM      9  C   UNL     1       3.417   5.186  17.965  0.00  0.00    +0.000 A 
BRANCH   6  10
ATOM     10  C   UNL     1       1.863   9.096  19.038  0.00  0.00    +0.000 C 
BRANCH  10  11
ATOM     11  N   UNL     1       0.682   9.036  19.915  0.00  0.00    +0.000 NA
ATOM     12  C   UNL     1       0.998   9.411  21.306  0.00  0.00    +0.000 C 
ATOM     13  C   UNL     1       0.348  10.758  21.606  0.00  0.00    +0.000 C 
ATOM     14  C   UNL     1      -0.131  11.272  20.266  0.00  0.00    +0.000 C 
ATOM     15  C   UNL     1      -0.351   9.992  19.465  0.00  0.00    +0.000 C 
BRANCH  14  16
ATOM     16  O   UNL     1      -1.306  12.065  20.365  0.00  0.00    +0.000 OA
ATOM     17  H   UNL     1      -1.086  12.909  20.795  0.00  0.00    +0.000 HD
ENDBRANCH  14  16
ENDBRANCH  10  11
ENDBRANCH   6  10
ENDBRANCH   1   9
BRANCH   1  18
ATOM     18  C   UNL     1       5.209   3.557  16.978  0.00  0.00    +0.000 C 
BRANCH  18  19
ATOM     19  N   UNL     1       6.162   4.606  17.333  0.00  0.00    +0.000 N 
ATOM     20  C   UNL     1       6.479   4.779  18.667  0.00  0.00    +0.000 A 
ATOM     21  C   UNL     1       7.156   5.851  19.090  0.00  0.00    +0.000 A 
ATOM     22  C   UNL     1       7.622   6.831  18.132  0.00  0.00    +0.000 A 
ATOM     23  C   UNL     1       7.358   6.675  16.831  0.00  0.00    +0.000 A 
ATOM     24  C   UNL     1       6.567   5.511  16.351  0.00  0.00    +0.000 A 
ATOM     25  O   UNL     1       6.267   5.435  15.163  0.00  0.00    +0.000 OA
BRANCH  22  26
ATOM     26  O   UNL     1       8.324   7.939  18.559  0.00  0.00    +0.000 OA
BRANCH  26  27
ATOM     27  C   UNL     1       8.144   9.134  17.797  0.00  0.00    +0.000 C 
BRANCH  27  28
ATOM     28  C   UNL     1       8.748  10.306  18.524  0.00  0.00    +0.000 A 
ATOM     29  C   UNL     1       8.962  11.506  17.845  0.00  0.00    +0.000 A 
ATOM     30  C   UNL     1       9.603  12.549  18.508  0.00  0.00    +0.000 A 
ATOM     31  C   UNL     1      10.008  12.364  19.823  0.00  0.00    +0.000 A 
ATOM     32 CL   UNL     1      10.823  13.613  20.670  0.00  0.00    +0.000 Cl
ATOM     33  C   UNL     1       9.752  11.144  20.430  0.00  0.00    +0.000 A 
ATOM     34  N   UNL     1       9.139  10.109  19.809  0.00  0.00    +0.000 NA
ENDBRANCH  27  28
ENDBRANCH  26  27
ENDBRANCH  22  26
ENDBRANCH  18  19
ENDBRANCH   1  18
TORSDOF 9
ENDMDL
MODEL 4
REMARK VINA RESULT:      -7.4      4.259      7.043
REMARK  Name = 
REMARK  10 active torsions:
REMARK  status: ('A' for Active; 'I' for Inactive)
REMARK    1  A    between atoms: C_1  and  C_2
REMARK    2  A    between atoms: C_4  and  C_5
REMARK    3  A    between atoms: C_5  and  N_6
REMARK    4  A    between atoms: C_9  and  O_10
REMARK    5  A    between atoms: C_14  and  C_15
REMARK    6  A    between atoms: C_15  and  C_17
REMARK    7  A    between atoms: C_17  and  N_18
REMARK    8  A    between atoms: C_21  and  O_22
REMARK    9  A    between atoms: O_22  and  C_23
REMARK   10  A    between atoms: C_23  and  C_24
REMARK                            x       y       z     vdW  Elec       q    Type
REMARK                         _______ _______ _______ _____ _____    ______ ____
ROOT
ATOM      1  C   UNL     1       0.116   9.381  21.001  0.00  0.00    +0.000 C 
ATOM      2  O   UNL     1      -0.691   8.629  21.537  0.00  0.00    +0.000 OA
ENDROOT
BRANCH   1   9
ATOM      3  C   UNL     1      -1.048  10.289  18.188  0.00  0.00    +0.000 C 
ATOM      4  C   UNL     1      -0.708  11.208  19.333  0.00  0.00    +0.000 A 
ATOM      5  C   UNL     1      -0.864  12.599  19.116  0.00  0.00    +0.000 A 
ATOM      6  C   UNL     1      -0.769  13.529  20.164  0.00  0.00    +0.000 A 
ATOM      7  C   UNL     1      -0.568  13.049  21.458  0.00  0.00    +0.000 A 
ATOM      8  C   UNL     1      -0.331  11.692  21.679  0.00  0.00    +0.000 A 
ATOM      9  C   UNL     1      -0.335  10.767  20.621  0.00  0.00    +0.000 A 
BRANCH   6  10
ATOM     10  C   UNL     1      -0.783  15.029  19.916  0.00  0.00    +0.000 C 
BRANCH  10  11
ATOM     11  N   UNL     1      -0.097  15.473  18.693  0.00  0.00    +0.000 NA
ATOM     12  C   UNL     1      -0.545  16.807  18.252  0.00  0.00    +0.000 C 
ATOM     13  C   UNL     1       0.591  17.800  18.474  0.00  0.00    +0.000 C 
ATOM     14  C   UNL     1       1.614  17.050  19.299  0.00  0.00    +0.000 C 
ATOM     15  C   UNL     1       1.358  15.594  18.925  0.00  0.00    +0.000 C 
BRANCH  14  16
ATOM     16  O   UNL     1       2.948  17.458  19.030  0.00  0.00    +0.000 OA
ATOM     17  H   UNL     1       2.939  18.153  18.350  0.00  0.00    +0.000 HD
ENDBRANCH  14  16
ENDBRANCH  10  11
ENDBRANCH   6  10
ENDBRANCH   1   9
BRANCH   1  18
ATOM     18  C   UNL     1       1.582   9.001  20.827  0.00  0.00    +0.000 C 
BRANCH  18  19
ATOM     19  N   UNL     1       1.813   7.773  20.070  0.00  0.00    +0.000 N 
ATOM     20  C   UNL     1       1.741   6.566  20.740  0.00  0.00    +0.000 A 
ATOM     21  C   UNL     1       2.160   5.429  20.176  0.00  0.00    +0.000 A 
ATOM     22  C   UNL     1       2.649   5.439  18.814  0.00  0.00    +0.000 A 
ATOM     23  C   UNL     1       2.701   6.586  18.129  0.00  0.00    +0.000 A 
ATOM     24  C   UNL     1       2.281   7.866  18.758  0.00  0.00    +0.000 A 
ATOM     25  O   UNL     1       2.416   8.916  18.137  0.00  0.00    +0.000 OA
BRANCH  22  26
ATOM     26  O   UNL     1       3.080   4.269  18.223  0.00  0.00    +0.000 OA
BRANCH  26  27
ATOM     27  C   UNL     1       4.432   3.889  18.486  0.00  0.00    +0.000 C 
BRANCH  27  28
ATOM     28  C   UNL     1       5.285   4.142  17.271  0.00  0.00    +0.000 A 
ATOM     29  C   UNL     1       6.587   4.619  17.426  0.00  0.00    +0.000 A 
ATOM     30  C   UNL     1       7.329   4.933  16.290  0.00  0.00    +0.000 A 
ATOM     31  C   UNL     1       6.751   4.760  15.040  0.00  0.00    +0.000 A 
ATOM     32 CL   UNL     1       7.620   5.156  13.615  0.00  0.00    +0.000 Cl
ATOM     33  C   UNL     1       5.455   4.274  14.970  0.00  0.00    +0.000 A 
ATOM     34  N   UNL     1       4.705   3.969  16.055  0.00  0.00    +0.000 NA
ENDBRANCH  27  28
ENDBRANCH  26  27
ENDBRANCH  22  26
ENDBRANCH  18  19
ENDBRANCH   1  18
TORSDOF 9
ENDMDL
MODEL 5
REMARK VINA RESULT:      -7.4      3.024      7.010
REMARK  Name = 
REMARK  10 active torsions:
REMARK  status: ('A' for Active; 'I' for Inactive)
REMARK    1  A    between atoms: C_1  and  C_2
REMARK    2  A    between atoms: C_4  and  C_5
REMARK    3  A    between atoms: C_5  and  N_6
REMARK    4  A    between atoms: C_9  and  O_10
REMARK    5  A    between atoms: C_14  and  C_15
REMARK    6  A    between atoms: C_15  and  C_17
REMARK    7  A    between atoms: C_17  and  N_18
REMARK    8  A    between atoms: C_21  and  O_22
REMARK    9  A    between atoms: O_22  and  C_23
REMARK   10  A    between atoms: C_23  and  C_24
REMARK                            x       y       z     vdW  Elec       q    Type
REMARK                         _______ _______ _______ _____ _____    ______ ____
ROOT
ATOM      1  C   UNL     1       0.552  11.144  19.641  0.00  0.00    +0.000 C 
ATOM      2  O   UNL     1      -0.311  11.531  18.860  0.00  0.00    +0.000 OA
ENDROOT
BRANCH   1   9
ATOM      3  C   UNL     1       0.193   8.847  21.805  0.00  0.00    +0.000 C 
ATOM      4  C   UNL     1       1.014   8.743  20.546  0.00  0.00    +0.000 A 
ATOM      5  C   UNL     1       1.735   7.541  20.339  0.00  0.00    +0.000 A 
ATOM      6  C   UNL     1       2.368   7.255  19.119  0.00  0.00    +0.000 A 
ATOM      7  C   UNL     1       2.230   8.168  18.072  0.00  0.00    +0.000 A 
ATOM      8  C   UNL     1       1.594   9.392  18.282  0.00  0.00    +0.000 A 
ATOM      9  C   UNL     1       1.036   9.721  19.529  0.00  0.00    +0.000 A 
BRANCH   6  10
ATOM     10  C   UNL     1       3.268   6.043  18.940  0.00  0.00    +0.000 C 
BRANCH  10  11
ATOM     11  N   UNL     1       4.391   6.223  18.006  0.00  0.00    +0.000 NA
ATOM     12  C   UNL     1       5.699   6.024  18.658  0.00  0.00    +0.000 C 
ATOM     13  C   UNL     1       6.312   4.731  18.130  0.00  0.00    +0.000 C 
ATOM     14  C   UNL     1       5.204   4.056  17.352  0.00  0.00    +0.000 C 
ATOM     15  C   UNL     1       4.328   5.226  16.916  0.00  0.00    +0.000 C 
BRANCH  14  16
ATOM     16  O   UNL     1       5.683   3.292  16.255  0.00  0.00    +0.000 OA
ATOM     17  H   UNL     1       4.926   2.916  15.773  0.00  0.00    +0.000 HD
ENDBRANCH  14  16
ENDBRANCH  10  11
ENDBRANCH   6  10
ENDBRANCH   1   9
BRANCH   1  18
ATOM     18  C   UNL     1       1.234  12.088  20.624  0.00  0.00    +0.000 C 
BRANCH  18  19
ATOM     19  N   UNL     1       2.093  13.099  20.011  0.00  0.00    +0.000 N 
ATOM     20  C   UNL     1       2.603  12.849  18.751  0.00  0.00    +0.000 A 
ATOM     21  C   UNL     1       3.568  13.609  18.225  0.00  0.00    +0.000 A 
ATOM     22  C   UNL     1       4.058  14.757  18.957  0.00  0.00    +0.000 A 
ATOM     23  C   UNL     1       3.562  15.044  20.165  0.00  0.00    +0.000 A 
ATOM     24  C   UNL     1       2.521  14.180  20.782  0.00  0.00    +0.000 A 
ATOM     25  O   UNL     1       2.142  14.417  21.926  0.00  0.00    +0.000 OA
BRANCH  22  26
ATOM     26  O   UNL     1       5.051  15.550  18.420  0.00  0.00    +0.000 OA
BRANCH  26  27
ATOM     27  C   UNL     1       6.213  15.742  19.229  0.00  0.00    +0.000 C 
BRANCH  27  28
ATOM     28  C   UNL     1       7.212  14.646  18.969  0.00  0.00    +0.000 A 
ATOM     29  C   UNL     1       7.223  13.999  17.733  0.00  0.00    +0.000 A 
ATOM     30  C   UNL     1       8.091  12.928  17.542  0.00  0.00    +0.000 A 
ATOM     31  C   UNL     1       8.920  12.538  18.586  0.00  0.00    +0.000 A 
ATOM     32 CL   UNL     1       9.989  11.209  18.403  0.00  0.00    +0.000 Cl
ATOM     33  C   UNL     1       8.854  13.238  19.781  0.00  0.00    +0.000 A 
ATOM     34  N   UNL     1       8.015  14.277  20.000  0.00  0.00    +0.000 NA
ENDBRANCH  27  28
ENDBRANCH  26  27
ENDBRANCH  22  26
ENDBRANCH  18  19
ENDBRANCH   1  18
TORSDOF 9
ENDMDL
MODEL 6
REMARK VINA RESULT:      -7.4      3.075      7.253
REMARK  Name = 
REMARK  10 active torsions:
REMARK  status: ('A' for Active; 'I' for Inactive)
REMARK    1  A    between atoms: C_1  and  C_2
REMARK    2  A    between atoms: C_4  and  C_5
REMARK    3  A    between atoms: C_5  and  N_6
REMARK    4  A    between atoms: C_9  and  O_10
REMARK    5  A    between atoms: C_14  and  C_15
REMARK    6  A    between atoms: C_15  and  C_17
REMARK    7  A    between atoms: C_17  and  N_18
REMARK    8  A    between atoms: C_21  and  O_22
REMARK    9  A    between atoms: O_22  and  C_23
REMARK   10  A    between atoms: C_23  and  C_24
REMARK                            x       y       z     vdW  Elec       q    Type
REMARK                         _______ _______ _______ _____ _____    ______ ____
ROOT
ATOM      1  C   UNL     1      -0.803  11.192  19.741  0.00  0.00    +0.000 C 
ATOM      2  O   UNL     1      -1.888  11.230  19.170  0.00  0.00    +0.000 OA
ENDROOT
BRANCH   1   9
ATOM      3  C   UNL     1       0.100   8.973  21.827  0.00  0.00    +0.000 C 
ATOM      4  C   UNL     1       0.634   9.128  20.426  0.00  0.00    +0.000 A 
ATOM      5  C   UNL     1       1.669   8.247  20.026  0.00  0.00    +0.000 A 
ATOM      6  C   UNL     1       2.102   8.167  18.693  0.00  0.00    +0.000 A 
ATOM      7  C   UNL     1       1.448   8.946  17.737  0.00  0.00    +0.000 A 
ATOM      8  C   UNL     1       0.484   9.877  18.125  0.00  0.00    +0.000 A 
ATOM      9  C   UNL     1       0.110  10.025  19.471  0.00  0.00    +0.000 A 
BRANCH   6  10
ATOM     10  C   UNL     1       3.311   7.340  18.284  0.00  0.00    +0.000 C 
BRANCH  10  11
ATOM     11  N   UNL     1       3.374   5.987  18.861  0.00  0.00    +0.000 NA
ATOM     12  C   UNL     1       2.286   5.120  18.374  0.00  0.00    +0.000 C 
ATOM     13  C   UNL     1       2.885   4.056  17.460  0.00  0.00    +0.000 C 
ATOM     14  C   UNL     1       4.313   4.496  17.225  0.00  0.00    +0.000 C 
ATOM     15  C   UNL     1       4.631   5.314  18.473  0.00  0.00    +0.000 C 
BRANCH  14  16
ATOM     16  O   UNL     1       5.206   3.406  17.042  0.00  0.00    +0.000 OA
ATOM     17  H   UNL     1       5.483   3.071  17.912  0.00  0.00    +0.000 HD
ENDBRANCH  14  16
ENDBRANCH  10  11
ENDBRANCH   6  10
ENDBRANCH   1   9
BRANCH   1  18
ATOM     18  C   UNL     1      -0.305  12.344  20.606  0.00  0.00    +0.000 C 
BRANCH  18  19
ATOM     19  N   UNL     1       0.817  13.093  20.046  0.00  0.00    +0.000 N 
ATOM     20  C   UNL     1       2.044  13.005  20.677  0.00  0.00    +0.000 A 
ATOM     21  C   UNL     1       3.049  13.828  20.366  0.00  0.00    +0.000 A 
ATOM     22  C   UNL     1       2.881  14.801  19.308  0.00  0.00    +0.000 A 
ATOM     23  C   UNL     1       1.716  14.889  18.657  0.00  0.00    +0.000 A 
ATOM     24  C   UNL     1       0.574  14.011  19.024  0.00  0.00    +0.000 A 
ATOM     25  O   UNL     1      -0.510  14.168  18.468  0.00  0.00    +0.000 OA
BRANCH  22  26
ATOM     26  O   UNL     1       3.915  15.652  18.977  0.00  0.00    +0.000 OA
BRANCH  26  27
ATOM     27  C   UNL     1       5.006  15.709  19.899  0.00  0.00    +0.000 C 
BRANCH  27  28
ATOM     28  C   UNL     1       6.221  15.050  19.302  0.00  0.00    +0.000 A 
ATOM     29  C   UNL     1       6.200  14.636  17.970  0.00  0.00    +0.000 A 
ATOM     30  C   UNL     1       7.298  13.948  17.462  0.00  0.00    +0.000 A 
ATOM     31  C   UNL     1       8.380  13.695  18.296  0.00  0.00    +0.000 A 
ATOM     32 CL   UNL     1       9.744  12.830  17.719  0.00  0.00    +0.000 Cl
ATOM     33  C   UNL     1       8.326  14.146  19.605  0.00  0.00    +0.000 A 
ATOM     34  N   UNL     1       7.269  14.810  20.131  0.00  0.00    +0.000 NA
ENDBRANCH  27  28
ENDBRANCH  26  27
ENDBRANCH  22  26
ENDBRANCH  18  19
ENDBRANCH   1  18
TORSDOF 9
ENDMDL
MODEL 7
REMARK VINA RESULT:      -7.3      4.697      9.930
REMARK  Name = 
REMARK  10 active torsions:
REMARK  status: ('A' for Active; 'I' for Inactive)
REMARK    1  A    between atoms: C_1  and  C_2
REMARK    2  A    between atoms: C_4  and  C_5
REMARK    3  A    between atoms: C_5  and  N_6
REMARK    4  A    between atoms: C_9  and  O_10
REMARK    5  A    between atoms: C_14  and  C_15
REMARK    6  A    between atoms: C_15  and  C_17
REMARK    7  A    between atoms: C_17  and  N_18
REMARK    8  A    between atoms: C_21  and  O_22
REMARK    9  A    between atoms: O_22  and  C_23
REMARK   10  A    between atoms: C_23  and  C_24
REMARK                            x       y       z     vdW  Elec       q    Type
REMARK                         _______ _______ _______ _____ _____    ______ ____
ROOT
ATOM      1  C   UNL     1       1.223   8.431  21.252  0.00  0.00    +0.000 C 
ATOM      2  O   UNL     1       1.892   8.632  22.260  0.00  0.00    +0.000 OA
ENDROOT
BRANCH   1   9
ATOM      3  C   UNL     1       1.688   5.298  21.005  0.00  0.00    +0.000 C 
ATOM      4  C   UNL     1       2.211   6.339  20.049  0.00  0.00    +0.000 A 
ATOM      5  C   UNL     1       3.028   5.889  18.983  0.00  0.00    +0.000 A 
ATOM      6  C   UNL     1       3.404   6.734  17.927  0.00  0.00    +0.000 A 
ATOM      7  C   UNL     1       2.906   8.037  17.913  0.00  0.00    +0.000 A 
ATOM      8  C   UNL     1       2.168   8.522  18.994  0.00  0.00    +0.000 A 
ATOM      9  C   UNL     1       1.865   7.706  20.097  0.00  0.00    +0.000 A 
BRANCH   6  10
ATOM     10  C   UNL     1       4.402   6.304  16.864  0.00  0.00    +0.000 C 
BRANCH  10  11
ATOM     11  N   UNL     1       4.781   4.882  16.892  0.00  0.00    +0.000 NA
ATOM     12  C   UNL     1       5.248   4.401  15.578  0.00  0.00    +0.000 C 
ATOM     13  C   UNL     1       6.747   4.134  15.664  0.00  0.00    +0.000 C 
ATOM     14  C   UNL     1       7.179   4.725  16.989  0.00  0.00    +0.000 C 
ATOM     15  C   UNL     1       5.905   4.660  17.826  0.00  0.00    +0.000 C 
BRANCH  14  16
ATOM     16  O   UNL     1       8.261   4.022  17.583  0.00  0.00    +0.000 OA
ATOM     17  H   UNL     1       8.504   3.272  17.014  0.00  0.00    +0.000 HD
ENDBRANCH  14  16
ENDBRANCH  10  11
ENDBRANCH   6  10
ENDBRANCH   1   9
BRANCH   1  18
ATOM     18  C   UNL     1      -0.260   8.775  21.184  0.00  0.00    +0.000 C 
BRANCH  18  19
ATOM     19  N   UNL     1      -0.560  10.205  21.195  0.00  0.00    +0.000 N 
ATOM     20  C   UNL     1      -0.474  10.902  20.004  0.00  0.00    +0.000 A 
ATOM     21  C   UNL     1      -0.508  12.237  19.973  0.00  0.00    +0.000 A 
ATOM     22  C   UNL     1      -0.696  12.980  21.201  0.00  0.00    +0.000 A 
ATOM     23  C   UNL     1      -0.815  12.333  22.365  0.00  0.00    +0.000 A 
ATOM     24  C   UNL     1      -0.732  10.850  22.421  0.00  0.00    +0.000 A 
ATOM     25  O   UNL     1      -0.761  10.285  23.510  0.00  0.00    +0.000 OA
BRANCH  22  26
ATOM     26  O   UNL     1      -0.737  14.359  21.178  0.00  0.00    +0.000 OA
BRANCH  26  27
ATOM     27  C   UNL     1      -1.940  14.948  20.682  0.00  0.00    +0.000 C 
BRANCH  27  28
ATOM     28  C   UNL     1      -2.686  15.622  21.803  0.00  0.00    +0.000 A 
ATOM     29  C   UNL     1      -1.988  16.383  22.740  0.00  0.00    +0.000 A 
ATOM     30  C   UNL     1      -2.681  16.923  23.820  0.00  0.00    +0.000 A 
ATOM     31  C   UNL     1      -4.045  16.689  23.930  0.00  0.00    +0.000 A 
ATOM     32 CL   UNL     1      -4.935  17.314  25.256  0.00  0.00    +0.000 Cl
ATOM     33  C   UNL     1      -4.668  15.928  22.953  0.00  0.00    +0.000 A 
ATOM     34  N   UNL     1      -4.019  15.382  21.896  0.00  0.00    +0.000 NA
ENDBRANCH  27  28
ENDBRANCH  26  27
ENDBRANCH  22  26
ENDBRANCH  18  19
ENDBRANCH   1  18
TORSDOF 9
ENDMDL
MODEL 8
REMARK VINA RESULT:      -7.3      3.301      7.113
REMARK  Name = 
REMARK  10 active torsions:
REMARK  status: ('A' for Active; 'I' for Inactive)
REMARK    1  A    between atoms: C_1  and  C_2
REMARK    2  A    between atoms: C_4  and  C_5
REMARK    3  A    between atoms: C_5  and  N_6
REMARK    4  A    between atoms: C_9  and  O_10
REMARK    5  A    between atoms: C_14  and  C_15
REMARK    6  A    between atoms: C_15  and  C_17
REMARK    7  A    between atoms: C_17  and  N_18
REMARK    8  A    between atoms: C_21  and  O_22
REMARK    9  A    between atoms: O_22  and  C_23
REMARK   10  A    between atoms: C_23  and  C_24
REMARK                            x       y       z     vdW  Elec       q    Type
REMARK                         _______ _______ _______ _____ _____    ______ ____
ROOT
ATOM      1  C   UNL     1       0.626  11.156  19.561  0.00  0.00    +0.000 C 
ATOM      2  O   UNL     1      -0.207  11.566  18.759  0.00  0.00    +0.000 OA
ENDROOT
BRANCH   1   9
ATOM      3  C   UNL     1       0.362   8.848  21.728  0.00  0.00    +0.000 C 
ATOM      4  C   UNL     1       1.136   8.754  20.439  0.00  0.00    +0.000 A 
ATOM      5  C   UNL     1       1.857   7.558  20.201  0.00  0.00    +0.000 A 
ATOM      6  C   UNL     1       2.446   7.281  18.957  0.00  0.00    +0.000 A 
ATOM      7  C   UNL     1       2.263   8.196  17.920  0.00  0.00    +0.000 A 
ATOM      8  C   UNL     1       1.628   9.415  18.158  0.00  0.00    +0.000 A 
ATOM      9  C   UNL     1       1.114   9.736  19.426  0.00  0.00    +0.000 A 
BRANCH   6  10
ATOM     10  C   UNL     1       3.347   6.075  18.741  0.00  0.00    +0.000 C 
BRANCH  10  11
ATOM     11  N   UNL     1       2.769   4.778  19.129  0.00  0.00    +0.000 NA
ATOM     12  C   UNL     1       1.741   4.316  18.179  0.00  0.00    +0.000 C 
ATOM     13  C   UNL     1       2.289   3.112  17.419  0.00  0.00    +0.000 C 
ATOM     14  C   UNL     1       3.759   3.057  17.772  0.00  0.00    +0.000 C 
ATOM     15  C   UNL     1       3.809   3.728  19.142  0.00  0.00    +0.000 C 
BRANCH  14  16
ATOM     16  O   UNL     1       4.275   1.734  17.791  0.00  0.00    +0.000 OA
ATOM     17  H   UNL     1       4.353   1.409  16.878  0.00  0.00    +0.000 HD
ENDBRANCH  14  16
ENDBRANCH  10  11
ENDBRANCH   6  10
ENDBRANCH   1   9
BRANCH   1  18
ATOM     18  C   UNL     1       1.269  12.070  20.598  0.00  0.00    +0.000 C 
BRANCH  18  19
ATOM     19  N   UNL     1       2.056  13.169  20.044  0.00  0.00    +0.000 N 
ATOM     20  C   UNL     1       2.563  13.033  18.765  0.00  0.00    +0.000 A 
ATOM     21  C   UNL     1       3.473  13.884  18.282  0.00  0.00    +0.000 A 
ATOM     22  C   UNL     1       3.902  15.010  19.083  0.00  0.00    +0.000 A 
ATOM     23  C   UNL     1       3.406  15.187  20.312  0.00  0.00    +0.000 A 
ATOM     24  C   UNL     1       2.428  14.222  20.881  0.00  0.00    +0.000 A 
ATOM     25  O   UNL     1       2.051  14.360  22.041  0.00  0.00    +0.000 OA
BRANCH  22  26
ATOM     26  O   UNL     1       4.838  15.896  18.590  0.00  0.00    +0.000 OA
BRANCH  26  27
ATOM     27  C   UNL     1       6.069  15.328  18.137  0.00  0.00    +0.000 C 
BRANCH  27  28
ATOM     28  C   UNL     1       7.084  15.343  19.249  0.00  0.00    +0.000 A 
ATOM     29  C   UNL     1       7.235  16.487  20.033  0.00  0.00    +0.000 A 
ATOM     30  C   UNL     1       8.240  16.515  20.996  0.00  0.00    +0.000 A 
ATOM     31  C   UNL     1       9.058  15.404  21.148  0.00  0.00    +0.000 A 
ATOM     32 CL   UNL     1      10.324  15.403  22.306  0.00  0.00    +0.000 Cl
ATOM     33  C   UNL     1       8.839  14.303  20.334  0.00  0.00    +0.000 A 
ATOM     34  N   UNL     1       7.877  14.249  19.383  0.00  0.00    +0.000 NA
ENDBRANCH  27  28
ENDBRANCH  26  27
ENDBRANCH  22  26
ENDBRANCH  18  19
ENDBRANCH   1  18
TORSDOF 9
ENDMDL
MODEL 9
REMARK VINA RESULT:      -7.3      3.315      7.028
REMARK  Name = 
REMARK  10 active torsions:
REMARK  status: ('A' for Active; 'I' for Inactive)
REMARK    1  A    between atoms: C_1  and  C_2
REMARK    2  A    between atoms: C_4  and  C_5
REMARK    3  A    between atoms: C_5  and  N_6
REMARK    4  A    between atoms: C_9  and  O_10
REMARK    5  A    between atoms: C_14  and  C_15
REMARK    6  A    between atoms: C_15  and  C_17
REMARK    7  A    between atoms: C_17  and  N_18
REMARK    8  A    between atoms: C_21  and  O_22
REMARK    9  A    between atoms: O_22  and  C_23
REMARK   10  A    between atoms: C_23  and  C_24
REMARK                            x       y       z     vdW  Elec       q    Type
REMARK                         _______ _______ _______ _____ _____    ______ ____
ROOT
ATOM      1  C   UNL     1       0.548  12.093  19.435  0.00  0.00    +0.000 C 
ATOM      2  O   UNL     1      -0.199  12.511  18.557  0.00  0.00    +0.000 OA
ENDROOT
BRANCH   1   9
ATOM      3  C   UNL     1      -0.239   9.993  21.685  0.00  0.00    +0.000 C 
ATOM      4  C   UNL     1       0.673   9.723  20.516  0.00  0.00    +0.000 A 
ATOM      5  C   UNL     1       1.278   8.444  20.447  0.00  0.00    +0.000 A 
ATOM      6  C   UNL     1       1.981   8.015  19.309  0.00  0.00    +0.000 A 
ATOM      7  C   UNL     1       2.031   8.865  18.203  0.00  0.00    +0.000 A 
ATOM      8  C   UNL     1       1.512  10.158  18.283  0.00  0.00    +0.000 A 
ATOM      9  C   UNL     1       0.886  10.624  19.451  0.00  0.00    +0.000 A 
BRANCH   6  10
ATOM     10  C   UNL     1       2.760   6.710  19.285  0.00  0.00    +0.000 C 
BRANCH  10  11
ATOM     11  N   UNL     1       2.875   6.068  17.966  0.00  0.00    +0.000 NA
ATOM     12  C   UNL     1       4.278   5.873  17.558  0.00  0.00    +0.000 C 
ATOM     13  C   UNL     1       4.592   4.381  17.592  0.00  0.00    +0.000 C 
ATOM     14  C   UNL     1       3.406   3.744  18.285  0.00  0.00    +0.000 C 
ATOM     15  C   UNL     1       2.271   4.719  17.989  0.00  0.00    +0.000 C 
BRANCH  14  16
ATOM     16  O   UNL     1       3.135   2.430  17.820  0.00  0.00    +0.000 OA
ATOM     17  H   UNL     1       3.226   2.408  16.852  0.00  0.00    +0.000 HD
ENDBRANCH  14  16
ENDBRANCH  10  11
ENDBRANCH   6  10
ENDBRANCH   1   9
BRANCH   1  18
ATOM     18  C   UNL     1       1.238  13.028  20.421  0.00  0.00    +0.000 C 
BRANCH  18  19
ATOM     19  N   UNL     1       2.363  13.780  19.870  0.00  0.00    +0.000 N 
ATOM     20  C   UNL     1       2.414  13.976  18.502  0.00  0.00    +0.000 A 
ATOM     21  C   UNL     1       3.512  14.448  17.905  0.00  0.00    +0.000 A 
ATOM     22  C   UNL     1       4.660  14.820  18.703  0.00  0.00    +0.000 A 
ATOM     23  C   UNL     1       4.631  14.672  20.031  0.00  0.00    +0.000 A 
ATOM     24  C   UNL     1       3.433  14.105  20.705  0.00  0.00    +0.000 A 
ATOM     25  O   UNL     1       3.461  13.902  21.915  0.00  0.00    +0.000 OA
BRANCH  22  26
ATOM     26  O   UNL     1       5.797  15.312  18.095  0.00  0.00    +0.000 OA
BRANCH  26  27
ATOM     27  C   UNL     1       6.898  15.605  18.958  0.00  0.00    +0.000 C 
BRANCH  27  28
ATOM     28  C   UNL     1       8.142  14.919  18.459  0.00  0.00    +0.000 A 
ATOM     29  C   UNL     1       8.066  13.610  17.983  0.00  0.00    +0.000 A 
ATOM     30  C   UNL     1       9.240  12.960  17.611  0.00  0.00    +0.000 A 
ATOM     31  C   UNL     1      10.448  13.635  17.723  0.00  0.00    +0.000 A 
ATOM     32 CL   UNL     1      11.921  12.865  17.299  0.00  0.00    +0.000 Cl
ATOM     33  C   UNL     1      10.438  14.937  18.199  0.00  0.00    +0.000 A 
ATOM     34  N   UNL     1       9.315  15.592  18.576  0.00  0.00    +0.000 NA
ENDBRANCH  27  28
ENDBRANCH  26  27
ENDBRANCH  22  26
ENDBRANCH  18  19
ENDBRANCH   1  18
TORSDOF 9
ENDMDL
