MODEL 1
REMARK VINA RESULT:      -7.9      0.000      0.000
REMARK  Name = 
REMARK  14 active torsions:
REMARK  status: ('A' for Active; 'I' for Inactive)
REMARK    1  A    between atoms: C_1  and  O_2
REMARK    2  A    between atoms: O_2  and  C_3
REMARK    3  A    between atoms: C_3  and  C_5
REMARK    4  A    between atoms: C_5  and  C_6
REMARK    5  A    between atoms: C_6  and  C_7
REMARK    6  A    between atoms: C_10  and  C_11
REMARK    7  A    between atoms: C_13  and  C_14
REMARK    8  A    between atoms: C_17  and  N_18
REMARK    9  A    between atoms: N_18  and  C_19
REMARK   10  A    between atoms: N_18  and  C_20
REMARK   11  A    between atoms: C_23  and  C_24
REMARK   12  A    between atoms: C_27  and  N_28
REMARK   13  A    between atoms: N_28  and  C_29
REMARK   14  A    between atoms: N_28  and  C_30
REMARK                            x       y       z     vdW  Elec       q    Type
REMARK                         _______ _______ _______ _____ _____    ______ ____
ROOT
ATOM      1  C   UNL     1       1.755   8.999  18.391  0.00  0.00    +0.000 A 
ATOM      2  N   UNL     1       2.161  10.204  18.741  0.00  0.00    +0.000 NA
ATOM      3  C   UNL     1       1.028  10.988  18.803  0.00  0.00    +0.000 A 
ATOM      4  C   UNL     1      -0.092  10.278  18.383  0.00  0.00    +0.000 A 
ATOM      5  N   UNL     1       0.406   9.018  18.144  0.00  0.00    +0.000 N 
ATOM      6  H   UNL     1      -0.131   8.234  17.810  0.00  0.00    +0.000 HD
ENDROOT
BRANCH   1  10
ATOM      7  C   UNL     1       4.223   5.513  17.986  0.00  0.00    +0.000 A 
ATOM      8  C   UNL     1       3.271   5.596  19.018  0.00  0.00    +0.000 A 
ATOM      9  C   UNL     1       2.460   6.723  19.146  0.00  0.00    +0.000 A 
ATOM     10  C   UNL     1       2.583   7.799  18.258  0.00  0.00    +0.000 A 
ATOM     11  C   UNL     1       3.545   7.727  17.247  0.00  0.00    +0.000 A 
ATOM     12  C   UNL     1       4.354   6.595  17.107  0.00  0.00    +0.000 A 
BRANCH   7  13
ATOM     13  C   UNL     1       5.107   4.299  17.855  0.00  0.00    +0.000 C 
BRANCH  13  14
ATOM     14  C   UNL     1       5.737   4.194  16.469  0.00  0.00    +0.000 C 
BRANCH  14  15
ATOM     15  C   UNL     1       7.208   4.519  16.505  0.00  0.00    +0.000 C 
ATOM     16  O   UNL     1       7.940   4.402  17.477  0.00  0.00    +0.000 OA
BRANCH  15  18
ATOM     17  C   UNL     1       6.675   4.655  14.229  0.00  0.00    +0.000 C 
ATOM     18  O   UNL     1       7.601   4.954  15.274  0.00  0.00    +0.000 OA
ENDBRANCH  15  18
ENDBRANCH  14  15
ENDBRANCH  13  14
ENDBRANCH   7  13
ENDBRANCH   1  10
BRANCH   3  19
ATOM     19  C   UNL     1       1.073  12.368  19.261  0.00  0.00    +0.000 A 
ATOM     20  C   UNL     1       1.091  12.665  20.620  0.00  0.00    +0.000 A 
ATOM     21  C   UNL     1       1.154  13.999  21.059  0.00  0.00    +0.000 A 
ATOM     22  C   UNL     1       1.224  15.088  20.169  0.00  0.00    +0.000 A 
ATOM     23  C   UNL     1       1.198  14.755  18.808  0.00  0.00    +0.000 A 
ATOM     24  C   UNL     1       1.090  13.432  18.360  0.00  0.00    +0.000 A 
BRANCH  22  25
ATOM     25  N   UNL     1       1.261  16.403  20.610  0.00  0.00    +0.000 N 
ATOM     26  C   UNL     1       1.813  17.474  19.785  0.00  0.00    +0.000 C 
ATOM     27  C   UNL     1       0.475  16.867  21.751  0.00  0.00    +0.000 C 
ENDBRANCH  22  25
ENDBRANCH   3  19
BRANCH   4  28
ATOM     28  C   UNL     1      -1.498  10.619  18.166  0.00  0.00    +0.000 A 
ATOM     29  C   UNL     1      -2.149  11.538  18.987  0.00  0.00    +0.000 A 
ATOM     30  C   UNL     1      -3.512  11.814  18.825  0.00  0.00    +0.000 A 
ATOM     31  C   UNL     1      -4.277  11.251  17.795  0.00  0.00    +0.000 A 
ATOM     32  C   UNL     1      -3.597  10.353  16.957  0.00  0.00    +0.000 A 
ATOM     33  C   UNL     1      -2.241  10.030  17.142  0.00  0.00    +0.000 A 
BRANCH  31  34
ATOM     34  N   UNL     1      -5.626  11.540  17.659  0.00  0.00    +0.000 N 
ATOM     35  C   UNL     1      -6.631  10.810  18.431  0.00  0.00    +0.000 C 
ATOM     36  C   UNL     1      -6.106  12.788  17.071  0.00  0.00    +0.000 C 
ENDBRANCH  31  34
ENDBRANCH   4  28
TORSDOF 9
ENDMDL
MODEL 2
REMARK VINA RESULT:      -7.9      0.560      1.589
REMARK  Name = 
REMARK  14 active torsions:
REMARK  status: ('A' for Active; 'I' for Inactive)
REMARK    1  A    between atoms: C_1  and  O_2
REMARK    2  A    between atoms: O_2  and  C_3
REMARK    3  A    between atoms: C_3  and  C_5
REMARK    4  A    between atoms: C_5  and  C_6
REMARK    5  A    between atoms: C_6  and  C_7
REMARK    6  A    between atoms: C_10  and  C_11
REMARK    7  A    between atoms: C_13  and  C_14
REMARK    8  A    between atoms: C_17  and  N_18
REMARK    9  A    between atoms: N_18  and  C_19
REMARK   10  A    between atoms: N_18  and  C_20
REMARK   11  A    between atoms: C_23  and  C_24
REMARK   12  A    between atoms: C_27  and  N_28
REMARK   13  A    between atoms: N_28  and  C_29
REMARK   14  A    between atoms: N_28  and  C_30
REMARK                            x       y       z     vdW  Elec       q    Type
REMARK                         _______ _______ _______ _____ _____    ______ ____
ROOT
ATOM      1  C   UNL     1       1.930   8.955  18.061  0.00  0.00    +0.000 A 
ATOM      2  N   UNL     1       2.389  10.146  18.392  0.00  0.00    +0.000 NA
ATOM      3  C   UNL     1       1.281  10.935  18.618  0.00  0.00    +0.000 A 
ATOM      4  C   UNL     1       0.110  10.246  18.321  0.00  0.00    +0.000 A 
ATOM      5  N   UNL     1       0.562   8.990  17.986  0.00  0.00    +0.000 N 
ATOM      6  H   UNL     1      -0.021   8.220  17.699  0.00  0.00    +0.000 HD
ENDROOT
BRANCH   1  10
ATOM      7  C   UNL     1       4.209   5.409  17.260  0.00  0.00    +0.000 A 
ATOM      8  C   UNL     1       4.694   6.670  16.870  0.00  0.00    +0.000 A 
ATOM      9  C   UNL     1       3.961   7.826  17.138  0.00  0.00    +0.000 A 
ATOM     10  C   UNL     1       2.723   7.754  17.791  0.00  0.00    +0.000 A 
ATOM     11  C   UNL     1       2.231   6.499  18.158  0.00  0.00    +0.000 A 
ATOM     12  C   UNL     1       2.967   5.338  17.902  0.00  0.00    +0.000 A 
BRANCH   7  13
ATOM     13  C   UNL     1       4.997   4.160  16.960  0.00  0.00    +0.000 C 
BRANCH  13  14
ATOM     14  C   UNL     1       5.728   4.246  15.624  0.00  0.00    +0.000 C 
BRANCH  14  15
ATOM     15  C   UNL     1       7.166   4.652  15.806  0.00  0.00    +0.000 C 
ATOM     16  O   UNL     1       7.868   4.377  16.769  0.00  0.00    +0.000 OA
BRANCH  15  18
ATOM     17  C   UNL     1       7.240   4.761  13.468  0.00  0.00    +0.000 C 
ATOM     18  O   UNL     1       7.572   5.367  14.717  0.00  0.00    +0.000 OA
ENDBRANCH  15  18
ENDBRANCH  14  15
ENDBRANCH  13  14
ENDBRANCH   7  13
ENDBRANCH   1  10
BRANCH   3  19
ATOM     19  C   UNL     1       1.397  12.301  19.106  0.00  0.00    +0.000 A 
ATOM     20  C   UNL     1       1.576  13.358  18.218  0.00  0.00    +0.000 A 
ATOM     21  C   UNL     1       1.669  14.679  18.692  0.00  0.00    +0.000 A 
ATOM     22  C   UNL     1       1.565  15.005  20.057  0.00  0.00    +0.000 A 
ATOM     23  C   UNL     1       1.390  13.917  20.924  0.00  0.00    +0.000 A 
ATOM     24  C   UNL     1       1.341  12.594  20.467  0.00  0.00    +0.000 A 
BRANCH  22  25
ATOM     25  N   UNL     1       1.682  16.308  20.518  0.00  0.00    +0.000 N 
ATOM     26  C   UNL     1       2.295  17.358  19.707  0.00  0.00    +0.000 C 
ATOM     27  C   UNL     1       0.932  16.800  21.671  0.00  0.00    +0.000 C 
ENDBRANCH  22  25
ENDBRANCH   3  19
BRANCH   4  28
ATOM     28  C   UNL     1      -1.309  10.602  18.291  0.00  0.00    +0.000 A 
ATOM     29  C   UNL     1      -2.189   9.969  17.417  0.00  0.00    +0.000 A 
ATOM     30  C   UNL     1      -3.533  10.357  17.337  0.00  0.00    +0.000 A 
ATOM     31  C   UNL     1      -4.085  11.337  18.173  0.00  0.00    +0.000 A 
ATOM     32  C   UNL     1      -3.190  11.941  19.070  0.00  0.00    +0.000 A 
ATOM     33  C   UNL     1      -1.828  11.595  19.123  0.00  0.00    +0.000 A 
BRANCH  31  34
ATOM     34  N   UNL     1      -5.418  11.702  18.071  0.00  0.00    +0.000 N 
ATOM     35  C   UNL     1      -5.875  12.578  16.993  0.00  0.00    +0.000 C 
ATOM     36  C   UNL     1      -6.486  10.974  18.750  0.00  0.00    +0.000 C 
ENDBRANCH  31  34
ENDBRANCH   4  28
TORSDOF 9
ENDMDL
MODEL 3
REMARK VINA RESULT:      -7.8      0.735      1.592
REMARK  Name = 
REMARK  14 active torsions:
REMARK  status: ('A' for Active; 'I' for Inactive)
REMARK    1  A    between atoms: C_1  and  O_2
REMARK    2  A    between atoms: O_2  and  C_3
REMARK    3  A    between atoms: C_3  and  C_5
REMARK    4  A    between atoms: C_5  and  C_6
REMARK    5  A    between atoms: C_6  and  C_7
REMARK    6  A    between atoms: C_10  and  C_11
REMARK    7  A    between atoms: C_13  and  C_14
REMARK    8  A    between atoms: C_17  and  N_18
REMARK    9  A    between atoms: N_18  and  C_19
REMARK   10  A    between atoms: N_18  and  C_20
REMARK   11  A    between atoms: C_23  and  C_24
REMARK   12  A    between atoms: C_27  and  N_28
REMARK   13  A    between atoms: N_28  and  C_29
REMARK   14  A    between atoms: N_28  and  C_30
REMARK                            x       y       z     vdW  Elec       q    Type
REMARK                         _______ _______ _______ _____ _____    ______ ____
ROOT
ATOM      1  C   UNL     1       1.941   8.978  18.077  0.00  0.00    +0.000 A 
ATOM      2  N   UNL     1       2.377  10.161  18.464  0.00  0.00    +0.000 NA
ATOM      3  C   UNL     1       1.255  10.939  18.658  0.00  0.00    +0.000 A 
ATOM      4  C   UNL     1       0.104  10.255  18.284  0.00  0.00    +0.000 A 
ATOM      5  N   UNL     1       0.577   9.011  17.936  0.00  0.00    +0.000 N 
ATOM      6  H   UNL     1       0.013   8.247  17.599  0.00  0.00    +0.000 HD
ENDROOT
BRANCH   1  10
ATOM      7  C   UNL     1       4.272   5.463  17.293  0.00  0.00    +0.000 A 
ATOM      8  C   UNL     1       4.724   6.725  16.871  0.00  0.00    +0.000 A 
ATOM      9  C   UNL     1       3.974   7.871  17.133  0.00  0.00    +0.000 A 
ATOM     10  C   UNL     1       2.751   7.788  17.813  0.00  0.00    +0.000 A 
ATOM     11  C   UNL     1       2.291   6.530  18.212  0.00  0.00    +0.000 A 
ATOM     12  C   UNL     1       3.043   5.379  17.961  0.00  0.00    +0.000 A 
BRANCH   7  13
ATOM     13  C   UNL     1       5.077   4.223  17.000  0.00  0.00    +0.000 C 
BRANCH  13  14
ATOM     14  C   UNL     1       6.563   4.527  16.836  0.00  0.00    +0.000 C 
BRANCH  14  15
ATOM     15  C   UNL     1       6.964   4.560  15.385  0.00  0.00    +0.000 C 
ATOM     16  O   UNL     1       7.758   5.342  14.883  0.00  0.00    +0.000 OA
BRANCH  15  18
ATOM     17  C   UNL     1       6.132   3.826  13.322  0.00  0.00    +0.000 C 
ATOM     18  O   UNL     1       6.309   3.568  14.715  0.00  0.00    +0.000 OA
ENDBRANCH  15  18
ENDBRANCH  14  15
ENDBRANCH  13  14
ENDBRANCH   7  13
ENDBRANCH   1  10
BRANCH   3  19
ATOM     19  C   UNL     1       1.341  12.291  19.189  0.00  0.00    +0.000 A 
ATOM     20  C   UNL     1       1.367  13.389  18.334  0.00  0.00    +0.000 A 
ATOM     21  C   UNL     1       1.431  14.695  18.851  0.00  0.00    +0.000 A 
ATOM     22  C   UNL     1       1.449  14.964  20.233  0.00  0.00    +0.000 A 
ATOM     23  C   UNL     1       1.427  13.837  21.066  0.00  0.00    +0.000 A 
ATOM     24  C   UNL     1       1.409  12.530  20.561  0.00  0.00    +0.000 A 
BRANCH  22  25
ATOM     25  N   UNL     1       1.537  16.254  20.735  0.00  0.00    +0.000 N 
ATOM     26  C   UNL     1       1.897  16.514  22.127  0.00  0.00    +0.000 C 
ATOM     27  C   UNL     1       1.606  17.428  19.868  0.00  0.00    +0.000 C 
ENDBRANCH  22  25
ENDBRANCH   3  19
BRANCH   4  28
ATOM     28  C   UNL     1      -1.313  10.608  18.195  0.00  0.00    +0.000 A 
ATOM     29  C   UNL     1      -1.862  11.587  19.021  0.00  0.00    +0.000 A 
ATOM     30  C   UNL     1      -3.232  11.878  18.986  0.00  0.00    +0.000 A 
ATOM     31  C   UNL     1      -4.108  11.267  18.079  0.00  0.00    +0.000 A 
ATOM     32  C   UNL     1      -3.531  10.307  17.232  0.00  0.00    +0.000 A 
ATOM     33  C   UNL     1      -2.168   9.971  17.294  0.00  0.00    +0.000 A 
BRANCH  31  34
ATOM     34  N   UNL     1      -5.460  11.573  18.068  0.00  0.00    +0.000 N 
ATOM     35  C   UNL     1      -5.992  12.590  17.161  0.00  0.00    +0.000 C 
ATOM     36  C   UNL     1      -6.470  10.687  18.640  0.00  0.00    +0.000 C 
ENDBRANCH  31  34
ENDBRANCH   4  28
TORSDOF 9
ENDMDL
MODEL 4
REMARK VINA RESULT:      -7.8      0.620      1.022
REMARK  Name = 
REMARK  14 active torsions:
REMARK  status: ('A' for Active; 'I' for Inactive)
REMARK    1  A    between atoms: C_1  and  O_2
REMARK    2  A    between atoms: O_2  and  C_3
REMARK    3  A    between atoms: C_3  and  C_5
REMARK    4  A    between atoms: C_5  and  C_6
REMARK    5  A    between atoms: C_6  and  C_7
REMARK    6  A    between atoms: C_10  and  C_11
REMARK    7  A    between atoms: C_13  and  C_14
REMARK    8  A    between atoms: C_17  and  N_18
REMARK    9  A    between atoms: N_18  and  C_19
REMARK   10  A    between atoms: N_18  and  C_20
REMARK   11  A    between atoms: C_23  and  C_24
REMARK   12  A    between atoms: C_27  and  N_28
REMARK   13  A    between atoms: N_28  and  C_29
REMARK   14  A    between atoms: N_28  and  C_30
REMARK                            x       y       z     vdW  Elec       q    Type
REMARK                         _______ _______ _______ _____ _____    ______ ____
ROOT
ATOM      1  C   UNL     1       1.477   9.394  18.611  0.00  0.00    +0.000 A 
ATOM      2  N   UNL     1       1.853  10.610  18.951  0.00  0.00    +0.000 NA
ATOM      3  C   UNL     1       0.705  11.375  18.972  0.00  0.00    +0.000 A 
ATOM      4  C   UNL     1      -0.391  10.639  18.536  0.00  0.00    +0.000 A 
ATOM      5  N   UNL     1       0.135   9.385  18.330  0.00  0.00    +0.000 N 
ATOM      6  H   UNL     1      -0.380   8.585  17.995  0.00  0.00    +0.000 HD
ENDROOT
BRANCH   1  10
ATOM      7  C   UNL     1       3.935   5.886  18.359  0.00  0.00    +0.000 A 
ATOM      8  C   UNL     1       4.007   6.879  17.366  0.00  0.00    +0.000 A 
ATOM      9  C   UNL     1       3.217   8.025  17.450  0.00  0.00    +0.000 A 
ATOM     10  C   UNL     1       2.329   8.207  18.518  0.00  0.00    +0.000 A 
ATOM     11  C   UNL     1       2.241   7.209  19.493  0.00  0.00    +0.000 A 
ATOM     12  C   UNL     1       3.037   6.062  19.420  0.00  0.00    +0.000 A 
BRANCH   7  13
ATOM     13  C   UNL     1       4.780   4.642  18.262  0.00  0.00    +0.000 C 
BRANCH  13  14
ATOM     14  C   UNL     1       5.619   4.614  16.988  0.00  0.00    +0.000 C 
BRANCH  14  15
ATOM     15  C   UNL     1       7.093   4.571  17.298  0.00  0.00    +0.000 C 
ATOM     16  O   UNL     1       7.585   4.537  18.416  0.00  0.00    +0.000 OA
BRANCH  15  18
ATOM     17  C   UNL     1       6.988   4.709  14.963  0.00  0.00    +0.000 C 
ATOM     18  O   UNL     1       7.797   4.562  16.129  0.00  0.00    +0.000 OA
ENDBRANCH  15  18
ENDBRANCH  14  15
ENDBRANCH  13  14
ENDBRANCH   7  13
ENDBRANCH   1  10
BRANCH   3  19
ATOM     19  C   UNL     1       0.715  12.763  19.408  0.00  0.00    +0.000 A 
ATOM     20  C   UNL     1       0.799  13.082  20.760  0.00  0.00    +0.000 A 
ATOM     21  C   UNL     1       0.826  14.424  21.177  0.00  0.00    +0.000 A 
ATOM     22  C   UNL     1       0.797  15.500  20.270  0.00  0.00    +0.000 A 
ATOM     23  C   UNL     1       0.707  15.146  18.917  0.00  0.00    +0.000 A 
ATOM     24  C   UNL     1       0.633  13.812  18.494  0.00  0.00    +0.000 A 
BRANCH  22  25
ATOM     25  N   UNL     1       0.800  16.823  20.691  0.00  0.00    +0.000 N 
ATOM     26  C   UNL     1       1.901  17.728  20.372  0.00  0.00    +0.000 C 
ATOM     27  C   UNL     1      -0.405  17.490  21.180  0.00  0.00    +0.000 C 
ENDBRANCH  22  25
ENDBRANCH   3  19
BRANCH   4  28
ATOM     28  C   UNL     1      -1.797  10.952  18.278  0.00  0.00    +0.000 A 
ATOM     29  C   UNL     1      -2.532  11.733  19.166  0.00  0.00    +0.000 A 
ATOM     30  C   UNL     1      -3.896  11.976  18.958  0.00  0.00    +0.000 A 
ATOM     31  C   UNL     1      -4.577  11.520  17.821  0.00  0.00    +0.000 A 
ATOM     32  C   UNL     1      -3.811  10.761  16.921  0.00  0.00    +0.000 A 
ATOM     33  C   UNL     1      -2.455  10.469  17.146  0.00  0.00    +0.000 A 
BRANCH  31  34
ATOM     34  N   UNL     1      -5.928  11.773  17.641  0.00  0.00    +0.000 N 
ATOM     35  C   UNL     1      -6.935  11.067  18.432  0.00  0.00    +0.000 C 
ATOM     36  C   UNL     1      -6.419  12.975  16.972  0.00  0.00    +0.000 C 
ENDBRANCH  31  34
ENDBRANCH   4  28
TORSDOF 9
ENDMDL
MODEL 5
REMARK VINA RESULT:      -7.8      0.959      5.324
REMARK  Name = 
REMARK  14 active torsions:
REMARK  status: ('A' for Active; 'I' for Inactive)
REMARK    1  A    between atoms: C_1  and  O_2
REMARK    2  A    between atoms: O_2  and  C_3
REMARK    3  A    between atoms: C_3  and  C_5
REMARK    4  A    between atoms: C_5  and  C_6
REMARK    5  A    between atoms: C_6  and  C_7
REMARK    6  A    between atoms: C_10  and  C_11
REMARK    7  A    between atoms: C_13  and  C_14
REMARK    8  A    between atoms: C_17  and  N_18
REMARK    9  A    between atoms: N_18  and  C_19
REMARK   10  A    between atoms: N_18  and  C_20
REMARK   11  A    between atoms: C_23  and  C_24
REMARK   12  A    between atoms: C_27  and  N_28
REMARK   13  A    between atoms: N_28  and  C_29
REMARK   14  A    between atoms: N_28  and  C_30
REMARK                            x       y       z     vdW  Elec       q    Type
REMARK                         _______ _______ _______ _____ _____    ______ ____
ROOT
ATOM      1  C   UNL     1       1.899   8.725  18.135  0.00  0.00    +0.000 A 
ATOM      2  N   UNL     1       0.583   8.803  18.136  0.00  0.00    +0.000 NA
ATOM      3  C   UNL     1       0.277  10.127  18.373  0.00  0.00    +0.000 A 
ATOM      4  C   UNL     1       1.428  10.866  18.626  0.00  0.00    +0.000 A 
ATOM      5  N   UNL     1       2.436   9.946  18.451  0.00  0.00    +0.000 N 
ATOM      6  H   UNL     1       3.419  10.132  18.567  0.00  0.00    +0.000 HD
ENDROOT
BRANCH   1  10
ATOM      7  C   UNL     1       4.220   5.211  17.313  0.00  0.00    +0.000 A 
ATOM      8  C   UNL     1       4.717   6.486  16.987  0.00  0.00    +0.000 A 
ATOM      9  C   UNL     1       3.970   7.630  17.262  0.00  0.00    +0.000 A 
ATOM     10  C   UNL     1       2.706   7.535  17.859  0.00  0.00    +0.000 A 
ATOM     11  C   UNL     1       2.202   6.267  18.163  0.00  0.00    +0.000 A 
ATOM     12  C   UNL     1       2.952   5.116  17.899  0.00  0.00    +0.000 A 
BRANCH   7  13
ATOM     13  C   UNL     1       5.023   3.974  17.006  0.00  0.00    +0.000 C 
BRANCH  13  14
ATOM     14  C   UNL     1       5.792   4.097  15.693  0.00  0.00    +0.000 C 
BRANCH  14  15
ATOM     15  C   UNL     1       7.200   4.579  15.920  0.00  0.00    +0.000 C 
ATOM     16  O   UNL     1       7.867   4.384  16.926  0.00  0.00    +0.000 OA
BRANCH  15  18
ATOM     17  C   UNL     1       6.980   4.866  13.607  0.00  0.00    +0.000 C 
ATOM     18  O   UNL     1       7.624   5.262  14.818  0.00  0.00    +0.000 OA
ENDBRANCH  15  18
ENDBRANCH  14  15
ENDBRANCH  13  14
ENDBRANCH   7  13
ENDBRANCH   1  10
BRANCH   3  19
ATOM     19  C   UNL     1      -1.093  10.616  18.345  0.00  0.00    +0.000 A 
ATOM     20  C   UNL     1      -2.005  10.118  17.419  0.00  0.00    +0.000 A 
ATOM     21  C   UNL     1      -3.333  10.579  17.406  0.00  0.00    +0.000 A 
ATOM     22  C   UNL     1      -3.814  11.532  18.324  0.00  0.00    +0.000 A 
ATOM     23  C   UNL     1      -2.870  12.016  19.239  0.00  0.00    +0.000 A 
ATOM     24  C   UNL     1      -1.533  11.597  19.231  0.00  0.00    +0.000 A 
BRANCH  22  25
ATOM     25  N   UNL     1      -5.119  12.000  18.289  0.00  0.00    +0.000 N 
ATOM     26  C   UNL     1      -5.817  12.423  19.501  0.00  0.00    +0.000 C 
ATOM     27  C   UNL     1      -5.769  12.413  17.047  0.00  0.00    +0.000 C 
ENDBRANCH  22  25
ENDBRANCH   3  19
BRANCH   4  28
ATOM     28  C   UNL     1       1.690  12.252  19.013  0.00  0.00    +0.000 A 
ATOM     29  C   UNL     1       2.005  13.216  18.058  0.00  0.00    +0.000 A 
ATOM     30  C   UNL     1       2.325  14.527  18.432  0.00  0.00    +0.000 A 
ATOM     31  C   UNL     1       2.272  14.965  19.763  0.00  0.00    +0.000 A 
ATOM     32  C   UNL     1       1.921  13.987  20.708  0.00  0.00    +0.000 A 
ATOM     33  C   UNL     1       1.648  12.656  20.348  0.00  0.00    +0.000 A 
BRANCH  31  34
ATOM     34  N   UNL     1       2.596  16.268  20.105  0.00  0.00    +0.000 N 
ATOM     35  C   UNL     1       3.680  16.550  21.045  0.00  0.00    +0.000 C 
ATOM     36  C   UNL     1       2.175  17.417  19.307  0.00  0.00    +0.000 C 
ENDBRANCH  31  34
ENDBRANCH   4  28
TORSDOF 9
ENDMDL
MODEL 6
REMARK VINA RESULT:      -7.7      0.747      1.479
REMARK  Name = 
REMARK  14 active torsions:
REMARK  status: ('A' for Active; 'I' for Inactive)
REMARK    1  A    between atoms: C_1  and  O_2
REMARK    2  A    between atoms: O_2  and  C_3
REMARK    3  A    between atoms: C_3  and  C_5
REMARK    4  A    between atoms: C_5  and  C_6
REMARK    5  A    between atoms: C_6  and  C_7
REMARK    6  A    between atoms: C_10  and  C_11
REMARK    7  A    between atoms: C_13  and  C_14
REMARK    8  A    between atoms: C_17  and  N_18
REMARK    9  A    between atoms: N_18  and  C_19
REMARK   10  A    between atoms: N_18  and  C_20
REMARK   11  A    between atoms: C_23  and  C_24
REMARK   12  A    between atoms: C_27  and  N_28
REMARK   13  A    between atoms: N_28  and  C_29
REMARK   14  A    between atoms: N_28  and  C_30
REMARK                            x       y       z     vdW  Elec       q    Type
REMARK                         _______ _______ _______ _____ _____    ______ ____
ROOT
ATOM      1  C   UNL     1       1.947   8.939  18.150  0.00  0.00    +0.000 A 
ATOM      2  N   UNL     1       2.466  10.113  18.447  0.00  0.00    +0.000 NA
ATOM      3  C   UNL     1       1.399  10.954  18.690  0.00  0.00    +0.000 A 
ATOM      4  C   UNL     1       0.192  10.312  18.437  0.00  0.00    +0.000 A 
ATOM      5  N   UNL     1       0.579   9.033  18.112  0.00  0.00    +0.000 N 
ATOM      6  H   UNL     1      -0.044   8.283  17.854  0.00  0.00    +0.000 HD
ENDROOT
BRANCH   1  10
ATOM      7  C   UNL     1       4.138   5.334  17.366  0.00  0.00    +0.000 A 
ATOM      8  C   UNL     1       2.900   5.284  18.032  0.00  0.00    +0.000 A 
ATOM      9  C   UNL     1       2.181   6.453  18.280  0.00  0.00    +0.000 A 
ATOM     10  C   UNL     1       2.679   7.700  17.880  0.00  0.00    +0.000 A 
ATOM     11  C   UNL     1       3.920   7.751  17.238  0.00  0.00    +0.000 A 
ATOM     12  C   UNL     1       4.641   6.582  16.978  0.00  0.00    +0.000 A 
BRANCH   7  13
ATOM     13  C   UNL     1       4.921   4.072  17.109  0.00  0.00    +0.000 C 
BRANCH  13  14
ATOM     14  C   UNL     1       5.686   4.127  15.790  0.00  0.00    +0.000 C 
BRANCH  14  15
ATOM     15  C   UNL     1       7.100   4.606  15.992  0.00  0.00    +0.000 C 
ATOM     16  O   UNL     1       7.815   4.334  16.946  0.00  0.00    +0.000 OA
BRANCH  15  18
ATOM     17  C   UNL     1       7.114   4.835  13.662  0.00  0.00    +0.000 C 
ATOM     18  O   UNL     1       7.466   5.383  14.932  0.00  0.00    +0.000 OA
ENDBRANCH  15  18
ENDBRANCH  14  15
ENDBRANCH  13  14
ENDBRANCH   7  13
ENDBRANCH   1  10
BRANCH   3  19
ATOM     19  C   UNL     1       1.588  12.321  19.150  0.00  0.00    +0.000 A 
ATOM     20  C   UNL     1       1.766  13.358  18.239  0.00  0.00    +0.000 A 
ATOM     21  C   UNL     1       1.929  14.681  18.686  0.00  0.00    +0.000 A 
ATOM     22  C   UNL     1       1.900  15.030  20.049  0.00  0.00    +0.000 A 
ATOM     23  C   UNL     1       1.725  13.962  20.941  0.00  0.00    +0.000 A 
ATOM     24  C   UNL     1       1.606  12.635  20.508  0.00  0.00    +0.000 A 
BRANCH  22  25
ATOM     25  N   UNL     1       2.087  16.334  20.484  0.00  0.00    +0.000 N 
ATOM     26  C   UNL     1       1.837  16.726  21.869  0.00  0.00    +0.000 C 
ATOM     27  C   UNL     1       2.842  17.316  19.709  0.00  0.00    +0.000 C 
ENDBRANCH  22  25
ENDBRANCH   3  19
BRANCH   4  28
ATOM     28  C   UNL     1      -1.210  10.730  18.440  0.00  0.00    +0.000 A 
ATOM     29  C   UNL     1      -2.106  10.241  17.491  0.00  0.00    +0.000 A 
ATOM     30  C   UNL     1      -3.431  10.692  17.448  0.00  0.00    +0.000 A 
ATOM     31  C   UNL     1      -3.951  11.591  18.390  0.00  0.00    +0.000 A 
ATOM     32  C   UNL     1      -3.043  12.047  19.358  0.00  0.00    +0.000 A 
ATOM     33  C   UNL     1      -1.697  11.640  19.379  0.00  0.00    +0.000 A 
BRANCH  31  34
ATOM     34  N   UNL     1      -5.267  12.022  18.322  0.00  0.00    +0.000 N 
ATOM     35  C   UNL     1      -5.978  12.453  19.525  0.00  0.00    +0.000 C 
ATOM     36  C   UNL     1      -5.895  12.435  17.070  0.00  0.00    +0.000 C 
ENDBRANCH  31  34
ENDBRANCH   4  28
TORSDOF 9
ENDMDL
MODEL 7
REMARK VINA RESULT:      -7.7      0.935      1.534
REMARK  Name = 
REMARK  14 active torsions:
REMARK  status: ('A' for Active; 'I' for Inactive)
REMARK    1  A    between atoms: C_1  and  O_2
REMARK    2  A    between atoms: O_2  and  C_3
REMARK    3  A    between atoms: C_3  and  C_5
REMARK    4  A    between atoms: C_5  and  C_6
REMARK    5  A    between atoms: C_6  and  C_7
REMARK    6  A    between atoms: C_10  and  C_11
REMARK    7  A    between atoms: C_13  and  C_14
REMARK    8  A    between atoms: C_17  and  N_18
REMARK    9  A    between atoms: N_18  and  C_19
REMARK   10  A    between atoms: N_18  and  C_20
REMARK   11  A    between atoms: C_23  and  C_24
REMARK   12  A    between atoms: C_27  and  N_28
REMARK   13  A    between atoms: N_28  and  C_29
REMARK   14  A    between atoms: N_28  and  C_30
REMARK                            x       y       z     vdW  Elec       q    Type
REMARK                         _______ _______ _______ _____ _____    ______ ____
ROOT
ATOM      1  C   UNL     1       2.077   8.964  18.066  0.00  0.00    +0.000 A 
ATOM      2  N   UNL     1       2.615  10.144  18.304  0.00  0.00    +0.000 NA
ATOM      3  C   UNL     1       1.565  11.000  18.561  0.00  0.00    +0.000 A 
ATOM      4  C   UNL     1       0.345  10.360  18.377  0.00  0.00    +0.000 A 
ATOM      5  N   UNL     1       0.710   9.068  18.079  0.00  0.00    +0.000 N 
ATOM      6  H   UNL     1       0.072   8.316  17.871  0.00  0.00    +0.000 HD
ENDROOT
BRANCH   1  10
ATOM      7  C   UNL     1       4.119   5.269  17.300  0.00  0.00    +0.000 A 
ATOM      8  C   UNL     1       4.678   6.491  16.884  0.00  0.00    +0.000 A 
ATOM      9  C   UNL     1       4.022   7.694  17.141  0.00  0.00    +0.000 A 
ATOM     10  C   UNL     1       2.790   7.712  17.808  0.00  0.00    +0.000 A 
ATOM     11  C   UNL     1       2.223   6.495  18.200  0.00  0.00    +0.000 A 
ATOM     12  C   UNL     1       2.881   5.286  17.955  0.00  0.00    +0.000 A 
BRANCH   7  13
ATOM     13  C   UNL     1       4.822   3.968  17.012  0.00  0.00    +0.000 C 
BRANCH  13  14
ATOM     14  C   UNL     1       5.698   4.050  15.765  0.00  0.00    +0.000 C 
BRANCH  14  15
ATOM     15  C   UNL     1       7.074   4.570  16.090  0.00  0.00    +0.000 C 
ATOM     16  O   UNL     1       7.660   4.420  17.152  0.00  0.00    +0.000 OA
BRANCH  15  18
ATOM     17  C   UNL     1       7.012   4.804  13.761  0.00  0.00    +0.000 C 
ATOM     18  O   UNL     1       7.573   5.228  15.004  0.00  0.00    +0.000 OA
ENDBRANCH  15  18
ENDBRANCH  14  15
ENDBRANCH  13  14
ENDBRANCH   7  13
ENDBRANCH   1  10
BRANCH   3  19
ATOM     19  C   UNL     1       1.781  12.380  18.968  0.00  0.00    +0.000 A 
ATOM     20  C   UNL     1       1.741  12.738  20.313  0.00  0.00    +0.000 A 
ATOM     21  C   UNL     1       1.968  14.068  20.704  0.00  0.00    +0.000 A 
ATOM     22  C   UNL     1       2.268  15.090  19.783  0.00  0.00    +0.000 A 
ATOM     23  C   UNL     1       2.296  14.698  18.438  0.00  0.00    +0.000 A 
ATOM     24  C   UNL     1       2.026  13.384  18.033  0.00  0.00    +0.000 A 
BRANCH  22  25
ATOM     25  N   UNL     1       2.467  16.405  20.176  0.00  0.00    +0.000 N 
ATOM     26  C   UNL     1       1.350  17.282  20.520  0.00  0.00    +0.000 C 
ATOM     27  C   UNL     1       3.775  16.909  20.588  0.00  0.00    +0.000 C 
ENDBRANCH  22  25
ENDBRANCH   3  19
BRANCH   4  28
ATOM     28  C   UNL     1      -1.054  10.789  18.422  0.00  0.00    +0.000 A 
ATOM     29  C   UNL     1      -1.955  10.402  17.432  0.00  0.00    +0.000 A 
ATOM     30  C   UNL     1      -3.276  10.868  17.434  0.00  0.00    +0.000 A 
ATOM     31  C   UNL     1      -3.787  11.676  18.459  0.00  0.00    +0.000 A 
ATOM     32  C   UNL     1      -2.873  12.029  19.465  0.00  0.00    +0.000 A 
ATOM     33  C   UNL     1      -1.532  11.609  19.444  0.00  0.00    +0.000 A 
BRANCH  31  34
ATOM     34  N   UNL     1      -5.099  12.124  18.434  0.00  0.00    +0.000 N 
ATOM     35  C   UNL     1      -5.614  12.994  19.491  0.00  0.00    +0.000 C 
ATOM     36  C   UNL     1      -5.916  12.096  17.224  0.00  0.00    +0.000 C 
ENDBRANCH  31  34
ENDBRANCH   4  28
TORSDOF 9
ENDMDL
MODEL 8
REMARK VINA RESULT:      -7.6      1.275      5.413
REMARK  Name = 
REMARK  14 active torsions:
REMARK  status: ('A' for Active; 'I' for Inactive)
REMARK    1  A    between atoms: C_1  and  O_2
REMARK    2  A    between atoms: O_2  and  C_3
REMARK    3  A    between atoms: C_3  and  C_5
REMARK    4  A    between atoms: C_5  and  C_6
REMARK    5  A    between atoms: C_6  and  C_7
REMARK    6  A    between atoms: C_10  and  C_11
REMARK    7  A    between atoms: C_13  and  C_14
REMARK    8  A    between atoms: C_17  and  N_18
REMARK    9  A    between atoms: N_18  and  C_19
REMARK   10  A    between atoms: N_18  and  C_20
REMARK   11  A    between atoms: C_23  and  C_24
REMARK   12  A    between atoms: C_27  and  N_28
REMARK   13  A    between atoms: N_28  and  C_29
REMARK   14  A    between atoms: N_28  and  C_30
REMARK                            x       y       z     vdW  Elec       q    Type
REMARK                         _______ _______ _______ _____ _____    ______ ____
ROOT
ATOM      1  C   UNL     1       1.271   9.482  18.592  0.00  0.00    +0.000 A 
ATOM      2  N   UNL     1      -0.047   9.490  18.598  0.00  0.00    +0.000 NA
ATOM      3  C   UNL     1      -0.423  10.813  18.498  0.00  0.00    +0.000 A 
ATOM      4  C   UNL     1       0.687  11.650  18.534  0.00  0.00    +0.000 A 
ATOM      5  N   UNL     1       1.743  10.770  18.579  0.00  0.00    +0.000 N 
ATOM      6  H   UNL     1       2.715  11.029  18.626  0.00  0.00    +0.000 HD
ENDROOT
BRANCH   1  10
ATOM      7  C   UNL     1       3.780   6.002  18.668  0.00  0.00    +0.000 A 
ATOM      8  C   UNL     1       3.865   6.918  17.604  0.00  0.00    +0.000 A 
ATOM      9  C   UNL     1       3.058   8.055  17.581  0.00  0.00    +0.000 A 
ATOM     10  C   UNL     1       2.141   8.304  18.610  0.00  0.00    +0.000 A 
ATOM     11  C   UNL     1       2.040   7.382  19.656  0.00  0.00    +0.000 A 
ATOM     12  C   UNL     1       2.854   6.245  19.690  0.00  0.00    +0.000 A 
BRANCH   7  13
ATOM     13  C   UNL     1       4.643   4.767  18.687  0.00  0.00    +0.000 C 
BRANCH  13  14
ATOM     14  C   UNL     1       5.330   4.524  17.346  0.00  0.00    +0.000 C 
BRANCH  14  15
ATOM     15  C   UNL     1       6.826   4.657  17.460  0.00  0.00    +0.000 C 
ATOM     16  O   UNL     1       7.616   4.640  16.527  0.00  0.00    +0.000 OA
BRANCH  15  18
ATOM     17  C   UNL     1       7.917   5.997  19.040  0.00  0.00    +0.000 C 
ATOM     18  O   UNL     1       7.164   4.814  18.772  0.00  0.00    +0.000 OA
ENDBRANCH  15  18
ENDBRANCH  14  15
ENDBRANCH  13  14
ENDBRANCH   7  13
ENDBRANCH   1  10
BRANCH   3  19
ATOM     19  C   UNL     1      -1.818  11.208  18.372  0.00  0.00    +0.000 A 
ATOM     20  C   UNL     1      -2.491  11.060  17.163  0.00  0.00    +0.000 A 
ATOM     21  C   UNL     1      -3.843  11.425  17.050  0.00  0.00    +0.000 A 
ATOM     22  C   UNL     1      -4.587  11.928  18.134  0.00  0.00    +0.000 A 
ATOM     23  C   UNL     1      -3.879  12.070  19.335  0.00  0.00    +0.000 A 
ATOM     24  C   UNL     1      -2.519  11.752  19.447  0.00  0.00    +0.000 A 
BRANCH  22  25
ATOM     25  N   UNL     1      -5.915  12.309  18.008  0.00  0.00    +0.000 N 
ATOM     26  C   UNL     1      -6.350  13.249  16.978  0.00  0.00    +0.000 C 
ATOM     27  C   UNL     1      -7.003  11.576  18.651  0.00  0.00    +0.000 C 
ENDBRANCH  22  25
ENDBRANCH   3  19
BRANCH   4  28
ATOM     28  C   UNL     1       0.875  13.101  18.553  0.00  0.00    +0.000 A 
ATOM     29  C   UNL     1       2.142  13.662  18.408  0.00  0.00    +0.000 A 
ATOM     30  C   UNL     1       2.335  15.047  18.496  0.00  0.00    +0.000 A 
ATOM     31  C   UNL     1       1.271  15.946  18.655  0.00  0.00    +0.000 A 
ATOM     32  C   UNL     1      -0.002  15.364  18.766  0.00  0.00    +0.000 A 
ATOM     33  C   UNL     1      -0.200  13.973  18.731  0.00  0.00    +0.000 A 
BRANCH  31  34
ATOM     34  N   UNL     1       1.491  17.312  18.740  0.00  0.00    +0.000 N 
ATOM     35  C   UNL     1       0.934  18.225  17.743  0.00  0.00    +0.000 C 
ATOM     36  C   UNL     1       1.935  17.960  19.971  0.00  0.00    +0.000 C 
ENDBRANCH  31  34
ENDBRANCH   4  28
TORSDOF 9
ENDMDL
MODEL 9
REMARK VINA RESULT:      -7.6      1.033      5.272
REMARK  Name = 
REMARK  14 active torsions:
REMARK  status: ('A' for Active; 'I' for Inactive)
REMARK    1  A    between atoms: C_1  and  O_2
REMARK    2  A    between atoms: O_2  and  C_3
REMARK    3  A    between atoms: C_3  and  C_5
REMARK    4  A    between atoms: C_5  and  C_6
REMARK    5  A    between atoms: C_6  and  C_7
REMARK    6  A    between atoms: C_10  and  C_11
REMARK    7  A    between atoms: C_13  and  C_14
REMARK    8  A    between atoms: C_17  and  N_18
REMARK    9  A    between atoms: N_18  and  C_19
REMARK   10  A    between atoms: N_18  and  C_20
REMARK   11  A    between atoms: C_23  and  C_24
REMARK   12  A    between atoms: C_27  and  N_28
REMARK   13  A    between atoms: N_28  and  C_29
REMARK   14  A    between atoms: N_28  and  C_30
REMARK                            x       y       z     vdW  Elec       q    Type
REMARK                         _______ _______ _______ _____ _____    ______ ____
ROOT
ATOM      1  C   UNL     1       1.944   8.826  18.151  0.00  0.00    +0.000 A 
ATOM      2  N   UNL     1       0.632   8.908  18.239  0.00  0.00    +0.000 NA
ATOM      3  C   UNL     1       0.344  10.241  18.446  0.00  0.00    +0.000 A 
ATOM      4  C   UNL     1       1.510  10.985  18.591  0.00  0.00    +0.000 A 
ATOM      5  N   UNL     1       2.503  10.057  18.382  0.00  0.00    +0.000 N 
ATOM      6  H   UNL     1       3.492  10.243  18.423  0.00  0.00    +0.000 HD
ENDROOT
BRANCH   1  10
ATOM      7  C   UNL     1       4.202   5.277  17.303  0.00  0.00    +0.000 A 
ATOM      8  C   UNL     1       4.709   6.543  16.959  0.00  0.00    +0.000 A 
ATOM      9  C   UNL     1       3.983   7.699  17.242  0.00  0.00    +0.000 A 
ATOM     10  C   UNL     1       2.730   7.624  17.865  0.00  0.00    +0.000 A 
ATOM     11  C   UNL     1       2.216   6.364  18.187  0.00  0.00    +0.000 A 
ATOM     12  C   UNL     1       2.945   5.202  17.915  0.00  0.00    +0.000 A 
BRANCH   7  13
ATOM     13  C   UNL     1       4.983   4.027  16.987  0.00  0.00    +0.000 C 
BRANCH  13  14
ATOM     14  C   UNL     1       5.735   4.137  15.664  0.00  0.00    +0.000 C 
BRANCH  14  15
ATOM     15  C   UNL     1       7.148   4.617  15.870  0.00  0.00    +0.000 C 
ATOM     16  O   UNL     1       7.866   4.331  16.817  0.00  0.00    +0.000 OA
BRANCH  15  18
ATOM     17  C   UNL     1       7.186   4.872  13.543  0.00  0.00    +0.000 C 
ATOM     18  O   UNL     1       7.509   5.414  14.824  0.00  0.00    +0.000 OA
ENDBRANCH  15  18
ENDBRANCH  14  15
ENDBRANCH  13  14
ENDBRANCH   7  13
ENDBRANCH   1  10
BRANCH   3  19
ATOM     19  C   UNL     1      -1.025  10.733  18.493  0.00  0.00    +0.000 A 
ATOM     20  C   UNL     1      -1.432  11.601  19.502  0.00  0.00    +0.000 A 
ATOM     21  C   UNL     1      -2.750  12.089  19.534  0.00  0.00    +0.000 A 
ATOM     22  C   UNL     1      -3.707  11.756  18.557  0.00  0.00    +0.000 A 
ATOM     23  C   UNL     1      -3.266  10.876  17.558  0.00  0.00    +0.000 A 
ATOM     24  C   UNL     1      -1.968  10.348  17.543  0.00  0.00    +0.000 A 
BRANCH  22  25
ATOM     25  N   UNL     1      -5.012  12.222  18.609  0.00  0.00    +0.000 N 
ATOM     26  C   UNL     1      -6.095  11.559  17.886  0.00  0.00    +0.000 C 
ATOM     27  C   UNL     1      -5.462  13.177  19.620  0.00  0.00    +0.000 C 
ENDBRANCH  22  25
ENDBRANCH   3  19
BRANCH   4  28
ATOM     28  C   UNL     1       1.798  12.385  18.906  0.00  0.00    +0.000 A 
ATOM     29  C   UNL     1       2.179  13.281  17.909  0.00  0.00    +0.000 A 
ATOM     30  C   UNL     1       2.524  14.603  18.218  0.00  0.00    +0.000 A 
ATOM     31  C   UNL     1       2.434  15.120  19.517  0.00  0.00    +0.000 A 
ATOM     32  C   UNL     1       2.017  14.211  20.503  0.00  0.00    +0.000 A 
ATOM     33  C   UNL     1       1.719  12.869  20.212  0.00  0.00    +0.000 A 
BRANCH  31  34
ATOM     34  N   UNL     1       2.783  16.433  19.795  0.00  0.00    +0.000 N 
ATOM     35  C   UNL     1       4.181  16.861  19.757  0.00  0.00    +0.000 C 
ATOM     36  C   UNL     1       1.816  17.526  19.762  0.00  0.00    +0.000 C 
ENDBRANCH  31  34
ENDBRANCH   4  28
TORSDOF 9
ENDMDL
