MODEL 1
REMARK VINA RESULT:      -9.2      0.000      0.000
REMARK  Name = 
REMARK  12 active torsions:
REMARK  status: ('A' for Active; 'I' for Inactive)
REMARK    1  A    between atoms: C_2  and  C_3
REMARK    2  A    between atoms: C_3  and  C_4
REMARK    3  A    between atoms: C_4  and  C_5
REMARK    4  A    between atoms: C_4  and  C_11
REMARK    5  A    between atoms: N_17  and  CA_18
REMARK    6  A    between atoms: CA_18  and  C_19
REMARK    7  A    between atoms: CA_18  and  C_34
REMARK    8  A    between atoms: C_19  and  C_20
REMARK    9  A    between atoms: C_23  and  O_24
REMARK   10  A    between atoms: O_24  and  C_25
REMARK   11  A    between atoms: C_25  and  C_26
REMARK   12  A    between atoms: C_34  and  OXT_36
REMARK                            x       y       z     vdW  Elec       q    Type
REMARK                         _______ _______ _______ _____ _____    ______ ____
ROOT
ATOM      1  CA  UNL     1       3.646   4.591  19.775  0.00  0.00    +0.000 C 
ENDROOT
BRANCH   1   4
ATOM      2  O   UNL     1       2.955   3.066  17.386  0.00  0.00    +0.000 OA
ATOM      3  C   UNL     1       3.707   4.023  17.307  0.00  0.00    +0.000 C 
ATOM      4  N   UNL     1       4.118   4.760  18.397  0.00  0.00    +0.000 N 
ATOM      5  H   UNL     1       4.620   5.632  18.228  0.00  0.00    +0.000 HD
BRANCH   3   6
ATOM      6  C   UNL     1       4.390   4.495  16.028  0.00  0.00    +0.000 C 
BRANCH   6   7
ATOM      7  C   UNL     1       5.897   4.193  15.902  0.00  0.00    +0.000 C 
BRANCH   7   8
ATOM      8  C   UNL     1       6.313   4.270  14.426  0.00  0.00    +0.000 A 
ATOM      9  C   UNL     1       5.742   3.441  13.445  0.00  0.00    +0.000 A 
ATOM     10  C   UNL     1       6.215   3.442  12.133  0.00  0.00    +0.000 A 
ATOM     11  C   UNL     1       7.276   4.267  11.777  0.00  0.00    +0.000 A 
ATOM     12  C   UNL     1       7.841   5.115  12.727  0.00  0.00    +0.000 A 
ATOM     13  C   UNL     1       7.356   5.126  14.038  0.00  0.00    +0.000 A 
ENDBRANCH   7   8
BRANCH   7  14
ATOM     14  C   UNL     1       6.749   5.126  16.788  0.00  0.00    +0.000 A 
ATOM     15  C   UNL     1       6.645   6.519  16.635  0.00  0.00    +0.000 A 
ATOM     16  C   UNL     1       7.271   7.387  17.536  0.00  0.00    +0.000 A 
ATOM     17  C   UNL     1       8.009   6.883  18.605  0.00  0.00    +0.000 A 
ATOM     18  C   UNL     1       8.157   5.508  18.751  0.00  0.00    +0.000 A 
ATOM     19  C   UNL     1       7.544   4.639  17.845  0.00  0.00    +0.000 A 
ENDBRANCH   7  14
ENDBRANCH   6   7
ENDBRANCH   3   6
ENDBRANCH   1   4
BRANCH   1  20
ATOM     20  C   UNL     1       3.854   3.104  20.127  0.00  0.00    +0.000 C 
ATOM     21  O   UNL     1       4.966   2.582  20.156  0.00  0.00    +0.000 OA
BRANCH  20  22
ATOM     22  OXT UNL     1       2.745   2.413  20.457  0.00  0.00    +0.000 OA
ATOM     23  HXT UNL     1       1.954   2.594  19.918  0.00  0.00    +0.000 HD
ENDBRANCH  20  22
ENDBRANCH   1  20
BRANCH   1  24
ATOM     24  C   UNL     1       2.203   5.075  20.018  0.00  0.00    +0.000 C 
BRANCH  24  25
ATOM     25  C   UNL     1       1.872   6.553  19.952  0.00  0.00    +0.000 A 
ATOM     26  C   UNL     1       2.154   7.373  18.853  0.00  0.00    +0.000 A 
ATOM     27  C   UNL     1       1.804   8.725  18.857  0.00  0.00    +0.000 A 
ATOM     28  C   UNL     1       1.163   9.289  19.956  0.00  0.00    +0.000 A 
ATOM     29  C   UNL     1       0.912   8.504  21.075  0.00  0.00    +0.000 A 
ATOM     30  C   UNL     1       1.263   7.148  21.071  0.00  0.00    +0.000 A 
BRANCH  28  31
ATOM     31  O   UNL     1       0.904  10.629  19.871  0.00  0.00    +0.000 OA
BRANCH  31  32
ATOM     32  C   UNL     1       0.498  11.109  18.583  0.00  0.00    +0.000 C 
BRANCH  32  33
ATOM     33  C   UNL     1      -0.983  10.941  18.308  0.00  0.00    +0.000 A 
ATOM     34  C   UNL     1      -1.487   9.937  17.470  0.00  0.00    +0.000 A 
ATOM     35  C   UNL     1      -2.859   9.839  17.222  0.00  0.00    +0.000 A 
ATOM     36  C   UNL     1      -3.743  10.738  17.813  0.00  0.00    +0.000 A 
ATOM     37  C   UNL     1      -3.260  11.732  18.660  0.00  0.00    +0.000 A 
ATOM     38  C   UNL     1      -1.890  11.833  18.906  0.00  0.00    +0.000 A 
ENDBRANCH  32  33
ENDBRANCH  31  32
ENDBRANCH  28  31
ENDBRANCH  24  25
ENDBRANCH   1  24
TORSDOF 12
ENDMDL
MODEL 2
REMARK VINA RESULT:      -9.2      1.019      3.372
REMARK  Name = 
REMARK  12 active torsions:
REMARK  status: ('A' for Active; 'I' for Inactive)
REMARK    1  A    between atoms: C_2  and  C_3
REMARK    2  A    between atoms: C_3  and  C_4
REMARK    3  A    between atoms: C_4  and  C_5
REMARK    4  A    between atoms: C_4  and  C_11
REMARK    5  A    between atoms: N_17  and  CA_18
REMARK    6  A    between atoms: CA_18  and  C_19
REMARK    7  A    between atoms: CA_18  and  C_34
REMARK    8  A    between atoms: C_19  and  C_20
REMARK    9  A    between atoms: C_23  and  O_24
REMARK   10  A    between atoms: O_24  and  C_25
REMARK   11  A    between atoms: C_25  and  C_26
REMARK   12  A    between atoms: C_34  and  OXT_36
REMARK                            x       y       z     vdW  Elec       q    Type
REMARK                         _______ _______ _______ _____ _____    ______ ____
ROOT
ATOM      1  CA  UNL     1       2.739   4.061  19.415  0.00  0.00    +0.000 C 
ENDROOT
BRANCH   1   4
ATOM      2  O   UNL     1       3.479   1.676  17.907  0.00  0.00    +0.000 OA
ATOM      3  C   UNL     1       4.061   2.730  17.713  0.00  0.00    +0.000 C 
ATOM      4  N   UNL     1       3.802   3.885  18.421  0.00  0.00    +0.000 N 
ATOM      5  H   UNL     1       4.221   4.755  18.093  0.00  0.00    +0.000 HD
BRANCH   3   6
ATOM      6  C   UNL     1       5.224   2.921  16.745  0.00  0.00    +0.000 C 
BRANCH   6   7
ATOM      7  C   UNL     1       5.319   4.294  16.048  0.00  0.00    +0.000 C 
BRANCH   7   8
ATOM      8  C   UNL     1       6.113   5.265  16.934  0.00  0.00    +0.000 A 
ATOM      9  C   UNL     1       6.012   6.660  16.789  0.00  0.00    +0.000 A 
ATOM     10  C   UNL     1       6.828   7.523  17.521  0.00  0.00    +0.000 A 
ATOM     11  C   UNL     1       7.767   7.007  18.407  0.00  0.00    +0.000 A 
ATOM     12  C   UNL     1       7.866   5.630  18.585  0.00  0.00    +0.000 A 
ATOM     13  C   UNL     1       7.039   4.765  17.864  0.00  0.00    +0.000 A 
ENDBRANCH   7   8
BRANCH   7  14
ATOM     14  C   UNL     1       5.927   4.182  14.633  0.00  0.00    +0.000 A 
ATOM     15  C   UNL     1       5.231   3.487  13.630  0.00  0.00    +0.000 A 
ATOM     16  C   UNL     1       5.671   3.516  12.301  0.00  0.00    +0.000 A 
ATOM     17  C   UNL     1       6.810   4.240  11.952  0.00  0.00    +0.000 A 
ATOM     18  C   UNL     1       7.535   4.902  12.937  0.00  0.00    +0.000 A 
ATOM     19  C   UNL     1       7.105   4.862  14.265  0.00  0.00    +0.000 A 
ENDBRANCH   7  14
ENDBRANCH   6   7
ENDBRANCH   3   6
ENDBRANCH   1   4
BRANCH   1  20
ATOM     20  C   UNL     1       1.405   3.961  18.648  0.00  0.00    +0.000 C 
ATOM     21  O   UNL     1       1.305   4.245  17.457  0.00  0.00    +0.000 OA
BRANCH  20  22
ATOM     22  OXT UNL     1       0.354   3.489  19.348  0.00  0.00    +0.000 OA
ATOM     23  HXT UNL     1      -0.223   2.860  18.878  0.00  0.00    +0.000 HD
ENDBRANCH  20  22
ENDBRANCH   1  20
BRANCH   1  24
ATOM     24  C   UNL     1       2.860   5.347  20.256  0.00  0.00    +0.000 C 
BRANCH  24  25
ATOM     25  C   UNL     1       2.422   6.679  19.679  0.00  0.00    +0.000 A 
ATOM     26  C   UNL     1       2.751   7.124  18.393  0.00  0.00    +0.000 A 
ATOM     27  C   UNL     1       2.296   8.358  17.923  0.00  0.00    +0.000 A 
ATOM     28  C   UNL     1       1.501   9.174  18.722  0.00  0.00    +0.000 A 
ATOM     29  C   UNL     1       1.198   8.771  20.017  0.00  0.00    +0.000 A 
ATOM     30  C   UNL     1       1.654   7.533  20.490  0.00  0.00    +0.000 A 
BRANCH  28  31
ATOM     31  O   UNL     1       1.147  10.378  18.178  0.00  0.00    +0.000 OA
BRANCH  31  32
ATOM     32  C   UNL     1       0.140  11.114  18.884  0.00  0.00    +0.000 C 
BRANCH  32  33
ATOM     33  C   UNL     1      -1.260  10.908  18.341  0.00  0.00    +0.000 A 
ATOM     34  C   UNL     1      -1.557   9.961  17.352  0.00  0.00    +0.000 A 
ATOM     35  C   UNL     1      -2.859   9.827  16.861  0.00  0.00    +0.000 A 
ATOM     36  C   UNL     1      -3.880  10.634  17.358  0.00  0.00    +0.000 A 
ATOM     37  C   UNL     1      -3.605  11.568  18.353  0.00  0.00    +0.000 A 
ATOM     38  C   UNL     1      -2.305  11.704  18.842  0.00  0.00    +0.000 A 
ENDBRANCH  32  33
ENDBRANCH  31  32
ENDBRANCH  28  31
ENDBRANCH  24  25
ENDBRANCH   1  24
TORSDOF 12
ENDMDL
MODEL 3
REMARK VINA RESULT:      -9.1      1.038      1.572
REMARK  Name = 
REMARK  12 active torsions:
REMARK  status: ('A' for Active; 'I' for Inactive)
REMARK    1  A    between atoms: C_2  and  C_3
REMARK    2  A    between atoms: C_3  and  C_4
REMARK    3  A    between atoms: C_4  and  C_5
REMARK    4  A    between atoms: C_4  and  C_11
REMARK    5  A    between atoms: N_17  and  CA_18
REMARK    6  A    between atoms: CA_18  and  C_19
REMARK    7  A    between atoms: CA_18  and  C_34
REMARK    8  A    between atoms: C_19  and  C_20
REMARK    9  A    between atoms: C_23  and  O_24
REMARK   10  A    between atoms: O_24  and  C_25
REMARK   11  A    between atoms: C_25  and  C_26
REMARK   12  A    between atoms: C_34  and  OXT_36
REMARK                            x       y       z     vdW  Elec       q    Type
REMARK                         _______ _______ _______ _____ _____    ______ ____
ROOT
ATOM      1  CA  UNL     1       2.531   3.532  19.622  0.00  0.00    +0.000 C 
ENDROOT
BRANCH   1   4
ATOM      2  O   UNL     1       5.340   3.190  18.914  0.00  0.00    +0.000 OA
ATOM      3  C   UNL     1       4.528   3.518  18.064  0.00  0.00    +0.000 C 
ATOM      4  N   UNL     1       3.196   3.748  18.333  0.00  0.00    +0.000 N 
ATOM      5  H   UNL     1       2.559   3.867  17.545  0.00  0.00    +0.000 HD
BRANCH   3   6
ATOM      6  C   UNL     1       4.862   3.827  16.609  0.00  0.00    +0.000 C 
BRANCH   6   7
ATOM      7  C   UNL     1       6.324   4.214  16.307  0.00  0.00    +0.000 C 
BRANCH   7   8
ATOM      8  C   UNL     1       6.524   4.314  14.788  0.00  0.00    +0.000 A 
ATOM      9  C   UNL     1       5.748   3.570  13.882  0.00  0.00    +0.000 A 
ATOM     10  C   UNL     1       6.022   3.584  12.514  0.00  0.00    +0.000 A 
ATOM     11  C   UNL     1       7.084   4.336  12.026  0.00  0.00    +0.000 A 
ATOM     12  C   UNL     1       7.851   5.100  12.902  0.00  0.00    +0.000 A 
ATOM     13  C   UNL     1       7.567   5.099  14.270  0.00  0.00    +0.000 A 
ENDBRANCH   7   8
BRANCH   7  14
ATOM     14  C   UNL     1       6.737   5.515  17.027  0.00  0.00    +0.000 A 
ATOM     15  C   UNL     1       7.677   5.466  18.070  0.00  0.00    +0.000 A 
ATOM     16  C   UNL     1       8.198   6.642  18.621  0.00  0.00    +0.000 A 
ATOM     17  C   UNL     1       7.791   7.886  18.141  0.00  0.00    +0.000 A 
ATOM     18  C   UNL     1       6.833   7.957  17.137  0.00  0.00    +0.000 A 
ATOM     19  C   UNL     1       6.302   6.784  16.594  0.00  0.00    +0.000 A 
ENDBRANCH   7  14
ENDBRANCH   6   7
ENDBRANCH   3   6
ENDBRANCH   1   4
BRANCH   1  20
ATOM     20  C   UNL     1       1.067   3.167  19.300  0.00  0.00    +0.000 C 
ATOM     21  O   UNL     1       0.661   3.019  18.151  0.00  0.00    +0.000 OA
BRANCH  20  22
ATOM     22  OXT UNL     1       0.262   2.962  20.362  0.00  0.00    +0.000 OA
ATOM     23  HXT UNL     1      -0.690   2.883  20.166  0.00  0.00    +0.000 HD
ENDBRANCH  20  22
ENDBRANCH   1  20
BRANCH   1  24
ATOM     24  C   UNL     1       2.658   4.708  20.610  0.00  0.00    +0.000 C 
BRANCH  24  25
ATOM     25  C   UNL     1       2.267   6.110  20.181  0.00  0.00    +0.000 A 
ATOM     26  C   UNL     1       2.652   6.696  18.969  0.00  0.00    +0.000 A 
ATOM     27  C   UNL     1       2.238   7.988  18.634  0.00  0.00    +0.000 A 
ATOM     28  C   UNL     1       1.430   8.722  19.497  0.00  0.00    +0.000 A 
ATOM     29  C   UNL     1       1.073   8.175  20.724  0.00  0.00    +0.000 A 
ATOM     30  C   UNL     1       1.487   6.880  21.061  0.00  0.00    +0.000 A 
BRANCH  28  31
ATOM     31  O   UNL     1       1.120   9.989  19.089  0.00  0.00    +0.000 OA
BRANCH  31  32
ATOM     32  C   UNL     1       0.423  10.094  17.841  0.00  0.00    +0.000 C 
BRANCH  32  33
ATOM     33  C   UNL     1      -1.034  10.488  17.987  0.00  0.00    +0.000 A 
ATOM     34  C   UNL     1      -2.050   9.934  17.196  0.00  0.00    +0.000 A 
ATOM     35  C   UNL     1      -3.376  10.351  17.347  0.00  0.00    +0.000 A 
ATOM     36  C   UNL     1      -3.702  11.319  18.293  0.00  0.00    +0.000 A 
ATOM     37  C   UNL     1      -2.706  11.867  19.098  0.00  0.00    +0.000 A 
ATOM     38  C   UNL     1      -1.382  11.454  18.947  0.00  0.00    +0.000 A 
ENDBRANCH  32  33
ENDBRANCH  31  32
ENDBRANCH  28  31
ENDBRANCH  24  25
ENDBRANCH   1  24
TORSDOF 12
ENDMDL
MODEL 4
REMARK VINA RESULT:      -8.9      1.772      4.197
REMARK  Name = 
REMARK  12 active torsions:
REMARK  status: ('A' for Active; 'I' for Inactive)
REMARK    1  A    between atoms: C_2  and  C_3
REMARK    2  A    between atoms: C_3  and  C_4
REMARK    3  A    between atoms: C_4  and  C_5
REMARK    4  A    between atoms: C_4  and  C_11
REMARK    5  A    between atoms: N_17  and  CA_18
REMARK    6  A    between atoms: CA_18  and  C_19
REMARK    7  A    between atoms: CA_18  and  C_34
REMARK    8  A    between atoms: C_19  and  C_20
REMARK    9  A    between atoms: C_23  and  O_24
REMARK   10  A    between atoms: O_24  and  C_25
REMARK   11  A    between atoms: C_25  and  C_26
REMARK   12  A    between atoms: C_34  and  OXT_36
REMARK                            x       y       z     vdW  Elec       q    Type
REMARK                         _______ _______ _______ _____ _____    ______ ____
ROOT
ATOM      1  CA  UNL     1       2.866   4.270  19.354  0.00  0.00    +0.000 C 
ENDROOT
BRANCH   1   4
ATOM      2  O   UNL     1       3.786   1.752  18.203  0.00  0.00    +0.000 OA
ATOM      3  C   UNL     1       4.112   2.814  17.697  0.00  0.00    +0.000 C 
ATOM      4  N   UNL     1       3.758   4.042  18.213  0.00  0.00    +0.000 N 
ATOM      5  H   UNL     1       3.940   4.872  17.647  0.00  0.00    +0.000 HD
BRANCH   3   6
ATOM      6  C   UNL     1       5.034   2.961  16.492  0.00  0.00    +0.000 C 
BRANCH   6   7
ATOM      7  C   UNL     1       5.187   4.382  15.914  0.00  0.00    +0.000 C 
BRANCH   7   8
ATOM      8  C   UNL     1       6.057   5.228  16.855  0.00  0.00    +0.000 A 
ATOM      9  C   UNL     1       5.964   6.630  16.898  0.00  0.00    +0.000 A 
ATOM     10  C   UNL     1       6.843   7.389  17.671  0.00  0.00    +0.000 A 
ATOM     11  C   UNL     1       7.838   6.761  18.411  0.00  0.00    +0.000 A 
ATOM     12  C   UNL     1       7.932   5.371  18.403  0.00  0.00    +0.000 A 
ATOM     13  C   UNL     1       7.042   4.610  17.641  0.00  0.00    +0.000 A 
ENDBRANCH   7   8
BRANCH   7  14
ATOM     14  C   UNL     1       5.750   4.363  14.476  0.00  0.00    +0.000 A 
ATOM     15  C   UNL     1       6.958   5.021  14.192  0.00  0.00    +0.000 A 
ATOM     16  C   UNL     1       7.577   4.875  12.945  0.00  0.00    +0.000 A 
ATOM     17  C   UNL     1       7.003   4.070  11.963  0.00  0.00    +0.000 A 
ATOM     18  C   UNL     1       5.788   3.442  12.211  0.00  0.00    +0.000 A 
ATOM     19  C   UNL     1       5.161   3.597  13.450  0.00  0.00    +0.000 A 
ENDBRANCH   7  14
ENDBRANCH   6   7
ENDBRANCH   3   6
ENDBRANCH   1   4
BRANCH   1  20
ATOM     20  C   UNL     1       1.428   4.114  18.818  0.00  0.00    +0.000 C 
ATOM     21  O   UNL     1       1.153   4.212  17.625  0.00  0.00    +0.000 OA
BRANCH  20  22
ATOM     22  OXT UNL     1       0.486   3.807  19.733  0.00  0.00    +0.000 OA
ATOM     23  HXT UNL     1       0.082   4.561  20.198  0.00  0.00    +0.000 HD
ENDBRANCH  20  22
ENDBRANCH   1  20
BRANCH   1  24
ATOM     24  C   UNL     1       3.097   5.605  20.088  0.00  0.00    +0.000 C 
BRANCH  24  25
ATOM     25  C   UNL     1       2.510   6.890  19.537  0.00  0.00    +0.000 A 
ATOM     26  C   UNL     1       2.719   7.354  18.233  0.00  0.00    +0.000 A 
ATOM     27  C   UNL     1       2.130   8.540  17.790  0.00  0.00    +0.000 A 
ATOM     28  C   UNL     1       1.316   9.288  18.635  0.00  0.00    +0.000 A 
ATOM     29  C   UNL     1       1.130   8.869  19.947  0.00  0.00    +0.000 A 
ATOM     30  C   UNL     1       1.720   7.679  20.392  0.00  0.00    +0.000 A 
BRANCH  28  31
ATOM     31  O   UNL     1       0.826  10.453  18.113  0.00  0.00    +0.000 OA
BRANCH  31  32
ATOM     32  C   UNL     1       0.489  11.473  19.060  0.00  0.00    +0.000 C 
BRANCH  32  33
ATOM     33  C   UNL     1       1.569  12.521  19.241  0.00  0.00    +0.000 A 
ATOM     34  C   UNL     1       2.305  13.041  18.167  0.00  0.00    +0.000 A 
ATOM     35  C   UNL     1       3.313  13.984  18.386  0.00  0.00    +0.000 A 
ATOM     36  C   UNL     1       3.592  14.424  19.678  0.00  0.00    +0.000 A 
ATOM     37  C   UNL     1       2.858  13.929  20.753  0.00  0.00    +0.000 A 
ATOM     38  C   UNL     1       1.854  12.985  20.537  0.00  0.00    +0.000 A 
ENDBRANCH  32  33
ENDBRANCH  31  32
ENDBRANCH  28  31
ENDBRANCH  24  25
ENDBRANCH   1  24
TORSDOF 12
ENDMDL
MODEL 5
REMARK VINA RESULT:      -8.9      2.866      6.142
REMARK  Name = 
REMARK  12 active torsions:
REMARK  status: ('A' for Active; 'I' for Inactive)
REMARK    1  A    between atoms: C_2  and  C_3
REMARK    2  A    between atoms: C_3  and  C_4
REMARK    3  A    between atoms: C_4  and  C_5
REMARK    4  A    between atoms: C_4  and  C_11
REMARK    5  A    between atoms: N_17  and  CA_18
REMARK    6  A    between atoms: CA_18  and  C_19
REMARK    7  A    between atoms: CA_18  and  C_34
REMARK    8  A    between atoms: C_19  and  C_20
REMARK    9  A    between atoms: C_23  and  O_24
REMARK   10  A    between atoms: O_24  and  C_25
REMARK   11  A    between atoms: C_25  and  C_26
REMARK   12  A    between atoms: C_34  and  OXT_36
REMARK                            x       y       z     vdW  Elec       q    Type
REMARK                         _______ _______ _______ _____ _____    ______ ____
ROOT
ATOM      1  CA  UNL     1       1.142  10.089  19.823  0.00  0.00    +0.000 C 
ENDROOT
BRANCH   1   4
ATOM      2  O   UNL     1       2.631   9.261  17.454  0.00  0.00    +0.000 OA
ATOM      3  C   UNL     1       2.157   8.425  18.205  0.00  0.00    +0.000 C 
ATOM      4  N   UNL     1       1.400   8.738  19.313  0.00  0.00    +0.000 N 
ATOM      5  H   UNL     1       1.173   7.990  19.969  0.00  0.00    +0.000 HD
BRANCH   3   6
ATOM      6  C   UNL     1       2.231   6.917  17.991  0.00  0.00    +0.000 C 
BRANCH   6   7
ATOM      7  C   UNL     1       3.288   6.156  18.818  0.00  0.00    +0.000 C 
BRANCH   7   8
ATOM      8  C   UNL     1       2.697   4.826  19.305  0.00  0.00    +0.000 A 
ATOM      9  C   UNL     1       2.919   3.616  18.624  0.00  0.00    +0.000 A 
ATOM     10  C   UNL     1       2.279   2.440  19.013  0.00  0.00    +0.000 A 
ATOM     11  C   UNL     1       1.396   2.451  20.087  0.00  0.00    +0.000 A 
ATOM     12  C   UNL     1       1.180   3.633  20.791  0.00  0.00    +0.000 A 
ATOM     13  C   UNL     1       1.834   4.808  20.412  0.00  0.00    +0.000 A 
ENDBRANCH   7   8
BRANCH   7  14
ATOM     14  C   UNL     1       4.597   5.947  18.028  0.00  0.00    +0.000 A 
ATOM     15  C   UNL     1       5.764   5.556  18.705  0.00  0.00    +0.000 A 
ATOM     16  C   UNL     1       6.916   5.193  17.998  0.00  0.00    +0.000 A 
ATOM     17  C   UNL     1       6.922   5.212  16.604  0.00  0.00    +0.000 A 
ATOM     18  C   UNL     1       5.790   5.633  15.916  0.00  0.00    +0.000 A 
ATOM     19  C   UNL     1       4.644   6.009  16.621  0.00  0.00    +0.000 A 
ENDBRANCH   7  14
ENDBRANCH   6   7
ENDBRANCH   3   6
ENDBRANCH   1   4
BRANCH   1  20
ATOM     20  C   UNL     1       0.290   9.917  21.097  0.00  0.00    +0.000 C 
ATOM     21  O   UNL     1      -0.404   8.924  21.299  0.00  0.00    +0.000 OA
BRANCH  20  22
ATOM     22  OXT UNL     1       0.389  10.903  22.012  0.00  0.00    +0.000 OA
ATOM     23  HXT UNL     1       0.564  10.618  22.927  0.00  0.00    +0.000 HD
ENDBRANCH  20  22
ENDBRANCH   1  20
BRANCH   1  24
ATOM     24  C   UNL     1       0.510  11.047  18.795  0.00  0.00    +0.000 C 
BRANCH  24  25
ATOM     25  C   UNL     1      -0.974  10.969  18.491  0.00  0.00    +0.000 A 
ATOM     26  C   UNL     1      -1.560   9.984  17.686  0.00  0.00    +0.000 A 
ATOM     27  C   UNL     1      -2.939   9.965  17.465  0.00  0.00    +0.000 A 
ATOM     28  C   UNL     1      -3.765  10.925  18.042  0.00  0.00    +0.000 A 
ATOM     29  C   UNL     1      -3.199  11.937  18.810  0.00  0.00    +0.000 A 
ATOM     30  C   UNL     1      -1.816  11.956  19.032  0.00  0.00    +0.000 A 
BRANCH  28  31
ATOM     31  O   UNL     1      -5.092  10.837  17.725  0.00  0.00    +0.000 OA
BRANCH  31  32
ATOM     32  C   UNL     1      -6.000  11.446  18.651  0.00  0.00    +0.000 C 
BRANCH  32  33
ATOM     33  C   UNL     1      -6.398  12.860  18.277  0.00  0.00    +0.000 A 
ATOM     34  C   UNL     1      -6.410  13.912  19.203  0.00  0.00    +0.000 A 
ATOM     35  C   UNL     1      -6.813  15.194  18.818  0.00  0.00    +0.000 A 
ATOM     36  C   UNL     1      -7.201  15.441  17.503  0.00  0.00    +0.000 A 
ATOM     37  C   UNL     1      -7.178  14.410  16.567  0.00  0.00    +0.000 A 
ATOM     38  C   UNL     1      -6.780  13.128  16.951  0.00  0.00    +0.000 A 
ENDBRANCH  32  33
ENDBRANCH  31  32
ENDBRANCH  28  31
ENDBRANCH  24  25
ENDBRANCH   1  24
TORSDOF 12
ENDMDL
MODEL 6
REMARK VINA RESULT:      -8.8      1.028      1.712
REMARK  Name = 
REMARK  12 active torsions:
REMARK  status: ('A' for Active; 'I' for Inactive)
REMARK    1  A    between atoms: C_2  and  C_3
REMARK    2  A    between atoms: C_3  and  C_4
REMARK    3  A    between atoms: C_4  and  C_5
REMARK    4  A    between atoms: C_4  and  C_11
REMARK    5  A    between atoms: N_17  and  CA_18
REMARK    6  A    between atoms: CA_18  and  C_19
REMARK    7  A    between atoms: CA_18  and  C_34
REMARK    8  A    between atoms: C_19  and  C_20
REMARK    9  A    between atoms: C_23  and  O_24
REMARK   10  A    between atoms: O_24  and  C_25
REMARK   11  A    between atoms: C_25  and  C_26
REMARK   12  A    between atoms: C_34  and  OXT_36
REMARK                            x       y       z     vdW  Elec       q    Type
REMARK                         _______ _______ _______ _____ _____    ______ ____
ROOT
ATOM      1  CA  UNL     1       2.525   3.652  19.881  0.00  0.00    +0.000 C 
ENDROOT
BRANCH   1   4
ATOM      2  O   UNL     1       4.958   2.561  18.697  0.00  0.00    +0.000 OA
ATOM      3  C   UNL     1       4.288   3.375  18.083  0.00  0.00    +0.000 C 
ATOM      4  N   UNL     1       3.155   3.971  18.596  0.00  0.00    +0.000 N 
ATOM      5  H   UNL     1       2.571   4.519  17.965  0.00  0.00    +0.000 HD
BRANCH   3   6
ATOM      6  C   UNL     1       4.639   3.938  16.711  0.00  0.00    +0.000 C 
BRANCH   6   7
ATOM      7  C   UNL     1       6.137   4.157  16.420  0.00  0.00    +0.000 C 
BRANCH   7   8
ATOM      8  C   UNL     1       6.354   4.274  14.905  0.00  0.00    +0.000 A 
ATOM      9  C   UNL     1       5.552   3.582  13.981  0.00  0.00    +0.000 A 
ATOM     10  C   UNL     1       5.837   3.607  12.616  0.00  0.00    +0.000 A 
ATOM     11  C   UNL     1       6.937   4.317  12.148  0.00  0.00    +0.000 A 
ATOM     12  C   UNL     1       7.731   5.029  13.043  0.00  0.00    +0.000 A 
ATOM     13  C   UNL     1       7.436   5.019  14.409  0.00  0.00    +0.000 A 
ENDBRANCH   7   8
BRANCH   7  14
ATOM     14  C   UNL     1       6.699   5.380  17.176  0.00  0.00    +0.000 A 
ATOM     15  C   UNL     1       7.548   5.187  18.279  0.00  0.00    +0.000 A 
ATOM     16  C   UNL     1       8.208   6.270  18.873  0.00  0.00    +0.000 A 
ATOM     17  C   UNL     1       8.033   7.560  18.377  0.00  0.00    +0.000 A 
ATOM     18  C   UNL     1       7.167   7.777  17.311  0.00  0.00    +0.000 A 
ATOM     19  C   UNL     1       6.497   6.700  16.725  0.00  0.00    +0.000 A 
ENDBRANCH   7  14
ENDBRANCH   6   7
ENDBRANCH   3   6
ENDBRANCH   1   4
BRANCH   1  20
ATOM     20  C   UNL     1       1.279   2.802  19.555  0.00  0.00    +0.000 C 
ATOM     21  O   UNL     1       0.135   3.206  19.746  0.00  0.00    +0.000 OA
BRANCH  20  22
ATOM     22  OXT UNL     1       1.515   1.600  18.992  0.00  0.00    +0.000 OA
ATOM     23  HXT UNL     1       0.911   1.341  18.272  0.00  0.00    +0.000 HD
ENDBRANCH  20  22
ENDBRANCH   1  20
BRANCH   1  24
ATOM     24  C   UNL     1       2.208   4.878  20.758  0.00  0.00    +0.000 C 
BRANCH  24  25
ATOM     25  C   UNL     1       2.036   6.245  20.124  0.00  0.00    +0.000 A 
ATOM     26  C   UNL     1       1.523   7.363  20.794  0.00  0.00    +0.000 A 
ATOM     27  C   UNL     1       1.410   8.596  20.148  0.00  0.00    +0.000 A 
ATOM     28  C   UNL     1       1.808   8.744  18.823  0.00  0.00    +0.000 A 
ATOM     29  C   UNL     1       2.280   7.638  18.127  0.00  0.00    +0.000 A 
ATOM     30  C   UNL     1       2.394   6.400  18.773  0.00  0.00    +0.000 A 
BRANCH  28  31
ATOM     31  O   UNL     1       1.613   9.983  18.278  0.00  0.00    +0.000 OA
BRANCH  31  32
ATOM     32  C   UNL     1       0.701  10.840  18.976  0.00  0.00    +0.000 C 
BRANCH  32  33
ATOM     33  C   UNL     1      -0.727  10.749  18.474  0.00  0.00    +0.000 A 
ATOM     34  C   UNL     1      -1.122   9.849  17.476  0.00  0.00    +0.000 A 
ATOM     35  C   UNL     1      -2.445   9.822  17.024  0.00  0.00    +0.000 A 
ATOM     36  C   UNL     1      -3.388  10.690  17.569  0.00  0.00    +0.000 A 
ATOM     37  C   UNL     1      -3.015  11.579  18.574  0.00  0.00    +0.000 A 
ATOM     38  C   UNL     1      -1.694  11.609  19.023  0.00  0.00    +0.000 A 
ENDBRANCH  32  33
ENDBRANCH  31  32
ENDBRANCH  28  31
ENDBRANCH  24  25
ENDBRANCH   1  24
TORSDOF 12
ENDMDL
MODEL 7
REMARK VINA RESULT:      -8.8      1.654      2.546
REMARK  Name = 
REMARK  12 active torsions:
REMARK  status: ('A' for Active; 'I' for Inactive)
REMARK    1  A    between atoms: C_2  and  C_3
REMARK    2  A    between atoms: C_3  and  C_4
REMARK    3  A    between atoms: C_4  and  C_5
REMARK    4  A    between atoms: C_4  and  C_11
REMARK    5  A    between atoms: N_17  and  CA_18
REMARK    6  A    between atoms: CA_18  and  C_19
REMARK    7  A    between atoms: CA_18  and  C_34
REMARK    8  A    between atoms: C_19  and  C_20
REMARK    9  A    between atoms: C_23  and  O_24
REMARK   10  A    between atoms: O_24  and  C_25
REMARK   11  A    between atoms: C_25  and  C_26
REMARK   12  A    between atoms: C_34  and  OXT_36
REMARK                            x       y       z     vdW  Elec       q    Type
REMARK                         _______ _______ _______ _____ _____    ______ ____
ROOT
ATOM      1  CA  UNL     1       2.642   4.022  19.390  0.00  0.00    +0.000 C 
ENDROOT
BRANCH   1   4
ATOM      2  O   UNL     1       4.022   2.118  17.663  0.00  0.00    +0.000 OA
ATOM      3  C   UNL     1       3.897   3.282  17.318  0.00  0.00    +0.000 C 
ATOM      4  N   UNL     1       3.303   4.249  18.101  0.00  0.00    +0.000 N 
ATOM      5  H   UNL     1       3.101   5.155  17.677  0.00  0.00    +0.000 HD
BRANCH   3   6
ATOM      6  C   UNL     1       4.458   3.877  16.031  0.00  0.00    +0.000 C 
BRANCH   6   7
ATOM      7  C   UNL     1       5.994   3.989  15.938  0.00  0.00    +0.000 C 
BRANCH   7   8
ATOM      8  C   UNL     1       6.403   4.229  14.478  0.00  0.00    +0.000 A 
ATOM      9  C   UNL     1       5.795   3.544  13.411  0.00  0.00    +0.000 A 
ATOM     10  C   UNL     1       6.260   3.687  12.103  0.00  0.00    +0.000 A 
ATOM     11  C   UNL     1       7.347   4.512  11.838  0.00  0.00    +0.000 A 
ATOM     12  C   UNL     1       7.948   5.218  12.877  0.00  0.00    +0.000 A 
ATOM     13  C   UNL     1       7.473   5.088  14.184  0.00  0.00    +0.000 A 
ENDBRANCH   7   8
BRANCH   7  14
ATOM     14  C   UNL     1       6.551   5.080  16.877  0.00  0.00    +0.000 A 
ATOM     15  C   UNL     1       7.410   4.722  17.929  0.00  0.00    +0.000 A 
ATOM     16  C   UNL     1       8.064   5.701  18.685  0.00  0.00    +0.000 A 
ATOM     17  C   UNL     1       7.874   7.053  18.403  0.00  0.00    +0.000 A 
ATOM     18  C   UNL     1       6.998   7.429  17.392  0.00  0.00    +0.000 A 
ATOM     19  C   UNL     1       6.333   6.453  16.645  0.00  0.00    +0.000 A 
ENDBRANCH   7  14
ENDBRANCH   6   7
ENDBRANCH   3   6
ENDBRANCH   1   4
BRANCH   1  20
ATOM     20  C   UNL     1       1.157   3.748  19.075  0.00  0.00    +0.000 C 
ATOM     21  O   UNL     1       0.729   3.667  17.926  0.00  0.00    +0.000 OA
BRANCH  20  22
ATOM     22  OXT UNL     1       0.354   3.546  20.139  0.00  0.00    +0.000 OA
ATOM     23  HXT UNL     1       0.545   4.088  20.926  0.00  0.00    +0.000 HD
ENDBRANCH  20  22
ENDBRANCH   1  20
BRANCH   1  24
ATOM     24  C   UNL     1       2.844   5.153  20.417  0.00  0.00    +0.000 C 
BRANCH  24  25
ATOM     25  C   UNL     1       2.245   6.524  20.170  0.00  0.00    +0.000 A 
ATOM     26  C   UNL     1       2.500   7.299  19.032  0.00  0.00    +0.000 A 
ATOM     27  C   UNL     1       1.897   8.548  18.865  0.00  0.00    +0.000 A 
ATOM     28  C   UNL     1       1.025   9.051  19.825  0.00  0.00    +0.000 A 
ATOM     29  C   UNL     1       0.791   8.317  20.982  0.00  0.00    +0.000 A 
ATOM     30  C   UNL     1       1.395   7.064  21.151  0.00  0.00    +0.000 A 
BRANCH  28  31
ATOM     31  O   UNL     1       0.525  10.299  19.580  0.00  0.00    +0.000 OA
BRANCH  31  32
ATOM     32  C   UNL     1       1.131  11.017  18.498  0.00  0.00    +0.000 C 
BRANCH  32  33
ATOM     33  C   UNL     1       1.196  12.515  18.718  0.00  0.00    +0.000 A 
ATOM     34  C   UNL     1       2.359  13.166  19.152  0.00  0.00    +0.000 A 
ATOM     35  C   UNL     1       2.362  14.547  19.370  0.00  0.00    +0.000 A 
ATOM     36  C   UNL     1       1.207  15.293  19.150  0.00  0.00    +0.000 A 
ATOM     37  C   UNL     1       0.048  14.663  18.703  0.00  0.00    +0.000 A 
ATOM     38  C   UNL     1       0.042  13.284  18.488  0.00  0.00    +0.000 A 
ENDBRANCH  32  33
ENDBRANCH  31  32
ENDBRANCH  28  31
ENDBRANCH  24  25
ENDBRANCH   1  24
TORSDOF 12
ENDMDL
MODEL 8
REMARK VINA RESULT:      -8.7      1.113      3.492
REMARK  Name = 
REMARK  12 active torsions:
REMARK  status: ('A' for Active; 'I' for Inactive)
REMARK    1  A    between atoms: C_2  and  C_3
REMARK    2  A    between atoms: C_3  and  C_4
REMARK    3  A    between atoms: C_4  and  C_5
REMARK    4  A    between atoms: C_4  and  C_11
REMARK    5  A    between atoms: N_17  and  CA_18
REMARK    6  A    between atoms: CA_18  and  C_19
REMARK    7  A    between atoms: CA_18  and  C_34
REMARK    8  A    between atoms: C_19  and  C_20
REMARK    9  A    between atoms: C_23  and  O_24
REMARK   10  A    between atoms: O_24  and  C_25
REMARK   11  A    between atoms: C_25  and  C_26
REMARK   12  A    between atoms: C_34  and  OXT_36
REMARK                            x       y       z     vdW  Elec       q    Type
REMARK                         _______ _______ _______ _____ _____    ______ ____
ROOT
ATOM      1  CA  UNL     1       3.135   3.064  19.757  0.00  0.00    +0.000 C 
ENDROOT
BRANCH   1   4
ATOM      2  O   UNL     1       2.613   3.823  16.988  0.00  0.00    +0.000 OA
ATOM      3  C   UNL     1       3.731   3.473  17.329  0.00  0.00    +0.000 C 
ATOM      4  N   UNL     1       4.042   3.053  18.605  0.00  0.00    +0.000 N 
ATOM      5  H   UNL     1       5.026   2.927  18.844  0.00  0.00    +0.000 HD
BRANCH   3   6
ATOM      6  C   UNL     1       4.929   3.344  16.394  0.00  0.00    +0.000 C 
BRANCH   6   7
ATOM      7  C   UNL     1       5.438   4.646  15.745  0.00  0.00    +0.000 C 
BRANCH   7   8
ATOM      8  C   UNL     1       6.381   5.369  16.717  0.00  0.00    +0.000 A 
ATOM      9  C   UNL     1       7.149   4.674  17.668  0.00  0.00    +0.000 A 
ATOM     10  C   UNL     1       7.909   5.354  18.619  0.00  0.00    +0.000 A 
ATOM     11  C   UNL     1       7.910   6.744  18.645  0.00  0.00    +0.000 A 
ATOM     12  C   UNL     1       7.176   7.453  17.696  0.00  0.00    +0.000 A 
ATOM     13  C   UNL     1       6.428   6.772  16.733  0.00  0.00    +0.000 A 
ENDBRANCH   7   8
BRANCH   7  14
ATOM     14  C   UNL     1       6.110   4.387  14.380  0.00  0.00    +0.000 A 
ATOM     15  C   UNL     1       5.494   3.530  13.452  0.00  0.00    +0.000 A 
ATOM     16  C   UNL     1       5.989   3.412  12.148  0.00  0.00    +0.000 A 
ATOM     17  C   UNL     1       7.103   4.147  11.747  0.00  0.00    +0.000 A 
ATOM     18  C   UNL     1       7.750   4.971  12.662  0.00  0.00    +0.000 A 
ATOM     19  C   UNL     1       7.266   5.079  13.968  0.00  0.00    +0.000 A 
ENDBRANCH   7  14
ENDBRANCH   6   7
ENDBRANCH   3   6
ENDBRANCH   1   4
BRANCH   1  20
ATOM     20  C   UNL     1       1.722   2.793  19.200  0.00  0.00    +0.000 C 
ATOM     21  O   UNL     1       0.780   3.559  19.385  0.00  0.00    +0.000 OA
BRANCH  20  22
ATOM     22  OXT UNL     1       1.587   1.684  18.445  0.00  0.00    +0.000 OA
ATOM     23  HXT UNL     1       1.939   1.740  17.538  0.00  0.00    +0.000 HD
ENDBRANCH  20  22
ENDBRANCH   1  20
BRANCH   1  24
ATOM     24  C   UNL     1       3.212   4.341  20.616  0.00  0.00    +0.000 C 
BRANCH  24  25
ATOM     25  C   UNL     1       2.775   5.675  20.042  0.00  0.00    +0.000 A 
ATOM     26  C   UNL     1       1.796   6.494  20.617  0.00  0.00    +0.000 A 
ATOM     27  C   UNL     1       1.458   7.720  20.040  0.00  0.00    +0.000 A 
ATOM     28  C   UNL     1       2.090   8.158  18.880  0.00  0.00    +0.000 A 
ATOM     29  C   UNL     1       3.034   7.342  18.270  0.00  0.00    +0.000 A 
ATOM     30  C   UNL     1       3.374   6.112  18.847  0.00  0.00    +0.000 A 
BRANCH  28  31
ATOM     31  O   UNL     1       1.652   9.353  18.379  0.00  0.00    +0.000 OA
BRANCH  31  32
ATOM     32  C   UNL     1       0.786  10.112  19.232  0.00  0.00    +0.000 C 
BRANCH  32  33
ATOM     33  C   UNL     1      -0.567  10.413  18.617  0.00  0.00    +0.000 A 
ATOM     34  C   UNL     1      -1.055   9.734  17.493  0.00  0.00    +0.000 A 
ATOM     35  C   UNL     1      -2.296  10.067  16.942  0.00  0.00    +0.000 A 
ATOM     36  C   UNL     1      -3.066  11.078  17.513  0.00  0.00    +0.000 A 
ATOM     37  C   UNL     1      -2.602  11.752  18.640  0.00  0.00    +0.000 A 
ATOM     38  C   UNL     1      -1.361  11.422  19.188  0.00  0.00    +0.000 A 
ENDBRANCH  32  33
ENDBRANCH  31  32
ENDBRANCH  28  31
ENDBRANCH  24  25
ENDBRANCH   1  24
TORSDOF 12
ENDMDL
MODEL 9
REMARK VINA RESULT:      -8.7      1.505      3.882
REMARK  Name = 
REMARK  12 active torsions:
REMARK  status: ('A' for Active; 'I' for Inactive)
REMARK    1  A    between atoms: C_2  and  C_3
REMARK    2  A    between atoms: C_3  and  C_4
REMARK    3  A    between atoms: C_4  and  C_5
REMARK    4  A    between atoms: C_4  and  C_11
REMARK    5  A    between atoms: N_17  and  CA_18
REMARK    6  A    between atoms: CA_18  and  C_19
REMARK    7  A    between atoms: CA_18  and  C_34
REMARK    8  A    between atoms: C_19  and  C_20
REMARK    9  A    between atoms: C_23  and  O_24
REMARK   10  A    between atoms: O_24  and  C_25
REMARK   11  A    between atoms: C_25  and  C_26
REMARK   12  A    between atoms: C_34  and  OXT_36
REMARK                            x       y       z     vdW  Elec       q    Type
REMARK                         _______ _______ _______ _____ _____    ______ ____
ROOT
ATOM      1  CA  UNL     1       3.293   4.147  20.073  0.00  0.00    +0.000 C 
ENDROOT
BRANCH   1   4
ATOM      2  O   UNL     1       2.547   3.268  17.393  0.00  0.00    +0.000 OA
ATOM      3  C   UNL     1       3.708   3.546  17.647  0.00  0.00    +0.000 C 
ATOM      4  N   UNL     1       4.144   3.919  18.901  0.00  0.00    +0.000 N 
ATOM      5  H   UNL     1       5.093   4.282  18.992  0.00  0.00    +0.000 HD
BRANCH   3   6
ATOM      6  C   UNL     1       4.870   3.430  16.667  0.00  0.00    +0.000 C 
BRANCH   6   7
ATOM      7  C   UNL     1       5.292   4.725  15.945  0.00  0.00    +0.000 C 
BRANCH   7   8
ATOM      8  C   UNL     1       6.170   5.570  16.879  0.00  0.00    +0.000 A 
ATOM      9  C   UNL     1       6.182   6.975  16.825  0.00  0.00    +0.000 A 
ATOM     10  C   UNL     1       7.072   7.720  17.598  0.00  0.00    +0.000 A 
ATOM     11  C   UNL     1       7.974   7.075  18.436  0.00  0.00    +0.000 A 
ATOM     12  C   UNL     1       7.963   5.685  18.524  0.00  0.00    +0.000 A 
ATOM     13  C   UNL     1       7.061   4.938  17.762  0.00  0.00    +0.000 A 
ENDBRANCH   7   8
BRANCH   7  14
ATOM     14  C   UNL     1       5.997   4.434  14.603  0.00  0.00    +0.000 A 
ATOM     15  C   UNL     1       5.387   3.585  13.665  0.00  0.00    +0.000 A 
ATOM     16  C   UNL     1       5.916   3.441  12.378  0.00  0.00    +0.000 A 
ATOM     17  C   UNL     1       7.060   4.143  12.003  0.00  0.00    +0.000 A 
ATOM     18  C   UNL     1       7.701   4.959  12.928  0.00  0.00    +0.000 A 
ATOM     19  C   UNL     1       7.182   5.093  14.219  0.00  0.00    +0.000 A 
ENDBRANCH   7  14
ENDBRANCH   6   7
ENDBRANCH   3   6
ENDBRANCH   1   4
BRANCH   1  20
ATOM     20  C   UNL     1       3.106   2.773  20.748  0.00  0.00    +0.000 C 
ATOM     21  O   UNL     1       2.002   2.259  20.906  0.00  0.00    +0.000 OA
BRANCH  20  22
ATOM     22  OXT UNL     1       4.237   2.133  21.110  0.00  0.00    +0.000 OA
ATOM     23  HXT UNL     1       4.734   2.532  21.847  0.00  0.00    +0.000 HD
ENDBRANCH  20  22
ENDBRANCH   1  20
BRANCH   1  24
ATOM     24  C   UNL     1       1.960   4.857  19.765  0.00  0.00    +0.000 C 
BRANCH  24  25
ATOM     25  C   UNL     1       1.945   6.332  19.413  0.00  0.00    +0.000 A 
ATOM     26  C   UNL     1       2.325   6.845  18.166  0.00  0.00    +0.000 A 
ATOM     27  C   UNL     1       2.268   8.216  17.908  0.00  0.00    +0.000 A 
ATOM     28  C   UNL     1       1.830   9.106  18.884  0.00  0.00    +0.000 A 
ATOM     29  C   UNL     1       1.489   8.622  20.142  0.00  0.00    +0.000 A 
ATOM     30  C   UNL     1       1.546   7.247  20.402  0.00  0.00    +0.000 A 
BRANCH  28  31
ATOM     31  O   UNL     1       1.854  10.429  18.538  0.00  0.00    +0.000 OA
BRANCH  31  32
ATOM     32  C   UNL     1       0.636  11.155  18.746  0.00  0.00    +0.000 C 
BRANCH  32  33
ATOM     33  C   UNL     1       0.833  12.651  18.884  0.00  0.00    +0.000 A 
ATOM     34  C   UNL     1      -0.202  13.573  18.672  0.00  0.00    +0.000 A 
ATOM     35  C   UNL     1       0.034  14.946  18.782  0.00  0.00    +0.000 A 
ATOM     36  C   UNL     1       1.305  15.414  19.109  0.00  0.00    +0.000 A 
ATOM     37  C   UNL     1       2.340  14.511  19.338  0.00  0.00    +0.000 A 
ATOM     38  C   UNL     1       2.106  13.139  19.227  0.00  0.00    +0.000 A 
ENDBRANCH  32  33
ENDBRANCH  31  32
ENDBRANCH  28  31
ENDBRANCH  24  25
ENDBRANCH   1  24
TORSDOF 12
ENDMDL
