MODEL 1
REMARK VINA RESULT:      -7.6      0.000      0.000
REMARK  Name = 
REMARK  6 active torsions:
REMARK  status: ('A' for Active; 'I' for Inactive)
REMARK    1  A    between atoms: C_1  and  C_2
REMARK    2  A    between atoms: C_2  and  C_3
REMARK    3  A    between atoms: C_2  and  N_5
REMARK    4  A    between atoms: C_2  and  C_17
REMARK    5  A    between atoms: C_3  and  O_4
REMARK    6  A    between atoms: C_12  and  C_13
REMARK                            x       y       z     vdW  Elec       q    Type
REMARK                         _______ _______ _______ _____ _____    ______ ____
ROOT
ATOM      1  N   UNL     1       4.077   4.327  18.579  0.00  0.00    +0.000 N 
ATOM      2  C   UNL     1       4.727   4.087  17.382  0.00  0.00    +0.000 C 
ATOM      3  O   UNL     1       4.555   3.057  16.746  0.00  0.00    +0.000 OA
ATOM      4  N   UNL     1       5.564   5.112  17.017  0.00  0.00    +0.000 N 
ATOM      5  C   UNL     1       6.249   5.105  15.817  0.00  0.00    +0.000 A 
ATOM      6  N   UNL     1       7.371   5.760  15.609  0.00  0.00    +0.000 NA
ATOM      7  N   UNL     1       7.883   5.519  14.342  0.00  0.00    +0.000 NA
ATOM      8  C   UNL     1       7.093   4.738  13.630  0.00  0.00    +0.000 A 
ATOM      9  S   UNL     1       5.638   4.319  14.429  0.00  0.00    +0.000 S 
ATOM     10  H   UNL     1       4.061   5.269  18.934  0.00  0.00    +0.000 HD
ATOM     11  H   UNL     1       6.001   5.645  17.749  0.00  0.00    +0.000 HD
ENDROOT
BRANCH   8  12
ATOM     12  C   UNL     1       7.370   4.222  12.261  0.00  0.00    +0.000 C 
ATOM     13  F   UNL     1       6.345   3.454  11.795  0.00  0.00    +0.000 F 
ATOM     14  F   UNL     1       7.522   5.233  11.359  0.00  0.00    +0.000 F 
ENDBRANCH   8  12
BRANCH   1  16
ATOM     15  C   UNL     1       1.909   3.186  18.147  0.00  0.00    +0.000 C 
ATOM     16  C   UNL     1       3.075   3.387  19.146  0.00  0.00    +0.000 C 
BRANCH  16  17
ATOM     17  C   UNL     1       2.561   3.981  20.466  0.00  0.00    +0.000 C 
ATOM     18  C   UNL     1       1.089   4.069  20.802  0.00  0.00    +0.000 C 
ATOM     19  C   UNL     1       1.980   3.162  21.602  0.00  0.00    +0.000 C 
ENDBRANCH  16  17
BRANCH  16  20
ATOM     20  C   UNL     1       3.760   2.004  19.368  0.00  0.00    +0.000 C 
BRANCH  20  21
ATOM     21  O   UNL     1       5.076   2.114  19.912  0.00  0.00    +0.000 OA
ATOM     22  H   UNL     1       5.695   2.179  19.165  0.00  0.00    +0.000 HD
ENDBRANCH  20  21
ENDBRANCH  16  20
ENDBRANCH   1  16
TORSDOF 5
ENDMDL
MODEL 2
REMARK VINA RESULT:      -7.4      1.140      1.835
REMARK  Name = 
REMARK  6 active torsions:
REMARK  status: ('A' for Active; 'I' for Inactive)
REMARK    1  A    between atoms: C_1  and  C_2
REMARK    2  A    between atoms: C_2  and  C_3
REMARK    3  A    between atoms: C_2  and  N_5
REMARK    4  A    between atoms: C_2  and  C_17
REMARK    5  A    between atoms: C_3  and  O_4
REMARK    6  A    between atoms: C_12  and  C_13
REMARK                            x       y       z     vdW  Elec       q    Type
REMARK                         _______ _______ _______ _____ _____    ______ ____
ROOT
ATOM      1  N   UNL     1       4.359   4.530  18.853  0.00  0.00    +0.000 N 
ATOM      2  C   UNL     1       4.915   4.230  17.624  0.00  0.00    +0.000 C 
ATOM      3  O   UNL     1       4.696   3.169  17.055  0.00  0.00    +0.000 OA
ATOM      4  N   UNL     1       5.720   5.233  17.145  0.00  0.00    +0.000 N 
ATOM      5  C   UNL     1       6.310   5.165  15.897  0.00  0.00    +0.000 A 
ATOM      6  N   UNL     1       7.412   5.806  15.571  0.00  0.00    +0.000 NA
ATOM      7  N   UNL     1       7.825   5.501  14.282  0.00  0.00    +0.000 NA
ATOM      8  C   UNL     1       6.983   4.687  13.672  0.00  0.00    +0.000 A 
ATOM      9  S   UNL     1       5.595   4.312  14.601  0.00  0.00    +0.000 S 
ATOM     10  H   UNL     1       4.370   5.489  19.162  0.00  0.00    +0.000 HD
ATOM     11  H   UNL     1       6.212   5.801  17.813  0.00  0.00    +0.000 HD
ENDROOT
BRANCH   8  12
ATOM     12  C   UNL     1       7.154   4.104  12.313  0.00  0.00    +0.000 C 
ATOM     13  F   UNL     1       6.008   3.515  11.870  0.00  0.00    +0.000 F 
ATOM     14  F   UNL     1       7.471   5.053  11.389  0.00  0.00    +0.000 F 
ENDBRANCH   8  12
BRANCH   1  16
ATOM     15  C   UNL     1       4.167   2.439  20.185  0.00  0.00    +0.000 C 
ATOM     16  C   UNL     1       3.405   3.623  19.542  0.00  0.00    +0.000 C 
BRANCH  16  17
ATOM     17  C   UNL     1       2.396   3.116  18.501  0.00  0.00    +0.000 C 
ATOM     18  C   UNL     1       0.942   2.862  18.830  0.00  0.00    +0.000 C 
ATOM     19  C   UNL     1       1.306   3.969  17.882  0.00  0.00    +0.000 C 
ENDBRANCH  16  17
BRANCH  16  20
ATOM     20  C   UNL     1       2.700   4.416  20.685  0.00  0.00    +0.000 C 
BRANCH  20  21
ATOM     21  O   UNL     1       2.801   5.833  20.525  0.00  0.00    +0.000 OA
ATOM     22  H   UNL     1       2.576   6.238  21.381  0.00  0.00    +0.000 HD
ENDBRANCH  20  21
ENDBRANCH  16  20
ENDBRANCH   1  16
TORSDOF 5
ENDMDL
MODEL 3
REMARK VINA RESULT:      -7.0      1.136      1.923
REMARK  Name = 
REMARK  6 active torsions:
REMARK  status: ('A' for Active; 'I' for Inactive)
REMARK    1  A    between atoms: C_1  and  C_2
REMARK    2  A    between atoms: C_2  and  C_3
REMARK    3  A    between atoms: C_2  and  N_5
REMARK    4  A    between atoms: C_2  and  C_17
REMARK    5  A    between atoms: C_3  and  O_4
REMARK    6  A    between atoms: C_12  and  C_13
REMARK                            x       y       z     vdW  Elec       q    Type
REMARK                         _______ _______ _______ _____ _____    ______ ____
ROOT
ATOM      1  N   UNL     1       4.291   4.296  19.220  0.00  0.00    +0.000 N 
ATOM      2  C   UNL     1       4.777   4.089  17.942  0.00  0.00    +0.000 C 
ATOM      3  O   UNL     1       4.457   3.114  17.277  0.00  0.00    +0.000 OA
ATOM      4  N   UNL     1       5.638   5.078  17.534  0.00  0.00    +0.000 N 
ATOM      5  C   UNL     1       6.175   5.101  16.261  0.00  0.00    +0.000 A 
ATOM      6  N   UNL     1       7.309   5.692  15.955  0.00  0.00    +0.000 NA
ATOM      7  N   UNL     1       7.651   5.497  14.624  0.00  0.00    +0.000 NA
ATOM      8  C   UNL     1       6.728   4.815  13.971  0.00  0.00    +0.000 A 
ATOM      9  S   UNL     1       5.350   4.444  14.917  0.00  0.00    +0.000 S 
ATOM     10  H   UNL     1       4.385   5.214  19.624  0.00  0.00    +0.000 HD
ATOM     11  H   UNL     1       6.195   5.534  18.235  0.00  0.00    +0.000 HD
ENDROOT
BRANCH   8  12
ATOM     12  C   UNL     1       6.805   4.368  12.553  0.00  0.00    +0.000 C 
ATOM     13  F   UNL     1       7.962   4.774  11.959  0.00  0.00    +0.000 F 
ATOM     14  F   UNL     1       6.783   3.010  12.446  0.00  0.00    +0.000 F 
ENDBRANCH   8  12
BRANCH   1  16
ATOM     15  C   UNL     1       4.013   2.173  20.486  0.00  0.00    +0.000 C 
ATOM     16  C   UNL     1       3.296   3.391  19.852  0.00  0.00    +0.000 C 
BRANCH  16  17
ATOM     17  C   UNL     1       2.311   2.935  18.766  0.00  0.00    +0.000 C 
ATOM     18  C   UNL     1       0.851   2.659  19.052  0.00  0.00    +0.000 C 
ATOM     19  C   UNL     1       1.229   3.815  18.171  0.00  0.00    +0.000 C 
ENDBRANCH  16  17
BRANCH  16  20
ATOM     20  C   UNL     1       2.572   4.168  20.995  0.00  0.00    +0.000 C 
BRANCH  20  21
ATOM     21  O   UNL     1       2.286   3.351  22.131  0.00  0.00    +0.000 OA
ATOM     22  H   UNL     1       2.770   2.515  22.017  0.00  0.00    +0.000 HD
ENDBRANCH  20  21
ENDBRANCH  16  20
ENDBRANCH   1  16
TORSDOF 5
ENDMDL
MODEL 4
REMARK VINA RESULT:      -7.0      1.159      1.803
REMARK  Name = 
REMARK  6 active torsions:
REMARK  status: ('A' for Active; 'I' for Inactive)
REMARK    1  A    between atoms: C_1  and  C_2
REMARK    2  A    between atoms: C_2  and  C_3
REMARK    3  A    between atoms: C_2  and  N_5
REMARK    4  A    between atoms: C_2  and  C_17
REMARK    5  A    between atoms: C_3  and  O_4
REMARK    6  A    between atoms: C_12  and  C_13
REMARK                            x       y       z     vdW  Elec       q    Type
REMARK                         _______ _______ _______ _____ _____    ______ ____
ROOT
ATOM      1  N   UNL     1       3.709   4.967  18.811  0.00  0.00    +0.000 N 
ATOM      2  C   UNL     1       4.316   4.572  17.634  0.00  0.00    +0.000 C 
ATOM      3  O   UNL     1       3.934   3.596  17.002  0.00  0.00    +0.000 OA
ATOM      4  N   UNL     1       5.370   5.379  17.281  0.00  0.00    +0.000 N 
ATOM      5  C   UNL     1       6.063   5.203  16.099  0.00  0.00    +0.000 A 
ATOM      6  N   UNL     1       7.307   5.589  15.915  0.00  0.00    +0.000 NA
ATOM      7  N   UNL     1       7.783   5.222  14.664  0.00  0.00    +0.000 NA
ATOM      8  C   UNL     1       6.855   4.626  13.938  0.00  0.00    +0.000 A 
ATOM      9  S   UNL     1       5.325   4.553  14.703  0.00  0.00    +0.000 S 
ATOM     10  H   UNL     1       3.895   5.894  19.157  0.00  0.00    +0.000 HD
ATOM     11  H   UNL     1       5.897   5.812  18.020  0.00  0.00    +0.000 HD
ENDROOT
BRANCH   8  12
ATOM     12  C   UNL     1       7.042   4.042  12.582  0.00  0.00    +0.000 C 
ATOM     13  F   UNL     1       5.866   3.591  12.061  0.00  0.00    +0.000 F 
ATOM     14  F   UNL     1       7.518   4.961  11.694  0.00  0.00    +0.000 F 
ENDBRANCH   8  12
BRANCH   1  16
ATOM     15  C   UNL     1       1.913   5.107  20.526  0.00  0.00    +0.000 C 
ATOM     16  C   UNL     1       2.510   4.283  19.360  0.00  0.00    +0.000 C 
BRANCH  16  17
ATOM     17  C   UNL     1       2.939   2.890  19.845  0.00  0.00    +0.000 C 
ATOM     18  C   UNL     1       4.273   2.633  20.509  0.00  0.00    +0.000 C 
ATOM     19  C   UNL     1       3.008   2.478  21.303  0.00  0.00    +0.000 C 
ENDBRANCH  16  17
BRANCH  16  20
ATOM     20  C   UNL     1       1.431   4.191  18.237  0.00  0.00    +0.000 C 
BRANCH  20  21
ATOM     21  O   UNL     1       1.077   2.845  17.911  0.00  0.00    +0.000 OA
ATOM     22  H   UNL     1       1.133   2.756  16.944  0.00  0.00    +0.000 HD
ENDBRANCH  20  21
ENDBRANCH  16  20
ENDBRANCH   1  16
TORSDOF 5
ENDMDL
MODEL 5
REMARK VINA RESULT:      -6.9      1.620      1.960
REMARK  Name = 
REMARK  6 active torsions:
REMARK  status: ('A' for Active; 'I' for Inactive)
REMARK    1  A    between atoms: C_1  and  C_2
REMARK    2  A    between atoms: C_2  and  C_3
REMARK    3  A    between atoms: C_2  and  N_5
REMARK    4  A    between atoms: C_2  and  C_17
REMARK    5  A    between atoms: C_3  and  O_4
REMARK    6  A    between atoms: C_12  and  C_13
REMARK                            x       y       z     vdW  Elec       q    Type
REMARK                         _______ _______ _______ _____ _____    ______ ____
ROOT
ATOM      1  N   UNL     1       3.947   3.641  19.674  0.00  0.00    +0.000 N 
ATOM      2  C   UNL     1       4.401   3.659  18.368  0.00  0.00    +0.000 C 
ATOM      3  O   UNL     1       3.755   3.173  17.450  0.00  0.00    +0.000 OA
ATOM      4  N   UNL     1       5.628   4.263  18.240  0.00  0.00    +0.000 N 
ATOM      5  C   UNL     1       6.224   4.453  17.008  0.00  0.00    +0.000 A 
ATOM      6  N   UNL     1       7.523   4.572  16.833  0.00  0.00    +0.000 NA
ATOM      7  N   UNL     1       7.856   4.678  15.490  0.00  0.00    +0.000 NA
ATOM      8  C   UNL     1       6.787   4.692  14.715  0.00  0.00    +0.000 A 
ATOM      9  S   UNL     1       5.309   4.664  15.581  0.00  0.00    +0.000 S 
ATOM     10  H   UNL     1       4.386   4.254  20.342  0.00  0.00    +0.000 HD
ATOM     11  H   UNL     1       6.268   4.195  19.013  0.00  0.00    +0.000 HD
ENDROOT
BRANCH   8  12
ATOM     12  C   UNL     1       6.781   4.724  13.227  0.00  0.00    +0.000 C 
ATOM     13  F   UNL     1       7.930   5.263  12.730  0.00  0.00    +0.000 F 
ATOM     14  F   UNL     1       6.690   3.474  12.692  0.00  0.00    +0.000 F 
ENDBRANCH   8  12
BRANCH   1  16
ATOM     15  C   UNL     1       2.213   1.962  19.075  0.00  0.00    +0.000 C 
ATOM     16  C   UNL     1       2.618   3.095  20.050  0.00  0.00    +0.000 C 
BRANCH  16  17
ATOM     17  C   UNL     1       1.600   4.244  19.998  0.00  0.00    +0.000 C 
ATOM     18  C   UNL     1       1.863   5.596  20.623  0.00  0.00    +0.000 C 
ATOM     19  C   UNL     1       1.749   5.478  19.129  0.00  0.00    +0.000 C 
ENDBRANCH  16  17
BRANCH  16  20
ATOM     20  C   UNL     1       2.718   2.482  21.481  0.00  0.00    +0.000 C 
BRANCH  20  21
ATOM     21  O   UNL     1       1.469   2.480  22.176  0.00  0.00    +0.000 OA
ATOM     22  H   UNL     1       1.025   3.322  21.976  0.00  0.00    +0.000 HD
ENDBRANCH  20  21
ENDBRANCH  16  20
ENDBRANCH   1  16
TORSDOF 5
ENDMDL
MODEL 6
REMARK VINA RESULT:      -6.8      3.480      3.859
REMARK  Name = 
REMARK  6 active torsions:
REMARK  status: ('A' for Active; 'I' for Inactive)
REMARK    1  A    between atoms: C_1  and  C_2
REMARK    2  A    between atoms: C_2  and  C_3
REMARK    3  A    between atoms: C_2  and  N_5
REMARK    4  A    between atoms: C_2  and  C_17
REMARK    5  A    between atoms: C_3  and  O_4
REMARK    6  A    between atoms: C_12  and  C_13
REMARK                            x       y       z     vdW  Elec       q    Type
REMARK                         _______ _______ _______ _____ _____    ______ ____
ROOT
ATOM      1  N   UNL     1       3.504   3.005  18.247  0.00  0.00    +0.000 N 
ATOM      2  C   UNL     1       4.225   4.180  18.146  0.00  0.00    +0.000 C 
ATOM      3  O   UNL     1       3.871   5.209  18.704  0.00  0.00    +0.000 OA
ATOM      4  N   UNL     1       5.345   4.050  17.361  0.00  0.00    +0.000 N 
ATOM      5  C   UNL     1       6.244   5.086  17.193  0.00  0.00    +0.000 A 
ATOM      6  N   UNL     1       7.032   5.210  16.147  0.00  0.00    +0.000 NA
ATOM      7  N   UNL     1       7.779   6.378  16.199  0.00  0.00    +0.000 NA
ATOM      8  C   UNL     1       7.562   7.055  17.311  0.00  0.00    +0.000 A 
ATOM      9  S   UNL     1       6.502   6.267  18.400  0.00  0.00    +0.000 S 
ATOM     10  H   UNL     1       3.952   2.144  17.980  0.00  0.00    +0.000 HD
ATOM     11  H   UNL     1       5.313   3.392  16.602  0.00  0.00    +0.000 HD
ENDROOT
BRANCH   8  12
ATOM     12  C   UNL     1       8.141   8.382  17.658  0.00  0.00    +0.000 C 
ATOM     13  F   UNL     1       7.178   9.341  17.758  0.00  0.00    +0.000 F 
ATOM     14  F   UNL     1       8.775   8.360  18.865  0.00  0.00    +0.000 F 
ENDBRANCH   8  12
BRANCH   1  16
ATOM     15  C   UNL     1       1.317   4.055  18.797  0.00  0.00    +0.000 C 
ATOM     16  C   UNL     1       2.287   2.885  19.091  0.00  0.00    +0.000 C 
BRANCH  16  17
ATOM     17  C   UNL     1       2.727   2.904  20.563  0.00  0.00    +0.000 C 
ATOM     18  C   UNL     1       2.295   3.984  21.530  0.00  0.00    +0.000 C 
ATOM     19  C   UNL     1       1.817   2.575  21.730  0.00  0.00    +0.000 C 
ENDBRANCH  16  17
BRANCH  16  20
ATOM     20  C   UNL     1       1.558   1.555  18.728  0.00  0.00    +0.000 C 
BRANCH  20  21
ATOM     21  O   UNL     1       0.205   1.756  18.312  0.00  0.00    +0.000 OA
ATOM     22  H   UNL     1       0.206   1.815  17.341  0.00  0.00    +0.000 HD
ENDBRANCH  20  21
ENDBRANCH  16  20
ENDBRANCH   1  16
TORSDOF 5
ENDMDL
MODEL 7
REMARK VINA RESULT:      -6.8      1.034      1.243
REMARK  Name = 
REMARK  6 active torsions:
REMARK  status: ('A' for Active; 'I' for Inactive)
REMARK    1  A    between atoms: C_1  and  C_2
REMARK    2  A    between atoms: C_2  and  C_3
REMARK    3  A    between atoms: C_2  and  N_5
REMARK    4  A    between atoms: C_2  and  C_17
REMARK    5  A    between atoms: C_3  and  O_4
REMARK    6  A    between atoms: C_12  and  C_13
REMARK                            x       y       z     vdW  Elec       q    Type
REMARK                         _______ _______ _______ _____ _____    ______ ____
ROOT
ATOM      1  N   UNL     1       3.915   4.330  18.662  0.00  0.00    +0.000 N 
ATOM      2  C   UNL     1       4.469   4.158  17.407  0.00  0.00    +0.000 C 
ATOM      3  O   UNL     1       4.026   3.344  16.609  0.00  0.00    +0.000 OA
ATOM      4  N   UNL     1       5.543   4.982  17.183  0.00  0.00    +0.000 N 
ATOM      5  C   UNL     1       6.192   5.024  15.964  0.00  0.00    +0.000 A 
ATOM      6  N   UNL     1       7.445   5.395  15.812  0.00  0.00    +0.000 NA
ATOM      7  N   UNL     1       7.865   5.271  14.495  0.00  0.00    +0.000 NA
ATOM      8  C   UNL     1       6.891   4.866  13.702  0.00  0.00    +0.000 A 
ATOM      9  S   UNL     1       5.384   4.694  14.495  0.00  0.00    +0.000 S 
ATOM     10  H   UNL     1       4.151   5.161  19.180  0.00  0.00    +0.000 HD
ATOM     11  H   UNL     1       6.112   5.239  17.972  0.00  0.00    +0.000 HD
ENDROOT
BRANCH   8  12
ATOM     12  C   UNL     1       7.011   4.561  12.250  0.00  0.00    +0.000 C 
ATOM     13  F   UNL     1       7.883   5.404  11.628  0.00  0.00    +0.000 F 
ATOM     14  F   UNL     1       7.487   3.302  12.032  0.00  0.00    +0.000 F 
ENDBRANCH   8  12
BRANCH   1  16
ATOM     15  C   UNL     1       1.462   4.085  18.331  0.00  0.00    +0.000 C 
ATOM     16  C   UNL     1       2.705   3.591  19.109  0.00  0.00    +0.000 C 
BRANCH  16  17
ATOM     17  C   UNL     1       2.532   3.832  20.616  0.00  0.00    +0.000 C 
ATOM     18  C   UNL     1       1.305   3.383  21.379  0.00  0.00    +0.000 C 
ATOM     19  C   UNL     1       2.635   2.749  21.672  0.00  0.00    +0.000 C 
ENDBRANCH  16  17
BRANCH  16  20
ATOM     20  C   UNL     1       2.901   2.077  18.790  0.00  0.00    +0.000 C 
BRANCH  20  21
ATOM     21  O   UNL     1       1.665   1.378  18.621  0.00  0.00    +0.000 OA
ATOM     22  H   UNL     1       1.371   1.527  17.705  0.00  0.00    +0.000 HD
ENDBRANCH  20  21
ENDBRANCH  16  20
ENDBRANCH   1  16
TORSDOF 5
ENDMDL
MODEL 8
REMARK VINA RESULT:      -6.7      1.455      2.087
REMARK  Name = 
REMARK  6 active torsions:
REMARK  status: ('A' for Active; 'I' for Inactive)
REMARK    1  A    between atoms: C_1  and  C_2
REMARK    2  A    between atoms: C_2  and  C_3
REMARK    3  A    between atoms: C_2  and  N_5
REMARK    4  A    between atoms: C_2  and  C_17
REMARK    5  A    between atoms: C_3  and  O_4
REMARK    6  A    between atoms: C_12  and  C_13
REMARK                            x       y       z     vdW  Elec       q    Type
REMARK                         _______ _______ _______ _____ _____    ______ ____
ROOT
ATOM      1  N   UNL     1       3.604   4.461  19.388  0.00  0.00    +0.000 N 
ATOM      2  C   UNL     1       4.134   4.362  18.115  0.00  0.00    +0.000 C 
ATOM      3  O   UNL     1       3.471   3.969  17.165  0.00  0.00    +0.000 OA
ATOM      4  N   UNL     1       5.453   4.739  18.057  0.00  0.00    +0.000 N 
ATOM      5  C   UNL     1       6.149   4.787  16.864  0.00  0.00    +0.000 A 
ATOM      6  N   UNL     1       7.456   4.674  16.773  0.00  0.00    +0.000 NA
ATOM      7  N   UNL     1       7.885   4.682  15.453  0.00  0.00    +0.000 NA
ATOM      8  C   UNL     1       6.885   4.859  14.609  0.00  0.00    +0.000 A 
ATOM      9  S   UNL     1       5.375   5.113  15.376  0.00  0.00    +0.000 S 
ATOM     10  H   UNL     1       4.102   5.007  20.072  0.00  0.00    +0.000 HD
ATOM     11  H   UNL     1       6.022   4.584  18.871  0.00  0.00    +0.000 HD
ENDROOT
BRANCH   8  12
ATOM     12  C   UNL     1       6.977   4.849  13.124  0.00  0.00    +0.000 C 
ATOM     13  F   UNL     1       8.181   5.316  12.690  0.00  0.00    +0.000 F 
ATOM     14  F   UNL     1       6.857   3.590  12.616  0.00  0.00    +0.000 F 
ENDBRANCH   8  12
BRANCH   1  16
ATOM     15  C   UNL     1       1.591   5.254  20.614  0.00  0.00    +0.000 C 
ATOM     16  C   UNL     1       2.179   4.164  19.685  0.00  0.00    +0.000 C 
BRANCH  16  17
ATOM     17  C   UNL     1       2.111   2.785  20.358  0.00  0.00    +0.000 C 
ATOM     18  C   UNL     1       3.005   2.396  21.514  0.00  0.00    +0.000 C 
ATOM     19  C   UNL     1       1.525   2.534  21.734  0.00  0.00    +0.000 C 
ENDBRANCH  16  17
BRANCH  16  20
ATOM     20  C   UNL     1       1.376   4.190  18.348  0.00  0.00    +0.000 C 
BRANCH  20  21
ATOM     21  O   UNL     1       0.782   2.930  18.029  0.00  0.00    +0.000 OA
ATOM     22  H   UNL     1       1.077   2.689  17.134  0.00  0.00    +0.000 HD
ENDBRANCH  20  21
ENDBRANCH  16  20
ENDBRANCH   1  16
TORSDOF 5
ENDMDL
MODEL 9
REMARK VINA RESULT:      -6.6      6.366      7.755
REMARK  Name = 
REMARK  6 active torsions:
REMARK  status: ('A' for Active; 'I' for Inactive)
REMARK    1  A    between atoms: C_1  and  C_2
REMARK    2  A    between atoms: C_2  and  C_3
REMARK    3  A    between atoms: C_2  and  N_5
REMARK    4  A    between atoms: C_2  and  C_17
REMARK    5  A    between atoms: C_3  and  O_4
REMARK    6  A    between atoms: C_12  and  C_13
REMARK                            x       y       z     vdW  Elec       q    Type
REMARK                         _______ _______ _______ _____ _____    ______ ____
ROOT
ATOM      1  N   UNL     1       2.295   5.811  20.540  0.00  0.00    +0.000 N 
ATOM      2  C   UNL     1       2.101   7.132  20.182  0.00  0.00    +0.000 C 
ATOM      3  O   UNL     1       2.410   7.556  19.077  0.00  0.00    +0.000 OA
ATOM      4  N   UNL     1       1.544   7.880  21.190  0.00  0.00    +0.000 N 
ATOM      5  C   UNL     1       1.197   9.206  21.011  0.00  0.00    +0.000 A 
ATOM      6  N   UNL     1       1.115  10.080  21.990  0.00  0.00    +0.000 NA
ATOM      7  N   UNL     1       0.822  11.353  21.523  0.00  0.00    +0.000 NA
ATOM      8  C   UNL     1       0.639  11.370  20.216  0.00  0.00    +0.000 A 
ATOM      9  S   UNL     1       0.728   9.823  19.489  0.00  0.00    +0.000 S 
ATOM     10  H   UNL     1       1.812   5.459  21.351  0.00  0.00    +0.000 HD
ATOM     11  H   UNL     1       1.758   7.624  22.138  0.00  0.00    +0.000 HD
ENDROOT
BRANCH   8  12
ATOM     12  C   UNL     1       0.381  12.575  19.381  0.00  0.00    +0.000 C 
ATOM     13  F   UNL     1       1.256  12.663  18.339  0.00  0.00    +0.000 F 
ATOM     14  F   UNL     1      -0.863  12.552  18.825  0.00  0.00    +0.000 F 
ENDBRANCH   8  12
BRANCH   1  16
ATOM     15  C   UNL     1       2.133   4.935  18.218  0.00  0.00    +0.000 C 
ATOM     16  C   UNL     1       2.828   4.797  19.594  0.00  0.00    +0.000 C 
BRANCH  16  17
ATOM     17  C   UNL     1       2.570   3.406  20.193  0.00  0.00    +0.000 C 
ATOM     18  C   UNL     1       2.183   3.200  21.641  0.00  0.00    +0.000 C 
ATOM     19  C   UNL     1       1.197   2.874  20.555  0.00  0.00    +0.000 C 
ENDBRANCH  16  17
BRANCH  16  20
ATOM     20  C   UNL     1       4.352   5.059  19.390  0.00  0.00    +0.000 C 
BRANCH  20  21
ATOM     21  O   UNL     1       5.136   3.866  19.444  0.00  0.00    +0.000 OA
ATOM     22  H   UNL     1       4.575   3.136  19.128  0.00  0.00    +0.000 HD
ENDBRANCH  20  21
ENDBRANCH  16  20
ENDBRANCH   1  16
TORSDOF 5
ENDMDL
