MODEL 1
REMARK VINA RESULT:      -7.3      0.000      0.000
REMARK  Name = 
REMARK  8 active torsions:
REMARK  status: ('A' for Active; 'I' for Inactive)
REMARK    1  A    between atoms: C_1  and  C_2
REMARK    2  A    between atoms: C_2  and  O_3
REMARK    3  A    between atoms: O_3  and  C_4
REMARK    4  A    between atoms: C_7  and  S_8
REMARK    5  A    between atoms: S_8  and  C_9
REMARK    6  A    between atoms: C_13  and  C_14
REMARK    7  A    between atoms: N_19  and  C_20
REMARK    8  A    between atoms: C_23  and  C_24
REMARK                            x       y       z     vdW  Elec       q    Type
REMARK                         _______ _______ _______ _____ _____    ______ ____
ROOT
ATOM      1  C   UNL     1       2.687   5.644  19.720  0.00  0.00    +0.000 C 
ATOM      2  O   UNL     1       2.712   5.128  20.844  0.00  0.00    +0.000 OA
ATOM      3  N   UNL     1       1.941   6.793  19.499  0.00  0.00    +0.000 N 
ATOM      4  C   UNL     1       1.327   7.487  20.642  0.00  0.00    +0.000 C 
ATOM      5  C   UNL     1       1.680   8.989  20.641  0.00  0.00    +0.000 C 
ATOM      6  N   UNL     1       1.337   9.616  19.339  0.00  0.00    +0.000 N 
ATOM      7  C   UNL     1       1.900   8.880  18.173  0.00  0.00    +0.000 C 
ATOM      8  C   UNL     1       1.543   7.376  18.223  0.00  0.00    +0.000 C 
ENDROOT
BRANCH   6   9
ATOM      9  C   UNL     1       1.419  11.021  19.248  0.00  0.00    +0.000 A 
ATOM     10  C   UNL     1       2.299  11.590  18.309  0.00  0.00    +0.000 A 
ATOM     11  C   UNL     1       2.373  12.975  18.098  0.00  0.00    +0.000 A 
ATOM     12  C   UNL     1       1.560  13.842  18.828  0.00  0.00    +0.000 A 
ATOM     13  C   UNL     1       0.689  13.315  19.777  0.00  0.00    +0.000 A 
ATOM     14  C   UNL     1       0.624  11.931  19.978  0.00  0.00    +0.000 A 
ATOM     15  F   UNL     1      -0.234  11.505  20.917  0.00  0.00    +0.000 F 
BRANCH  12  16
ATOM     16  C   UNL     1       1.612  15.257  18.589  0.00  0.00    +0.000 C 
ATOM     17  N   UNL     1       1.667  16.398  18.395  0.00  0.00    +0.000 NA
ENDBRANCH  12  16
ENDBRANCH   6   9
BRANCH   1  23
ATOM     18  C   UNL     1       3.023   4.125  17.625  0.00  0.00    +0.000 A 
ATOM     19  C   UNL     1       3.903   3.775  16.576  0.00  0.00    +0.000 A 
ATOM     20  C   UNL     1       5.243   4.143  16.583  0.00  0.00    +0.000 A 
ATOM     21  C   UNL     1       5.725   4.909  17.630  0.00  0.00    +0.000 A 
ATOM     22  C   UNL     1       4.874   5.303  18.669  0.00  0.00    +0.000 A 
ATOM     23  C   UNL     1       3.503   4.936  18.676  0.00  0.00    +0.000 A 
BRANCH  21  24
ATOM     24  S   UNL     1       7.426   5.422  17.602  0.00  0.00    +0.000 S 
ATOM     25  C   UNL     1       7.759   5.908  19.275  0.00  0.00    +0.000 C 
ATOM     26  O   UNL     1       8.212   4.250  17.287  0.00  0.00    +0.000 OA
ATOM     27  O   UNL     1       7.506   6.617  16.785  0.00  0.00    +0.000 OA
ENDBRANCH  21  24
BRANCH  18  28
ATOM     28  O   UNL     1       1.713   3.694  17.594  0.00  0.00    +0.000 OA
BRANCH  28  30
ATOM     29  C   UNL     1       0.644   2.649  19.535  0.00  0.00    +0.000 C 
ATOM     30  C   UNL     1       1.482   2.452  18.288  0.00  0.00    +0.000 C 
ENDBRANCH  28  30
ENDBRANCH  18  28
ENDBRANCH   1  23
TORSDOF 6
ENDMDL
MODEL 2
REMARK VINA RESULT:      -7.3      1.109      1.253
REMARK  Name = 
REMARK  8 active torsions:
REMARK  status: ('A' for Active; 'I' for Inactive)
REMARK    1  A    between atoms: C_1  and  C_2
REMARK    2  A    between atoms: C_2  and  O_3
REMARK    3  A    between atoms: O_3  and  C_4
REMARK    4  A    between atoms: C_7  and  S_8
REMARK    5  A    between atoms: S_8  and  C_9
REMARK    6  A    between atoms: C_13  and  C_14
REMARK    7  A    between atoms: N_19  and  C_20
REMARK    8  A    between atoms: C_23  and  C_24
REMARK                            x       y       z     vdW  Elec       q    Type
REMARK                         _______ _______ _______ _____ _____    ______ ____
ROOT
ATOM      1  C   UNL     1       2.218   6.750  19.618  0.00  0.00    +0.000 C 
ATOM      2  O   UNL     1       2.025   6.265  20.739  0.00  0.00    +0.000 OA
ATOM      3  N   UNL     1       1.633   7.960  19.274  0.00  0.00    +0.000 N 
ATOM      4  C   UNL     1       0.931   8.742  20.304  0.00  0.00    +0.000 C 
ATOM      5  C   UNL     1       1.431  10.201  20.337  0.00  0.00    +0.000 C 
ATOM      6  N   UNL     1       1.349  10.824  18.991  0.00  0.00    +0.000 N 
ATOM      7  C   UNL     1       2.000  10.004  17.931  0.00  0.00    +0.000 C 
ATOM      8  C   UNL     1       1.489   8.545  17.946  0.00  0.00    +0.000 C 
ENDROOT
BRANCH   6   9
ATOM      9  C   UNL     1       1.586  12.211  18.895  0.00  0.00    +0.000 A 
ATOM     10  C   UNL     1       2.746  12.658  18.237  0.00  0.00    +0.000 A 
ATOM     11  C   UNL     1       3.008  14.019  18.026  0.00  0.00    +0.000 A 
ATOM     12  C   UNL     1       2.106  14.986  18.471  0.00  0.00    +0.000 A 
ATOM     13  C   UNL     1       0.954  14.581  19.140  0.00  0.00    +0.000 A 
ATOM     14  C   UNL     1       0.705  13.219  19.344  0.00  0.00    +0.000 A 
ATOM     15  F   UNL     1      -0.422  12.912  20.005  0.00  0.00    +0.000 F 
BRANCH  12  16
ATOM     16  C   UNL     1       2.357  16.378  18.225  0.00  0.00    +0.000 C 
ATOM     17  N   UNL     1       2.561  17.500  18.015  0.00  0.00    +0.000 NA
ENDBRANCH  12  16
ENDBRANCH   6   9
BRANCH   1  23
ATOM     18  C   UNL     1       2.713   4.875  17.872  0.00  0.00    +0.000 A 
ATOM     19  C   UNL     1       3.619   4.416  16.890  0.00  0.00    +0.000 A 
ATOM     20  C   UNL     1       4.906   4.926  16.776  0.00  0.00    +0.000 A 
ATOM     21  C   UNL     1       5.304   5.944  17.626  0.00  0.00    +0.000 A 
ATOM     22  C   UNL     1       4.421   6.448  18.589  0.00  0.00    +0.000 A 
ATOM     23  C   UNL     1       3.103   5.937  18.716  0.00  0.00    +0.000 A 
BRANCH  21  24
ATOM     24  S   UNL     1       6.932   6.630  17.437  0.00  0.00    +0.000 S 
ATOM     25  C   UNL     1       7.814   6.048  18.861  0.00  0.00    +0.000 C 
ATOM     26  O   UNL     1       7.503   6.033  16.251  0.00  0.00    +0.000 OA
ATOM     27  O   UNL     1       6.814   8.070  17.566  0.00  0.00    +0.000 OA
ENDBRANCH  21  24
BRANCH  18  28
ATOM     28  O   UNL     1       1.463   4.301  17.974  0.00  0.00    +0.000 OA
BRANCH  28  30
ATOM     29  C   UNL     1       1.148   2.949  19.993  0.00  0.00    +0.000 C 
ATOM     30  C   UNL     1       1.468   2.964  18.512  0.00  0.00    +0.000 C 
ENDBRANCH  28  30
ENDBRANCH  18  28
ENDBRANCH   1  23
TORSDOF 6
ENDMDL
MODEL 3
REMARK VINA RESULT:      -6.9      1.582      1.855
REMARK  Name = 
REMARK  8 active torsions:
REMARK  status: ('A' for Active; 'I' for Inactive)
REMARK    1  A    between atoms: C_1  and  C_2
REMARK    2  A    between atoms: C_2  and  O_3
REMARK    3  A    between atoms: O_3  and  C_4
REMARK    4  A    between atoms: C_7  and  S_8
REMARK    5  A    between atoms: S_8  and  C_9
REMARK    6  A    between atoms: C_13  and  C_14
REMARK    7  A    between atoms: N_19  and  C_20
REMARK    8  A    between atoms: C_23  and  C_24
REMARK                            x       y       z     vdW  Elec       q    Type
REMARK                         _______ _______ _______ _____ _____    ______ ____
ROOT
ATOM      1  C   UNL     1       1.834   6.875  19.969  0.00  0.00    +0.000 C 
ATOM      2  O   UNL     1       1.675   6.490  21.133  0.00  0.00    +0.000 OA
ATOM      3  N   UNL     1       1.344   8.110  19.571  0.00  0.00    +0.000 N 
ATOM      4  C   UNL     1       0.793   9.028  20.582  0.00  0.00    +0.000 C 
ATOM      5  C   UNL     1       1.430  10.429  20.473  0.00  0.00    +0.000 C 
ATOM      6  N   UNL     1       1.314  10.962  19.091  0.00  0.00    +0.000 N 
ATOM      7  C   UNL     1       1.808  10.010  18.057  0.00  0.00    +0.000 C 
ATOM      8  C   UNL     1       1.163   8.613  18.214  0.00  0.00    +0.000 C 
ENDROOT
BRANCH   6   9
ATOM      9  C   UNL     1       1.674  12.308  18.876  0.00  0.00    +0.000 A 
ATOM     10  C   UNL     1       2.861  12.590  18.176  0.00  0.00    +0.000 A 
ATOM     11  C   UNL     1       3.242  13.900  17.848  0.00  0.00    +0.000 A 
ATOM     12  C   UNL     1       2.436  14.978  18.213  0.00  0.00    +0.000 A 
ATOM     13  C   UNL     1       1.262  14.738  18.921  0.00  0.00    +0.000 A 
ATOM     14  C   UNL     1       0.893  13.427  19.242  0.00  0.00    +0.000 A 
ATOM     15  F   UNL     1      -0.248  13.281  19.933  0.00  0.00    +0.000 F 
BRANCH  12  16
ATOM     16  C   UNL     1       2.809  16.316  17.849  0.00  0.00    +0.000 C 
ATOM     17  N   UNL     1       3.122  17.392  17.550  0.00  0.00    +0.000 NA
ENDBRANCH  12  16
ENDBRANCH   6   9
BRANCH   1  23
ATOM     18  C   UNL     1       2.159   4.625  18.686  0.00  0.00    +0.000 A 
ATOM     19  C   UNL     1       2.836   3.984  17.624  0.00  0.00    +0.000 A 
ATOM     20  C   UNL     1       3.941   4.552  17.003  0.00  0.00    +0.000 A 
ATOM     21  C   UNL     1       4.371   5.804  17.407  0.00  0.00    +0.000 A 
ATOM     22  C   UNL     1       3.703   6.484  18.432  0.00  0.00    +0.000 A 
ATOM     23  C   UNL     1       2.573   5.917  19.077  0.00  0.00    +0.000 A 
BRANCH  21  24
ATOM     24  S   UNL     1       5.750   6.548  16.569  0.00  0.00    +0.000 S 
ATOM     25  C   UNL     1       6.907   5.218  16.375  0.00  0.00    +0.000 C 
ATOM     26  O   UNL     1       5.277   6.956  15.265  0.00  0.00    +0.000 OA
ATOM     27  O   UNL     1       6.347   7.505  17.481  0.00  0.00    +0.000 OA
ENDBRANCH  21  24
BRANCH  18  28
ATOM     28  O   UNL     1       1.098   3.996  19.302  0.00  0.00    +0.000 OA
BRANCH  28  30
ATOM     29  C   UNL     1       1.523   2.851  21.425  0.00  0.00    +0.000 C 
ATOM     30  C   UNL     1       1.432   2.736  19.917  0.00  0.00    +0.000 C 
ENDBRANCH  28  30
ENDBRANCH  18  28
ENDBRANCH   1  23
TORSDOF 6
ENDMDL
MODEL 4
REMARK VINA RESULT:      -6.9      1.104      1.468
REMARK  Name = 
REMARK  8 active torsions:
REMARK  status: ('A' for Active; 'I' for Inactive)
REMARK    1  A    between atoms: C_1  and  C_2
REMARK    2  A    between atoms: C_2  and  O_3
REMARK    3  A    between atoms: O_3  and  C_4
REMARK    4  A    between atoms: C_7  and  S_8
REMARK    5  A    between atoms: S_8  and  C_9
REMARK    6  A    between atoms: C_13  and  C_14
REMARK    7  A    between atoms: N_19  and  C_20
REMARK    8  A    between atoms: C_23  and  C_24
REMARK                            x       y       z     vdW  Elec       q    Type
REMARK                         _______ _______ _______ _____ _____    ______ ____
ROOT
ATOM      1  C   UNL     1       2.557   5.739  19.949  0.00  0.00    +0.000 C 
ATOM      2  O   UNL     1       2.527   5.252  21.085  0.00  0.00    +0.000 OA
ATOM      3  N   UNL     1       1.821   6.878  19.660  0.00  0.00    +0.000 N 
ATOM      4  C   UNL     1       1.148   7.600  20.753  0.00  0.00    +0.000 C 
ATOM      5  C   UNL     1       1.498   9.103  20.730  0.00  0.00    +0.000 C 
ATOM      6  N   UNL     1       1.219   9.695  19.396  0.00  0.00    +0.000 N 
ATOM      7  C   UNL     1       1.842   8.931  18.280  0.00  0.00    +0.000 C 
ATOM      8  C   UNL     1       1.486   7.427  18.351  0.00  0.00    +0.000 C 
ENDROOT
BRANCH   6   9
ATOM      9  C   UNL     1       1.303  11.097  19.273  0.00  0.00    +0.000 A 
ATOM     10  C   UNL     1       0.575  11.902  20.169  0.00  0.00    +0.000 A 
ATOM     11  C   UNL     1       0.673  13.301  20.166  0.00  0.00    +0.000 A 
ATOM     12  C   UNL     1       1.513  13.944  19.257  0.00  0.00    +0.000 A 
ATOM     13  C   UNL     1       2.236  13.181  18.345  0.00  0.00    +0.000 A 
ATOM     14  C   UNL     1       2.129  11.785  18.359  0.00  0.00    +0.000 A 
ATOM     15  F   UNL     1       2.852  11.124  17.442  0.00  0.00    +0.000 F 
BRANCH  12  16
ATOM     16  C   UNL     1       1.639  15.374  19.275  0.00  0.00    +0.000 C 
ATOM     17  N   UNL     1       1.754  16.528  19.288  0.00  0.00    +0.000 NA
ENDBRANCH  12  16
ENDBRANCH   6   9
BRANCH   1  23
ATOM     18  C   UNL     1       3.001   4.228  17.868  0.00  0.00    +0.000 A 
ATOM     19  C   UNL     1       3.950   3.851  16.890  0.00  0.00    +0.000 A 
ATOM     20  C   UNL     1       5.298   4.160  17.012  0.00  0.00    +0.000 A 
ATOM     21  C   UNL     1       5.724   4.894  18.105  0.00  0.00    +0.000 A 
ATOM     22  C   UNL     1       4.808   5.314  19.076  0.00  0.00    +0.000 A 
ATOM     23  C   UNL     1       3.426   5.007  18.965  0.00  0.00    +0.000 A 
BRANCH  21  24
ATOM     24  S   UNL     1       7.442   5.334  18.225  0.00  0.00    +0.000 S 
ATOM     25  C   UNL     1       7.517   6.973  17.553  0.00  0.00    +0.000 C 
ATOM     26  O   UNL     1       7.764   5.385  19.633  0.00  0.00    +0.000 OA
ATOM     27  O   UNL     1       8.175   4.467  17.321  0.00  0.00    +0.000 OA
ENDBRANCH  21  24
BRANCH  18  28
ATOM     28  O   UNL     1       1.682   3.854  17.723  0.00  0.00    +0.000 OA
BRANCH  28  30
ATOM     29  C   UNL     1       0.644   2.690  19.613  0.00  0.00    +0.000 C 
ATOM     30  C   UNL     1       1.367   2.565  18.287  0.00  0.00    +0.000 C 
ENDBRANCH  28  30
ENDBRANCH  18  28
ENDBRANCH   1  23
TORSDOF 6
ENDMDL
MODEL 5
REMARK VINA RESULT:      -6.8      1.146      1.348
REMARK  Name = 
REMARK  8 active torsions:
REMARK  status: ('A' for Active; 'I' for Inactive)
REMARK    1  A    between atoms: C_1  and  C_2
REMARK    2  A    between atoms: C_2  and  O_3
REMARK    3  A    between atoms: O_3  and  C_4
REMARK    4  A    between atoms: C_7  and  S_8
REMARK    5  A    between atoms: S_8  and  C_9
REMARK    6  A    between atoms: C_13  and  C_14
REMARK    7  A    between atoms: N_19  and  C_20
REMARK    8  A    between atoms: C_23  and  C_24
REMARK                            x       y       z     vdW  Elec       q    Type
REMARK                         _______ _______ _______ _____ _____    ______ ____
ROOT
ATOM      1  C   UNL     1       2.133   6.469  19.900  0.00  0.00    +0.000 C 
ATOM      2  O   UNL     1       1.877   6.018  21.023  0.00  0.00    +0.000 OA
ATOM      3  N   UNL     1       1.586   7.678  19.494  0.00  0.00    +0.000 N 
ATOM      4  C   UNL     1       0.847   8.499  20.468  0.00  0.00    +0.000 C 
ATOM      5  C   UNL     1       1.369   9.951  20.486  0.00  0.00    +0.000 C 
ATOM      6  N   UNL     1       1.363  10.537  19.121  0.00  0.00    +0.000 N 
ATOM      7  C   UNL     1       2.051   9.678  18.117  0.00  0.00    +0.000 C 
ATOM      8  C   UNL     1       1.516   8.228  18.146  0.00  0.00    +0.000 C 
ENDROOT
BRANCH   6   9
ATOM      9  C   UNL     1       1.627  11.917  19.000  0.00  0.00    +0.000 A 
ATOM     10  C   UNL     1       2.682  12.335  18.168  0.00  0.00    +0.000 A 
ATOM     11  C   UNL     1       2.952  13.691  17.928  0.00  0.00    +0.000 A 
ATOM     12  C   UNL     1       2.164  14.679  18.520  0.00  0.00    +0.000 A 
ATOM     13  C   UNL     1       1.122  14.302  19.361  0.00  0.00    +0.000 A 
ATOM     14  C   UNL     1       0.863  12.946  19.592  0.00  0.00    +0.000 A 
ATOM     15  F   UNL     1      -0.153  12.666  20.423  0.00  0.00    +0.000 F 
BRANCH  12  16
ATOM     16  C   UNL     1       2.419  16.066  18.248  0.00  0.00    +0.000 C 
ATOM     17  N   UNL     1       2.614  17.186  18.023  0.00  0.00    +0.000 NA
ENDBRANCH  12  16
ENDBRANCH   6   9
BRANCH   1  23
ATOM     18  C   UNL     1       2.679   4.752  18.012  0.00  0.00    +0.000 A 
ATOM     19  C   UNL     1       3.687   4.253  17.157  0.00  0.00    +0.000 A 
ATOM     20  C   UNL     1       5.033   4.526  17.363  0.00  0.00    +0.000 A 
ATOM     21  C   UNL     1       5.400   5.346  18.416  0.00  0.00    +0.000 A 
ATOM     22  C   UNL     1       4.426   5.887  19.263  0.00  0.00    +0.000 A 
ATOM     23  C   UNL     1       3.047   5.618  19.065  0.00  0.00    +0.000 A 
BRANCH  21  24
ATOM     24  S   UNL     1       7.119   5.736  18.638  0.00  0.00    +0.000 S 
ATOM     25  C   UNL     1       7.969   4.502  17.689  0.00  0.00    +0.000 C 
ATOM     26  O   UNL     1       7.337   7.030  18.033  0.00  0.00    +0.000 OA
ATOM     27  O   UNL     1       7.440   5.499  20.033  0.00  0.00    +0.000 OA
ENDBRANCH  21  24
BRANCH  18  28
ATOM     28  O   UNL     1       1.361   4.412  17.792  0.00  0.00    +0.000 OA
BRANCH  28  30
ATOM     29  C   UNL     1       1.574   2.135  18.670  0.00  0.00    +0.000 C 
ATOM     30  C   UNL     1       0.833   3.455  18.731  0.00  0.00    +0.000 C 
ENDBRANCH  28  30
ENDBRANCH  18  28
ENDBRANCH   1  23
TORSDOF 6
ENDMDL
MODEL 6
REMARK VINA RESULT:      -6.6      5.151      9.890
REMARK  Name = 
REMARK  8 active torsions:
REMARK  status: ('A' for Active; 'I' for Inactive)
REMARK    1  A    between atoms: C_1  and  C_2
REMARK    2  A    between atoms: C_2  and  O_3
REMARK    3  A    between atoms: O_3  and  C_4
REMARK    4  A    between atoms: C_7  and  S_8
REMARK    5  A    between atoms: S_8  and  C_9
REMARK    6  A    between atoms: C_13  and  C_14
REMARK    7  A    between atoms: N_19  and  C_20
REMARK    8  A    between atoms: C_23  and  C_24
REMARK                            x       y       z     vdW  Elec       q    Type
REMARK                         _______ _______ _______ _____ _____    ______ ____
ROOT
ATOM      1  C   UNL     1      -0.597  11.882  19.540  0.00  0.00    +0.000 C 
ATOM      2  O   UNL     1      -0.954  12.547  18.560  0.00  0.00    +0.000 OA
ATOM      3  N   UNL     1      -0.250  10.548  19.387  0.00  0.00    +0.000 N 
ATOM      4  C   UNL     1      -0.142   9.980  18.033  0.00  0.00    +0.000 C 
ATOM      5  C   UNL     1       1.207   9.258  17.834  0.00  0.00    +0.000 C 
ATOM      6  N   UNL     1       1.432   8.246  18.899  0.00  0.00    +0.000 N 
ATOM      7  C   UNL     1       1.258   8.798  20.271  0.00  0.00    +0.000 C 
ATOM      8  C   UNL     1      -0.095   9.533  20.422  0.00  0.00    +0.000 C 
ENDROOT
BRANCH   6   9
ATOM      9  C   UNL     1       2.526   7.369  18.747  0.00  0.00    +0.000 A 
ATOM     10  C   UNL     1       3.447   7.606  17.710  0.00  0.00    +0.000 A 
ATOM     11  C   UNL     1       4.605   6.832  17.548  0.00  0.00    +0.000 A 
ATOM     12  C   UNL     1       4.881   5.787  18.430  0.00  0.00    +0.000 A 
ATOM     13  C   UNL     1       3.983   5.513  19.458  0.00  0.00    +0.000 A 
ATOM     14  C   UNL     1       2.831   6.294  19.609  0.00  0.00    +0.000 A 
ATOM     15  F   UNL     1       2.014   5.960  20.619  0.00  0.00    +0.000 F 
BRANCH  12  16
ATOM     16  C   UNL     1       6.083   5.015  18.285  0.00  0.00    +0.000 C 
ATOM     17  N   UNL     1       7.060   4.402  18.169  0.00  0.00    +0.000 NA
ENDBRANCH  12  16
ENDBRANCH   6   9
BRANCH   1  23
ATOM     18  C   UNL     1       0.425  13.504  21.310  0.00  0.00    +0.000 A 
ATOM     19  C   UNL     1       0.146  14.333  22.420  0.00  0.00    +0.000 A 
ATOM     20  C   UNL     1      -1.056  14.262  23.111  0.00  0.00    +0.000 A 
ATOM     21  C   UNL     1      -2.030  13.379  22.678  0.00  0.00    +0.000 A 
ATOM     22  C   UNL     1      -1.802  12.567  21.561  0.00  0.00    +0.000 A 
ATOM     23  C   UNL     1      -0.579  12.629  20.844  0.00  0.00    +0.000 A 
BRANCH  21  24
ATOM     24  S   UNL     1      -3.587  13.334  23.534  0.00  0.00    +0.000 S 
ATOM     25  C   UNL     1      -3.344  14.399  24.930  0.00  0.00    +0.000 C 
ATOM     26  O   UNL     1      -4.567  13.927  22.652  0.00  0.00    +0.000 OA
ATOM     27  O   UNL     1      -3.761  11.988  24.047  0.00  0.00    +0.000 OA
ENDBRANCH  21  24
BRANCH  18  28
ATOM     28  O   UNL     1       1.654  13.581  20.688  0.00  0.00    +0.000 OA
BRANCH  28  30
ATOM     29  C   UNL     1       1.739  14.940  18.652  0.00  0.00    +0.000 C 
ATOM     30  C   UNL     1       1.964  14.881  20.149  0.00  0.00    +0.000 C 
ENDBRANCH  28  30
ENDBRANCH  18  28
ENDBRANCH   1  23
TORSDOF 6
ENDMDL
MODEL 7
REMARK VINA RESULT:      -6.5      6.629     10.683
REMARK  Name = 
REMARK  8 active torsions:
REMARK  status: ('A' for Active; 'I' for Inactive)
REMARK    1  A    between atoms: C_1  and  C_2
REMARK    2  A    between atoms: C_2  and  O_3
REMARK    3  A    between atoms: O_3  and  C_4
REMARK    4  A    between atoms: C_7  and  S_8
REMARK    5  A    between atoms: S_8  and  C_9
REMARK    6  A    between atoms: C_13  and  C_14
REMARK    7  A    between atoms: N_19  and  C_20
REMARK    8  A    between atoms: C_23  and  C_24
REMARK                            x       y       z     vdW  Elec       q    Type
REMARK                         _______ _______ _______ _____ _____    ______ ____
ROOT
ATOM      1  C   UNL     1      -3.622  12.481  22.549  0.00  0.00    +0.000 C 
ATOM      2  O   UNL     1      -3.942  12.218  23.715  0.00  0.00    +0.000 OA
ATOM      3  N   UNL     1      -2.327  12.246  22.113  0.00  0.00    +0.000 N 
ATOM      4  C   UNL     1      -1.390  11.523  22.988  0.00  0.00    +0.000 C 
ATOM      5  C   UNL     1      -0.725  10.345  22.245  0.00  0.00    +0.000 C 
ATOM      6  N   UNL     1      -0.092  10.801  20.980  0.00  0.00    +0.000 N 
ATOM      7  C   UNL     1      -1.016  11.592  20.120  0.00  0.00    +0.000 C 
ATOM      8  C   UNL     1      -1.678  12.747  20.907  0.00  0.00    +0.000 C 
ENDROOT
BRANCH   6   9
ATOM      9  C   UNL     1       0.721   9.881  20.287  0.00  0.00    +0.000 A 
ATOM     10  C   UNL     1       1.059   8.667  20.914  0.00  0.00    +0.000 A 
ATOM     11  C   UNL     1       1.790   7.666  20.258  0.00  0.00    +0.000 A 
ATOM     12  C   UNL     1       2.209   7.851  18.940  0.00  0.00    +0.000 A 
ATOM     13  C   UNL     1       1.906   9.046  18.294  0.00  0.00    +0.000 A 
ATOM     14  C   UNL     1       1.176  10.037  18.959  0.00  0.00    +0.000 A 
ATOM     15  F   UNL     1       0.933  11.163  18.270  0.00  0.00    +0.000 F 
BRANCH  12  16
ATOM     16  C   UNL     1       2.928   6.813  18.257  0.00  0.00    +0.000 C 
ATOM     17  N   UNL     1       3.512   5.983  17.696  0.00  0.00    +0.000 NA
ENDBRANCH  12  16
ENDBRANCH   6   9
BRANCH   1  23
ATOM     18  C   UNL     1      -5.418  14.263  21.909  0.00  0.00    +0.000 A 
ATOM     19  C   UNL     1      -6.217  14.779  20.864  0.00  0.00    +0.000 A 
ATOM     20  C   UNL     1      -6.400  14.098  19.668  0.00  0.00    +0.000 A 
ATOM     21  C   UNL     1      -5.748  12.892  19.474  0.00  0.00    +0.000 A 
ATOM     22  C   UNL     1      -4.920  12.367  20.474  0.00  0.00    +0.000 A 
ATOM     23  C   UNL     1      -4.723  13.052  21.701  0.00  0.00    +0.000 A 
BRANCH  21  24
ATOM     24  S   UNL     1      -5.942  12.054  17.920  0.00  0.00    +0.000 S 
ATOM     25  C   UNL     1      -4.310  11.477  17.533  0.00  0.00    +0.000 C 
ATOM     26  O   UNL     1      -6.800  10.916  18.161  0.00  0.00    +0.000 OA
ATOM     27  O   UNL     1      -6.288  13.054  16.928  0.00  0.00    +0.000 OA
ENDBRANCH  21  24
BRANCH  18  28
ATOM     28  O   UNL     1      -5.309  14.957  23.096  0.00  0.00    +0.000 OA
BRANCH  28  30
ATOM     29  C   UNL     1      -7.269  13.956  24.170  0.00  0.00    +0.000 C 
ATOM     30  C   UNL     1      -6.569  15.229  23.741  0.00  0.00    +0.000 C 
ENDBRANCH  28  30
ENDBRANCH  18  28
ENDBRANCH   1  23
TORSDOF 6
ENDMDL
MODEL 8
REMARK VINA RESULT:      -6.5      6.482     10.541
REMARK  Name = 
REMARK  8 active torsions:
REMARK  status: ('A' for Active; 'I' for Inactive)
REMARK    1  A    between atoms: C_1  and  C_2
REMARK    2  A    between atoms: C_2  and  O_3
REMARK    3  A    between atoms: O_3  and  C_4
REMARK    4  A    between atoms: C_7  and  S_8
REMARK    5  A    between atoms: S_8  and  C_9
REMARK    6  A    between atoms: C_13  and  C_14
REMARK    7  A    between atoms: N_19  and  C_20
REMARK    8  A    between atoms: C_23  and  C_24
REMARK                            x       y       z     vdW  Elec       q    Type
REMARK                         _______ _______ _______ _____ _____    ______ ____
ROOT
ATOM      1  C   UNL     1      -2.519  13.149  20.625  0.00  0.00    +0.000 C 
ATOM      2  O   UNL     1      -2.167  14.111  21.319  0.00  0.00    +0.000 OA
ATOM      3  N   UNL     1      -1.574  12.417  19.921  0.00  0.00    +0.000 N 
ATOM      4  C   UNL     1      -0.143  12.681  20.142  0.00  0.00    +0.000 C 
ATOM      5  C   UNL     1       0.625  11.379  20.450  0.00  0.00    +0.000 C 
ATOM      6  N   UNL     1       0.388  10.358  19.398  0.00  0.00    +0.000 N 
ATOM      7  C   UNL     1      -1.058  10.135  19.121  0.00  0.00    +0.000 C 
ATOM      8  C   UNL     1      -1.796  11.464  18.840  0.00  0.00    +0.000 C 
ENDROOT
BRANCH   6   9
ATOM      9  C   UNL     1       1.172   9.186  19.434  0.00  0.00    +0.000 A 
ATOM     10  C   UNL     1       1.150   8.391  20.595  0.00  0.00    +0.000 A 
ATOM     11  C   UNL     1       1.833   7.169  20.675  0.00  0.00    +0.000 A 
ATOM     12  C   UNL     1       2.566   6.700  19.585  0.00  0.00    +0.000 A 
ATOM     13  C   UNL     1       2.623   7.468  18.426  0.00  0.00    +0.000 A 
ATOM     14  C   UNL     1       1.936   8.686  18.358  0.00  0.00    +0.000 A 
ATOM     15  F   UNL     1       2.049   9.370  17.209  0.00  0.00    +0.000 F 
BRANCH  12  16
ATOM     16  C   UNL     1       3.238   5.433  19.656  0.00  0.00    +0.000 C 
ATOM     17  N   UNL     1       3.772   4.405  19.705  0.00  0.00    +0.000 NA
ENDBRANCH  12  16
ENDBRANCH   6   9
BRANCH   1  23
ATOM     18  C   UNL     1      -4.776  12.422  19.537  0.00  0.00    +0.000 A 
ATOM     19  C   UNL     1      -6.083  11.944  19.788  0.00  0.00    +0.000 A 
ATOM     20  C   UNL     1      -6.649  11.971  21.056  0.00  0.00    +0.000 A 
ATOM     21  C   UNL     1      -5.898  12.444  22.118  0.00  0.00    +0.000 A 
ATOM     22  C   UNL     1      -4.588  12.894  21.914  0.00  0.00    +0.000 A 
ATOM     23  C   UNL     1      -3.996  12.872  20.624  0.00  0.00    +0.000 A 
BRANCH  21  24
ATOM     24  S   UNL     1      -6.609  12.423  23.746  0.00  0.00    +0.000 S 
ATOM     25  C   UNL     1      -7.142  14.094  24.007  0.00  0.00    +0.000 C 
ATOM     26  O   UNL     1      -7.769  11.562  23.685  0.00  0.00    +0.000 OA
ATOM     27  O   UNL     1      -5.534  12.165  24.686  0.00  0.00    +0.000 OA
ENDBRANCH  21  24
BRANCH  18  28
ATOM     28  O   UNL     1      -4.279  12.418  18.251  0.00  0.00    +0.000 OA
BRANCH  28  30
ATOM     29  C   UNL     1      -4.230  11.089  16.194  0.00  0.00    +0.000 C 
ATOM     30  C   UNL     1      -5.074  11.667  17.312  0.00  0.00    +0.000 C 
ENDBRANCH  28  30
ENDBRANCH  18  28
ENDBRANCH   1  23
TORSDOF 6
ENDMDL
MODEL 9
REMARK VINA RESULT:      -6.5      1.045      1.088
REMARK  Name = 
REMARK  8 active torsions:
REMARK  status: ('A' for Active; 'I' for Inactive)
REMARK    1  A    between atoms: C_1  and  C_2
REMARK    2  A    between atoms: C_2  and  O_3
REMARK    3  A    between atoms: O_3  and  C_4
REMARK    4  A    between atoms: C_7  and  S_8
REMARK    5  A    between atoms: S_8  and  C_9
REMARK    6  A    between atoms: C_13  and  C_14
REMARK    7  A    between atoms: N_19  and  C_20
REMARK    8  A    between atoms: C_23  and  C_24
REMARK                            x       y       z     vdW  Elec       q    Type
REMARK                         _______ _______ _______ _____ _____    ______ ____
ROOT
ATOM      1  C   UNL     1       2.760   5.396  19.913  0.00  0.00    +0.000 C 
ATOM      2  O   UNL     1       2.720   4.880  21.035  0.00  0.00    +0.000 OA
ATOM      3  N   UNL     1       1.991   6.518  19.635  0.00  0.00    +0.000 N 
ATOM      4  C   UNL     1       1.269   7.187  20.730  0.00  0.00    +0.000 C 
ATOM      5  C   UNL     1       1.566   8.701  20.754  0.00  0.00    +0.000 C 
ATOM      6  N   UNL     1       1.298   9.318  19.429  0.00  0.00    +0.000 N 
ATOM      7  C   UNL     1       1.972   8.605  18.309  0.00  0.00    +0.000 C 
ATOM      8  C   UNL     1       1.668   7.089  18.333  0.00  0.00    +0.000 C 
ENDROOT
BRANCH   6   9
ATOM      9  C   UNL     1       1.336  10.725  19.343  0.00  0.00    +0.000 A 
ATOM     10  C   UNL     1       2.200  11.325  18.409  0.00  0.00    +0.000 A 
ATOM     11  C   UNL     1       2.231  12.712  18.204  0.00  0.00    +0.000 A 
ATOM     12  C   UNL     1       1.387  13.550  18.934  0.00  0.00    +0.000 A 
ATOM     13  C   UNL     1       0.530  12.992  19.878  0.00  0.00    +0.000 A 
ATOM     14  C   UNL     1       0.509  11.606  20.073  0.00  0.00    +0.000 A 
ATOM     15  F   UNL     1      -0.339  11.149  21.007  0.00  0.00    +0.000 F 
BRANCH  12  16
ATOM     16  C   UNL     1       1.395  14.966  18.700  0.00  0.00    +0.000 C 
ATOM     17  N   UNL     1       1.413  16.111  18.516  0.00  0.00    +0.000 NA
ENDBRANCH  12  16
ENDBRANCH   6   9
BRANCH   1  23
ATOM     18  C   UNL     1       3.652   3.365  18.539  0.00  0.00    +0.000 A 
ATOM     19  C   UNL     1       4.397   2.971  17.404  0.00  0.00    +0.000 A 
ATOM     20  C   UNL     1       5.209   3.858  16.709  0.00  0.00    +0.000 A 
ATOM     21  C   UNL     1       5.262   5.181  17.113  0.00  0.00    +0.000 A 
ATOM     22  C   UNL     1       4.511   5.615  18.212  0.00  0.00    +0.000 A 
ATOM     23  C   UNL     1       3.676   4.721  18.932  0.00  0.00    +0.000 A 
BRANCH  21  24
ATOM     24  S   UNL     1       6.258   6.321  16.184  0.00  0.00    +0.000 S 
ATOM     25  C   UNL     1       6.904   7.430  17.409  0.00  0.00    +0.000 C 
ATOM     26  O   UNL     1       7.348   5.560  15.616  0.00  0.00    +0.000 OA
ATOM     27  O   UNL     1       5.364   7.091  15.340  0.00  0.00    +0.000 OA
ENDBRANCH  21  24
BRANCH  18  28
ATOM     28  O   UNL     1       2.900   2.434  19.223  0.00  0.00    +0.000 OA
BRANCH  28  30
ATOM     29  C   UNL     1       0.470   2.739  19.161  0.00  0.00    +0.000 C 
ATOM     30  C   UNL     1       1.679   2.055  18.557  0.00  0.00    +0.000 C 
ENDBRANCH  28  30
ENDBRANCH  18  28
ENDBRANCH   1  23
TORSDOF 6
ENDMDL
