MODEL 1
REMARK VINA RESULT:      -8.4      0.000      0.000
REMARK  Name = 
REMARK  7 active torsions:
REMARK  status: ('A' for Active; 'I' for Inactive)
REMARK    1  A    between atoms: C_1  and  O_2
REMARK    2  A    between atoms: O_2  and  C_3
REMARK    3  A    between atoms: C_6  and  N_7
REMARK    4  A    between atoms: C_8  and  C_10
REMARK    5  A    between atoms: N_23  and  C_24
REMARK    6  A    between atoms: C_26  and  O_27
REMARK    7  A    between atoms: O_27  and  C_28
REMARK                            x       y       z     vdW  Elec       q    Type
REMARK                         _______ _______ _______ _____ _____    ______ ____
ROOT
ATOM      1  C   UNL     1       1.613   8.080  20.198  0.00  0.00    +0.000 A 
ATOM      2  C   UNL     1       1.186   8.389  21.487  0.00  0.00    +0.000 A 
ATOM      3  C   UNL     1       0.505   9.625  21.436  0.00  0.00    +0.000 A 
ATOM      4  C   UNL     1      -0.115  10.448  22.447  0.00  0.00    +0.000 A 
ATOM      5  O   UNL     1      -0.133  10.107  23.629  0.00  0.00    +0.000 OA
ATOM      6  N   UNL     1      -0.663  11.641  21.937  0.00  0.00    +0.000 N 
ATOM      7  C   UNL     1      -1.260  12.528  22.827  0.00  0.00    +0.000 A 
ATOM      8  C   UNL     1      -1.803  13.681  22.422  0.00  0.00    +0.000 A 
ATOM      9  C   UNL     1      -1.791  14.036  21.030  0.00  0.00    +0.000 A 
ATOM     10  C   UNL     1      -1.230  13.222  20.126  0.00  0.00    +0.000 A 
ATOM     11  C   UNL     1      -0.606  11.939  20.559  0.00  0.00    +0.000 A 
ATOM     12  N   UNL     1      -0.056  11.183  19.648  0.00  0.00    +0.000 NA
ATOM     13  C   UNL     1       0.489  10.046  20.133  0.00  0.00    +0.000 A 
ATOM     14  N   UNL     1       1.146   9.109  19.380  0.00  0.00    +0.000 N 
ATOM     15  C   UNL     1       1.346   9.206  17.946  0.00  0.00    +0.000 C 
ENDROOT
BRANCH   1  17
ATOM     16  N   UNL     1       3.170   7.216  18.576  0.00  0.00    +0.000 N 
ATOM     17  C   UNL     1       2.386   6.953  19.694  0.00  0.00    +0.000 C 
ATOM     18  O   UNL     1       2.314   5.853  20.226  0.00  0.00    +0.000 OA
ATOM     19  H   UNL     1       3.156   8.154  18.207  0.00  0.00    +0.000 HD
BRANCH  16  23
ATOM     20  C   UNL     1       5.559   4.543  16.310  0.00  0.00    +0.000 A 
ATOM     21  C   UNL     1       4.279   4.164  16.728  0.00  0.00    +0.000 A 
ATOM     22  C   UNL     1       3.480   5.028  17.469  0.00  0.00    +0.000 A 
ATOM     23  C   UNL     1       3.952   6.277  17.862  0.00  0.00    +0.000 A 
ATOM     24  C   UNL     1       5.264   6.622  17.523  0.00  0.00    +0.000 A 
ATOM     25  C   UNL     1       6.079   5.768  16.753  0.00  0.00    +0.000 A 
BRANCH  20  27
ATOM     26  C   UNL     1       6.206   4.026  14.095  0.00  0.00    +0.000 C 
ATOM     27  O   UNL     1       6.296   3.729  15.491  0.00  0.00    +0.000 OA
ENDBRANCH  20  27
BRANCH  25  28
ATOM     28  O   UNL     1       7.318   6.308  16.523  0.00  0.00    +0.000 OA
ATOM     29  C   UNL     1       7.770   7.374  17.343  0.00  0.00    +0.000 C 
ENDBRANCH  25  28
ENDBRANCH  16  23
ENDBRANCH   1  17
TORSDOF 4
ENDMDL
MODEL 2
REMARK VINA RESULT:      -8.2      1.068      1.165
REMARK  Name = 
REMARK  7 active torsions:
REMARK  status: ('A' for Active; 'I' for Inactive)
REMARK    1  A    between atoms: C_1  and  O_2
REMARK    2  A    between atoms: O_2  and  C_3
REMARK    3  A    between atoms: C_6  and  N_7
REMARK    4  A    between atoms: C_8  and  C_10
REMARK    5  A    between atoms: N_23  and  C_24
REMARK    6  A    between atoms: C_26  and  O_27
REMARK    7  A    between atoms: O_27  and  C_28
REMARK                            x       y       z     vdW  Elec       q    Type
REMARK                         _______ _______ _______ _____ _____    ______ ____
ROOT
ATOM      1  C   UNL     1       1.749   8.011  19.804  0.00  0.00    +0.000 A 
ATOM      2  C   UNL     1       1.443   8.190  21.150  0.00  0.00    +0.000 A 
ATOM      3  C   UNL     1       0.647   9.351  21.266  0.00  0.00    +0.000 A 
ATOM      4  C   UNL     1       0.070  10.039  22.396  0.00  0.00    +0.000 A 
ATOM      5  O   UNL     1       0.216   9.623  23.543  0.00  0.00    +0.000 OA
ATOM      6  N   UNL     1      -0.641  11.201  22.038  0.00  0.00    +0.000 N 
ATOM      7  C   UNL     1      -1.216  11.963  23.051  0.00  0.00    +0.000 A 
ATOM      8  C   UNL     1      -1.907  13.079  22.794  0.00  0.00    +0.000 A 
ATOM      9  C   UNL     1      -2.084  13.523  21.439  0.00  0.00    +0.000 A 
ATOM     10  C   UNL     1      -1.554  12.831  20.422  0.00  0.00    +0.000 A 
ATOM     11  C   UNL     1      -0.768  11.592  20.688  0.00  0.00    +0.000 A 
ATOM     12  N   UNL     1      -0.255  10.957  19.669  0.00  0.00    +0.000 NA
ATOM     13  C   UNL     1       0.446   9.853  20.007  0.00  0.00    +0.000 A 
ATOM     14  N   UNL     1       1.099   9.039  19.120  0.00  0.00    +0.000 N 
ATOM     15  C   UNL     1       1.127   9.248  17.684  0.00  0.00    +0.000 C 
ENDROOT
BRANCH   1  17
ATOM     16  N   UNL     1       3.650   7.491  18.419  0.00  0.00    +0.000 N 
ATOM     17  C   UNL     1       2.564   7.004  19.138  0.00  0.00    +0.000 C 
ATOM     18  O   UNL     1       2.274   5.816  19.204  0.00  0.00    +0.000 OA
ATOM     19  H   UNL     1       3.800   8.488  18.420  0.00  0.00    +0.000 HD
BRANCH  16  23
ATOM     20  C   UNL     1       6.478   5.288  16.152  0.00  0.00    +0.000 A 
ATOM     21  C   UNL     1       5.380   5.883  15.523  0.00  0.00    +0.000 A 
ATOM     22  C   UNL     1       4.444   6.612  16.250  0.00  0.00    +0.000 A 
ATOM     23  C   UNL     1       4.544   6.726  17.633  0.00  0.00    +0.000 A 
ATOM     24  C   UNL     1       5.591   6.057  18.275  0.00  0.00    +0.000 A 
ATOM     25  C   UNL     1       6.561   5.334  17.552  0.00  0.00    +0.000 A 
BRANCH  20  27
ATOM     26  C   UNL     1       7.331   4.808  13.999  0.00  0.00    +0.000 C 
ATOM     27  O   UNL     1       7.451   4.665  15.417  0.00  0.00    +0.000 OA
ENDBRANCH  20  27
BRANCH  25  28
ATOM     28  O   UNL     1       7.504   4.772  18.374  0.00  0.00    +0.000 OA
ATOM     29  C   UNL     1       7.960   5.503  19.502  0.00  0.00    +0.000 C 
ENDBRANCH  25  28
ENDBRANCH  16  23
ENDBRANCH   1  17
TORSDOF 4
ENDMDL
MODEL 3
REMARK VINA RESULT:      -8.2      0.893      1.877
REMARK  Name = 
REMARK  7 active torsions:
REMARK  status: ('A' for Active; 'I' for Inactive)
REMARK    1  A    between atoms: C_1  and  O_2
REMARK    2  A    between atoms: O_2  and  C_3
REMARK    3  A    between atoms: C_6  and  N_7
REMARK    4  A    between atoms: C_8  and  C_10
REMARK    5  A    between atoms: N_23  and  C_24
REMARK    6  A    between atoms: C_26  and  O_27
REMARK    7  A    between atoms: O_27  and  C_28
REMARK                            x       y       z     vdW  Elec       q    Type
REMARK                         _______ _______ _______ _____ _____    ______ ____
ROOT
ATOM      1  C   UNL     1       1.573   8.171  20.124  0.00  0.00    +0.000 A 
ATOM      2  C   UNL     1       1.182   8.421  21.437  0.00  0.00    +0.000 A 
ATOM      3  C   UNL     1       0.479   9.646  21.457  0.00  0.00    +0.000 A 
ATOM      4  C   UNL     1      -0.121  10.418  22.519  0.00  0.00    +0.000 A 
ATOM      5  O   UNL     1      -0.097  10.030  23.685  0.00  0.00    +0.000 OA
ATOM      6  N   UNL     1      -0.704  11.620  22.074  0.00  0.00    +0.000 N 
ATOM      7  C   UNL     1      -1.288  12.461  23.016  0.00  0.00    +0.000 A 
ATOM      8  C   UNL     1      -1.862  13.620  22.675  0.00  0.00    +0.000 A 
ATOM      9  C   UNL     1      -1.899  14.029  21.298  0.00  0.00    +0.000 A 
ATOM     10  C   UNL     1      -1.353  13.261  20.346  0.00  0.00    +0.000 A 
ATOM     11  C   UNL     1      -0.696  11.973  20.708  0.00  0.00    +0.000 A 
ATOM     12  N   UNL     1      -0.162  11.264  19.750  0.00  0.00    +0.000 NA
ATOM     13  C   UNL     1       0.416  10.118  20.172  0.00  0.00    +0.000 A 
ATOM     14  N   UNL     1       1.064   9.224  19.362  0.00  0.00    +0.000 N 
ATOM     15  C   UNL     1       1.217   9.380  17.928  0.00  0.00    +0.000 C 
ENDROOT
BRANCH   1  17
ATOM     16  N   UNL     1       2.988   7.363  18.350  0.00  0.00    +0.000 N 
ATOM     17  C   UNL     1       2.348   7.079  19.552  0.00  0.00    +0.000 C 
ATOM     18  O   UNL     1       2.398   5.987  20.103  0.00  0.00    +0.000 OA
ATOM     19  H   UNL     1       2.880   8.291  17.973  0.00  0.00    +0.000 HD
BRANCH  16  23
ATOM     20  C   UNL     1       5.271   4.535  16.163  0.00  0.00    +0.000 A 
ATOM     21  C   UNL     1       5.467   5.906  15.963  0.00  0.00    +0.000 A 
ATOM     22  C   UNL     1       4.729   6.848  16.673  0.00  0.00    +0.000 A 
ATOM     23  C   UNL     1       3.738   6.454  17.566  0.00  0.00    +0.000 A 
ATOM     24  C   UNL     1       3.478   5.086  17.701  0.00  0.00    +0.000 A 
ATOM     25  C   UNL     1       4.231   4.118  17.007  0.00  0.00    +0.000 A 
BRANCH  20  27
ATOM     26  C   UNL     1       6.312   3.857  14.151  0.00  0.00    +0.000 C 
ATOM     27  O   UNL     1       6.074   3.617  15.540  0.00  0.00    +0.000 OA
ENDBRANCH  20  27
BRANCH  25  28
ATOM     28  O   UNL     1       3.822   2.842  17.297  0.00  0.00    +0.000 OA
ATOM     29  C   UNL     1       2.499   2.631  17.767  0.00  0.00    +0.000 C 
ENDBRANCH  25  28
ENDBRANCH  16  23
ENDBRANCH   1  17
TORSDOF 4
ENDMDL
MODEL 4
REMARK VINA RESULT:      -8.1      1.457      1.610
REMARK  Name = 
REMARK  7 active torsions:
REMARK  status: ('A' for Active; 'I' for Inactive)
REMARK    1  A    between atoms: C_1  and  O_2
REMARK    2  A    between atoms: O_2  and  C_3
REMARK    3  A    between atoms: C_6  and  N_7
REMARK    4  A    between atoms: C_8  and  C_10
REMARK    5  A    between atoms: N_23  and  C_24
REMARK    6  A    between atoms: C_26  and  O_27
REMARK    7  A    between atoms: O_27  and  C_28
REMARK                            x       y       z     vdW  Elec       q    Type
REMARK                         _______ _______ _______ _____ _____    ______ ____
ROOT
ATOM      1  C   UNL     1       0.927   9.361  19.361  0.00  0.00    +0.000 A 
ATOM      2  C   UNL     1       0.918   9.425  20.752  0.00  0.00    +0.000 A 
ATOM      3  C   UNL     1      -0.123  10.297  21.141  0.00  0.00    +0.000 A 
ATOM      4  C   UNL     1      -0.580  10.769  22.427  0.00  0.00    +0.000 A 
ATOM      5  O   UNL     1      -0.048  10.401  23.472  0.00  0.00    +0.000 OA
ATOM      6  N   UNL     1      -1.657  11.673  22.338  0.00  0.00    +0.000 N 
ATOM      7  C   UNL     1      -2.162  12.218  23.514  0.00  0.00    +0.000 A 
ATOM      8  C   UNL     1      -3.183  13.082  23.515  0.00  0.00    +0.000 A 
ATOM      9  C   UNL     1      -3.802  13.470  22.278  0.00  0.00    +0.000 A 
ATOM     10  C   UNL     1      -3.359  12.979  21.113  0.00  0.00    +0.000 A 
ATOM     11  C   UNL     1      -2.213  12.025  21.090  0.00  0.00    +0.000 A 
ATOM     12  N   UNL     1      -1.803  11.583  19.931  0.00  0.00    +0.000 NA
ATOM     13  C   UNL     1      -0.757  10.732  20.008  0.00  0.00    +0.000 A 
ATOM     14  N   UNL     1      -0.135  10.159  18.931  0.00  0.00    +0.000 N 
ATOM     15  C   UNL     1      -0.516  10.384  17.549  0.00  0.00    +0.000 C 
ENDROOT
BRANCH   1  17
ATOM     16  N   UNL     1       2.189   7.375  18.849  0.00  0.00    +0.000 N 
ATOM     17  C   UNL     1       1.807   8.650  18.445  0.00  0.00    +0.000 C 
ATOM     18  O   UNL     1       2.189   9.172  17.406  0.00  0.00    +0.000 OA
ATOM     19  H   UNL     1       1.826   7.036  19.727  0.00  0.00    +0.000 HD
BRANCH  16  23
ATOM     20  C   UNL     1       4.899   4.938  16.679  0.00  0.00    +0.000 A 
ATOM     21  C   UNL     1       3.739   4.384  17.231  0.00  0.00    +0.000 A 
ATOM     22  C   UNL     1       2.837   5.168  17.943  0.00  0.00    +0.000 A 
ATOM     23  C   UNL     1       3.089   6.517  18.173  0.00  0.00    +0.000 A 
ATOM     24  C   UNL     1       4.291   7.053  17.700  0.00  0.00    +0.000 A 
ATOM     25  C   UNL     1       5.205   6.278  16.956  0.00  0.00    +0.000 A 
BRANCH  20  27
ATOM     26  C   UNL     1       5.566   4.375  14.481  0.00  0.00    +0.000 C 
ATOM     27  O   UNL     1       5.726   4.184  15.889  0.00  0.00    +0.000 OA
ENDBRANCH  20  27
BRANCH  25  28
ATOM     28  O   UNL     1       6.306   7.003  16.578  0.00  0.00    +0.000 OA
ATOM     29  C   UNL     1       7.392   7.133  17.482  0.00  0.00    +0.000 C 
ENDBRANCH  25  28
ENDBRANCH  16  23
ENDBRANCH   1  17
TORSDOF 4
ENDMDL
MODEL 5
REMARK VINA RESULT:      -8.0      1.732      2.543
REMARK  Name = 
REMARK  7 active torsions:
REMARK  status: ('A' for Active; 'I' for Inactive)
REMARK    1  A    between atoms: C_1  and  O_2
REMARK    2  A    between atoms: O_2  and  C_3
REMARK    3  A    between atoms: C_6  and  N_7
REMARK    4  A    between atoms: C_8  and  C_10
REMARK    5  A    between atoms: N_23  and  C_24
REMARK    6  A    between atoms: C_26  and  O_27
REMARK    7  A    between atoms: O_27  and  C_28
REMARK                            x       y       z     vdW  Elec       q    Type
REMARK                         _______ _______ _______ _____ _____    ______ ____
ROOT
ATOM      1  C   UNL     1       0.935   9.374  19.341  0.00  0.00    +0.000 A 
ATOM      2  C   UNL     1       0.943   9.428  20.732  0.00  0.00    +0.000 A 
ATOM      3  C   UNL     1      -0.098  10.291  21.141  0.00  0.00    +0.000 A 
ATOM      4  C   UNL     1      -0.542  10.752  22.435  0.00  0.00    +0.000 A 
ATOM      5  O   UNL     1       0.007  10.380  23.471  0.00  0.00    +0.000 OA
ATOM      6  N   UNL     1      -1.625  11.648  22.366  0.00  0.00    +0.000 N 
ATOM      7  C   UNL     1      -2.118  12.182  23.553  0.00  0.00    +0.000 A 
ATOM      8  C   UNL     1      -3.145  13.040  23.573  0.00  0.00    +0.000 A 
ATOM      9  C   UNL     1      -3.782  13.432  22.346  0.00  0.00    +0.000 A 
ATOM     10  C   UNL     1      -3.351  12.951  21.173  0.00  0.00    +0.000 A 
ATOM     11  C   UNL     1      -2.200  12.006  21.128  0.00  0.00    +0.000 A 
ATOM     12  N   UNL     1      -1.802  11.574  19.961  0.00  0.00    +0.000 NA
ATOM     13  C   UNL     1      -0.750  10.729  20.019  0.00  0.00    +0.000 A 
ATOM     14  N   UNL     1      -0.137  10.167  18.930  0.00  0.00    +0.000 N 
ATOM     15  C   UNL     1      -0.538  10.399  17.555  0.00  0.00    +0.000 C 
ENDROOT
BRANCH   1  17
ATOM     16  N   UNL     1       2.102   7.354  18.738  0.00  0.00    +0.000 N 
ATOM     17  C   UNL     1       1.808   8.673  18.409  0.00  0.00    +0.000 C 
ATOM     18  O   UNL     1       2.258   9.241  17.421  0.00  0.00    +0.000 OA
ATOM     19  H   UNL     1       1.687   6.981  19.577  0.00  0.00    +0.000 HD
BRANCH  16  23
ATOM     20  C   UNL     1       4.720   4.647  16.786  0.00  0.00    +0.000 A 
ATOM     21  C   UNL     1       5.004   6.017  16.800  0.00  0.00    +0.000 A 
ATOM     22  C   UNL     1       4.158   6.920  17.438  0.00  0.00    +0.000 A 
ATOM     23  C   UNL     1       2.977   6.492  18.036  0.00  0.00    +0.000 A 
ATOM     24  C   UNL     1       2.646   5.136  17.946  0.00  0.00    +0.000 A 
ATOM     25  C   UNL     1       3.502   4.205  17.324  0.00  0.00    +0.000 A 
BRANCH  20  27
ATOM     26  C   UNL     1       6.454   4.278  15.222  0.00  0.00    +0.000 C 
ATOM     27  O   UNL     1       5.611   3.755  16.251  0.00  0.00    +0.000 OA
ENDBRANCH  20  27
BRANCH  25  28
ATOM     28  O   UNL     1       2.994   2.932  17.362  0.00  0.00    +0.000 OA
ATOM     29  C   UNL     1       2.501   2.422  18.591  0.00  0.00    +0.000 C 
ENDBRANCH  25  28
ENDBRANCH  16  23
ENDBRANCH   1  17
TORSDOF 4
ENDMDL
MODEL 6
REMARK VINA RESULT:      -7.9      1.942      2.891
REMARK  Name = 
REMARK  7 active torsions:
REMARK  status: ('A' for Active; 'I' for Inactive)
REMARK    1  A    between atoms: C_1  and  O_2
REMARK    2  A    between atoms: O_2  and  C_3
REMARK    3  A    between atoms: C_6  and  N_7
REMARK    4  A    between atoms: C_8  and  C_10
REMARK    5  A    between atoms: N_23  and  C_24
REMARK    6  A    between atoms: C_26  and  O_27
REMARK    7  A    between atoms: O_27  and  C_28
REMARK                            x       y       z     vdW  Elec       q    Type
REMARK                         _______ _______ _______ _____ _____    ______ ____
ROOT
ATOM      1  C   UNL     1       1.083  10.038  19.375  0.00  0.00    +0.000 A 
ATOM      2  C   UNL     1       0.211   9.867  20.447  0.00  0.00    +0.000 A 
ATOM      3  C   UNL     1       0.011  11.128  21.051  0.00  0.00    +0.000 A 
ATOM      4  C   UNL     1      -0.749  11.557  22.201  0.00  0.00    +0.000 A 
ATOM      5  O   UNL     1      -1.411  10.762  22.865  0.00  0.00    +0.000 OA
ATOM      6  N   UNL     1      -0.635  12.937  22.461  0.00  0.00    +0.000 N 
ATOM      7  C   UNL     1      -1.302  13.459  23.565  0.00  0.00    +0.000 A 
ATOM      8  C   UNL     1      -1.244  14.758  23.880  0.00  0.00    +0.000 A 
ATOM      9  C   UNL     1      -0.485  15.665  23.065  0.00  0.00    +0.000 A 
ATOM     10  C   UNL     1       0.178  15.221  21.990  0.00  0.00    +0.000 A 
ATOM     11  C   UNL     1       0.138  13.775  21.630  0.00  0.00    +0.000 A 
ATOM     12  N   UNL     1       0.813  13.381  20.583  0.00  0.00    +0.000 NA
ATOM     13  C   UNL     1       0.724  12.056  20.339  0.00  0.00    +0.000 A 
ATOM     14  N   UNL     1       1.363  11.404  19.318  0.00  0.00    +0.000 N 
ATOM     15  C   UNL     1       2.226  12.050  18.347  0.00  0.00    +0.000 C 
ENDROOT
BRANCH   1  17
ATOM     16  N   UNL     1       2.201   7.933  19.023  0.00  0.00    +0.000 N 
ATOM     17  C   UNL     1       1.650   9.071  18.444  0.00  0.00    +0.000 C 
ATOM     18  O   UNL     1       1.648   9.284  17.238  0.00  0.00    +0.000 OA
ATOM     19  H   UNL     1       2.160   7.855  20.027  0.00  0.00    +0.000 HD
BRANCH  16  23
ATOM     20  C   UNL     1       4.184   4.690  17.140  0.00  0.00    +0.000 A 
ATOM     21  C   UNL     1       4.734   5.976  17.094  0.00  0.00    +0.000 A 
ATOM     22  C   UNL     1       4.099   7.051  17.708  0.00  0.00    +0.000 A 
ATOM     23  C   UNL     1       2.871   6.889  18.342  0.00  0.00    +0.000 A 
ATOM     24  C   UNL     1       2.277   5.624  18.312  0.00  0.00    +0.000 A 
ATOM     25  C   UNL     1       2.916   4.519  17.715  0.00  0.00    +0.000 A 
BRANCH  20  27
ATOM     26  C   UNL     1       5.800   3.932  15.589  0.00  0.00    +0.000 C 
ATOM     27  O   UNL     1       4.867   3.620  16.627  0.00  0.00    +0.000 OA
ENDBRANCH  20  27
BRANCH  25  28
ATOM     28  O   UNL     1       2.167   3.375  17.813  0.00  0.00    +0.000 OA
ATOM     29  C   UNL     1       2.337   2.533  18.943  0.00  0.00    +0.000 C 
ENDBRANCH  25  28
ENDBRANCH  16  23
ENDBRANCH   1  17
TORSDOF 4
ENDMDL
MODEL 7
REMARK VINA RESULT:      -7.9      2.874      4.034
REMARK  Name = 
REMARK  7 active torsions:
REMARK  status: ('A' for Active; 'I' for Inactive)
REMARK    1  A    between atoms: C_1  and  O_2
REMARK    2  A    between atoms: O_2  and  C_3
REMARK    3  A    between atoms: C_6  and  N_7
REMARK    4  A    between atoms: C_8  and  C_10
REMARK    5  A    between atoms: N_23  and  C_24
REMARK    6  A    between atoms: C_26  and  O_27
REMARK    7  A    between atoms: O_27  and  C_28
REMARK                            x       y       z     vdW  Elec       q    Type
REMARK                         _______ _______ _______ _____ _____    ______ ____
ROOT
ATOM      1  C   UNL     1       0.109  10.082  18.291  0.00  0.00    +0.000 A 
ATOM      2  C   UNL     1      -1.100  10.035  17.602  0.00  0.00    +0.000 A 
ATOM      3  C   UNL     1      -2.022  10.860  18.284  0.00  0.00    +0.000 A 
ATOM      4  C   UNL     1      -3.415  11.169  18.062  0.00  0.00    +0.000 A 
ATOM      5  O   UNL     1      -4.034  10.693  17.113  0.00  0.00    +0.000 OA
ATOM      6  N   UNL     1      -3.955  12.037  19.031  0.00  0.00    +0.000 N 
ATOM      7  C   UNL     1      -5.299  12.381  18.936  0.00  0.00    +0.000 A 
ATOM      8  C   UNL     1      -5.887  13.200  19.815  0.00  0.00    +0.000 A 
ATOM      9  C   UNL     1      -5.127  13.762  20.897  0.00  0.00    +0.000 A 
ATOM     10  C   UNL     1      -3.828  13.467  21.041  0.00  0.00    +0.000 A 
ATOM     11  C   UNL     1      -3.159  12.546  20.080  0.00  0.00    +0.000 A 
ATOM     12  N   UNL     1      -1.895  12.272  20.266  0.00  0.00    +0.000 NA
ATOM     13  C   UNL     1      -1.377  11.424  19.352  0.00  0.00    +0.000 A 
ATOM     14  N   UNL     1      -0.085  10.967  19.353  0.00  0.00    +0.000 N 
ATOM     15  C   UNL     1       0.913  11.336  20.339  0.00  0.00    +0.000 C 
ENDROOT
BRANCH   1  17
ATOM     16  N   UNL     1       1.421   8.069  18.458  0.00  0.00    +0.000 N 
ATOM     17  C   UNL     1       1.371   9.397  18.049  0.00  0.00    +0.000 C 
ATOM     18  O   UNL     1       2.317   9.984  17.538  0.00  0.00    +0.000 OA
ATOM     19  H   UNL     1       0.591   7.679  18.875  0.00  0.00    +0.000 HD
BRANCH  16  23
ATOM     20  C   UNL     1       4.817   5.527  18.472  0.00  0.00    +0.000 A 
ATOM     21  C   UNL     1       4.728   6.580  17.555  0.00  0.00    +0.000 A 
ATOM     22  C   UNL     1       3.623   7.426  17.538  0.00  0.00    +0.000 A 
ATOM     23  C   UNL     1       2.549   7.217  18.397  0.00  0.00    +0.000 A 
ATOM     24  C   UNL     1       2.596   6.111  19.253  0.00  0.00    +0.000 A 
ATOM     25  C   UNL     1       3.717   5.258  19.300  0.00  0.00    +0.000 A 
BRANCH  20  27
ATOM     26  C   UNL     1       6.732   4.703  17.357  0.00  0.00    +0.000 C 
ATOM     27  O   UNL     1       5.953   4.767  18.554  0.00  0.00    +0.000 OA
ENDBRANCH  20  27
BRANCH  25  28
ATOM     28  O   UNL     1       3.560   4.251  20.217  0.00  0.00    +0.000 OA
ATOM     29  C   UNL     1       2.327   4.136  20.912  0.00  0.00    +0.000 C 
ENDBRANCH  25  28
ENDBRANCH  16  23
ENDBRANCH   1  17
TORSDOF 4
ENDMDL
MODEL 8
REMARK VINA RESULT:      -7.9      1.775      2.371
REMARK  Name = 
REMARK  7 active torsions:
REMARK  status: ('A' for Active; 'I' for Inactive)
REMARK    1  A    between atoms: C_1  and  O_2
REMARK    2  A    between atoms: O_2  and  C_3
REMARK    3  A    between atoms: C_6  and  N_7
REMARK    4  A    between atoms: C_8  and  C_10
REMARK    5  A    between atoms: N_23  and  C_24
REMARK    6  A    between atoms: C_26  and  O_27
REMARK    7  A    between atoms: O_27  and  C_28
REMARK                            x       y       z     vdW  Elec       q    Type
REMARK                         _______ _______ _______ _____ _____    ______ ____
ROOT
ATOM      1  C   UNL     1       1.822   8.304  18.830  0.00  0.00    +0.000 A 
ATOM      2  C   UNL     1       1.331   9.513  18.346  0.00  0.00    +0.000 A 
ATOM      3  C   UNL     1       0.596  10.132  19.383  0.00  0.00    +0.000 A 
ATOM      4  C   UNL     1      -0.157  11.361  19.455  0.00  0.00    +0.000 A 
ATOM      5  O   UNL     1      -0.241  12.119  18.491  0.00  0.00    +0.000 OA
ATOM      6  N   UNL     1      -0.764  11.570  20.709  0.00  0.00    +0.000 N 
ATOM      7  C   UNL     1      -1.542  12.710  20.885  0.00  0.00    +0.000 A 
ATOM      8  C   UNL     1      -2.151  12.981  22.045  0.00  0.00    +0.000 A 
ATOM      9  C   UNL     1      -2.008  12.088  23.161  0.00  0.00    +0.000 A 
ATOM     10  C   UNL     1      -1.272  10.974  23.051  0.00  0.00    +0.000 A 
ATOM     11  C   UNL     1      -0.597  10.647  21.764  0.00  0.00    +0.000 A 
ATOM     12  N   UNL     1       0.098   9.543  21.695  0.00  0.00    +0.000 NA
ATOM     13  C   UNL     1       0.666   9.327  20.489  0.00  0.00    +0.000 A 
ATOM     14  N   UNL     1       1.417   8.228  20.164  0.00  0.00    +0.000 N 
ATOM     15  C   UNL     1       1.711   7.138  21.075  0.00  0.00    +0.000 C 
ENDROOT
BRANCH   1  17
ATOM     16  N   UNL     1       3.858   7.649  17.722  0.00  0.00    +0.000 N 
ATOM     17  C   UNL     1       2.602   7.262  18.177  0.00  0.00    +0.000 C 
ATOM     18  O   UNL     1       2.147   6.134  18.031  0.00  0.00    +0.000 OA
ATOM     19  H   UNL     1       4.138   8.603  17.885  0.00  0.00    +0.000 HD
BRANCH  16  23
ATOM     20  C   UNL     1       6.738   5.344  15.628  0.00  0.00    +0.000 A 
ATOM     21  C   UNL     1       5.602   5.824  14.967  0.00  0.00    +0.000 A 
ATOM     22  C   UNL     1       4.648   6.584  15.637  0.00  0.00    +0.000 A 
ATOM     23  C   UNL     1       4.770   6.845  16.998  0.00  0.00    +0.000 A 
ATOM     24  C   UNL     1       5.858   6.291  17.680  0.00  0.00    +0.000 A 
ATOM     25  C   UNL     1       6.845   5.538  17.013  0.00  0.00    +0.000 A 
BRANCH  20  27
ATOM     26  C   UNL     1       7.672   4.834  13.516  0.00  0.00    +0.000 C 
ATOM     27  O   UNL     1       7.723   4.689  14.938  0.00  0.00    +0.000 OA
ENDBRANCH  20  27
BRANCH  25  28
ATOM     28  O   UNL     1       7.827   5.105  17.866  0.00  0.00    +0.000 OA
ATOM     29  C   UNL     1       7.919   5.678  19.161  0.00  0.00    +0.000 C 
ENDBRANCH  25  28
ENDBRANCH  16  23
ENDBRANCH   1  17
TORSDOF 4
ENDMDL
MODEL 9
REMARK VINA RESULT:      -7.9      2.403      4.440
REMARK  Name = 
REMARK  7 active torsions:
REMARK  status: ('A' for Active; 'I' for Inactive)
REMARK    1  A    between atoms: C_1  and  O_2
REMARK    2  A    between atoms: O_2  and  C_3
REMARK    3  A    between atoms: C_6  and  N_7
REMARK    4  A    between atoms: C_8  and  C_10
REMARK    5  A    between atoms: N_23  and  C_24
REMARK    6  A    between atoms: C_26  and  O_27
REMARK    7  A    between atoms: O_27  and  C_28
REMARK                            x       y       z     vdW  Elec       q    Type
REMARK                         _______ _______ _______ _____ _____    ______ ____
ROOT
ATOM      1  C   UNL     1      -0.134  10.861  22.105  0.00  0.00    +0.000 A 
ATOM      2  C   UNL     1      -1.304  10.778  22.854  0.00  0.00    +0.000 A 
ATOM      3  C   UNL     1      -1.866  12.072  22.929  0.00  0.00    +0.000 A 
ATOM      4  C   UNL     1      -3.037  12.598  23.589  0.00  0.00    +0.000 A 
ATOM      5  O   UNL     1      -3.788  11.873  24.238  0.00  0.00    +0.000 OA
ATOM      6  N   UNL     1      -3.200  13.986  23.415  0.00  0.00    +0.000 N 
ATOM      7  C   UNL     1      -4.280  14.609  24.033  0.00  0.00    +0.000 A 
ATOM      8  C   UNL     1      -4.504  15.923  23.915  0.00  0.00    +0.000 A 
ATOM      9  C   UNL     1      -3.622  16.738  23.126  0.00  0.00    +0.000 A 
ATOM     10  C   UNL     1      -2.566  16.195  22.508  0.00  0.00    +0.000 A 
ATOM     11  C   UNL     1      -2.291  14.735  22.637  0.00  0.00    +0.000 A 
ATOM     12  N   UNL     1      -1.240  14.250  22.032  0.00  0.00    +0.000 NA
ATOM     13  C   UNL     1      -1.068  12.923  22.212  0.00  0.00    +0.000 A 
ATOM     14  N   UNL     1      -0.027  12.193  21.701  0.00  0.00    +0.000 N 
ATOM     15  C   UNL     1       1.040  12.746  20.887  0.00  0.00    +0.000 C 
ENDROOT
BRANCH   1  17
ATOM     16  N   UNL     1       0.659   9.228  20.522  0.00  0.00    +0.000 N 
ATOM     17  C   UNL     1       0.848   9.844  21.755  0.00  0.00    +0.000 C 
ATOM     18  O   UNL     1       1.755   9.554  22.524  0.00  0.00    +0.000 OA
ATOM     19  H   UNL     1      -0.123   9.532  19.965  0.00  0.00    +0.000 HD
BRANCH  16  23
ATOM     20  C   UNL     1       3.054   6.027  19.105  0.00  0.00    +0.000 A 
ATOM     21  C   UNL     1       2.932   7.202  18.356  0.00  0.00    +0.000 A 
ATOM     22  C   UNL     1       2.153   8.263  18.806  0.00  0.00    +0.000 A 
ATOM     23  C   UNL     1       1.430   8.167  19.991  0.00  0.00    +0.000 A 
ATOM     24  C   UNL     1       1.479   6.960  20.696  0.00  0.00    +0.000 A 
ATOM     25  C   UNL     1       2.281   5.883  20.266  0.00  0.00    +0.000 A 
BRANCH  20  27
ATOM     26  C   UNL     1       5.266   5.191  19.120  0.00  0.00    +0.000 C 
ATOM     27  O   UNL     1       3.906   5.031  18.708  0.00  0.00    +0.000 OA
ENDBRANCH  20  27
BRANCH  25  28
ATOM     28  O   UNL     1       2.194   4.807  21.111  0.00  0.00    +0.000 OA
ATOM     29  C   UNL     1       1.315   3.742  20.784  0.00  0.00    +0.000 C 
ENDBRANCH  25  28
ENDBRANCH  16  23
ENDBRANCH   1  17
TORSDOF 4
ENDMDL
