MODEL 1
REMARK VINA RESULT:      -5.7      0.000      0.000
REMARK  Name = 
REMARK  21 active torsions:
REMARK  status: ('A' for Active; 'I' for Inactive)
REMARK    1  A    between atoms: C_1  and  C_2
REMARK    2  A    between atoms: C_2  and  C_3
REMARK    3  A    between atoms: C_3  and  C_4
REMARK    4  A    between atoms: C_4  and  C_5
REMARK    5  A    between atoms: C_5  and  C_6
REMARK    6  A    between atoms: C_6  and  C_7
REMARK    7  A    between atoms: C_7  and  C_8
REMARK    8  A    between atoms: C_8  and  C_9
REMARK    9  A    between atoms: C_9  and  C_10
REMARK   10  A    between atoms: C_10  and  C_11
REMARK   11  A    between atoms: C_11  and  C_12
REMARK   12  A    between atoms: C_12  and  C_13
REMARK   13  A    between atoms: C_13  and  C_14
REMARK   14  A    between atoms: C_14  and  C_15
REMARK   15  A    between atoms: C_15  and  C_17
REMARK   16  A    between atoms: N_19  and  C_20
REMARK   17  A    between atoms: C_20  and  C_21
REMARK   18  A    between atoms: C_21  and  C_22
REMARK   19  A    between atoms: C_22  and  C_23
REMARK   20  A    between atoms: C_23  and  C_25
REMARK   21  A    between atoms: C_25  and  O_26
REMARK                            x       y       z     vdW  Elec       q    Type
REMARK                         _______ _______ _______ _____ _____    ______ ____
ROOT
ATOM      1  C   UNL     1       6.093   4.287  17.179  0.00  0.00    +0.000 C 
ENDROOT
BRANCH   1   2
ATOM      2  C   UNL     1       7.086   5.223  17.847  0.00  0.00    +0.000 C 
ATOM      3  O   UNL     1       7.904   4.925  18.706  0.00  0.00    +0.000 OA
BRANCH   2   4
ATOM      4  C   UNL     1       7.063   6.664  17.397  0.00  0.00    +0.000 C 
ATOM      5  O   UNL     1       6.346   7.000  16.479  0.00  0.00    +0.000 OA
ATOM      6  N   UNL     1       7.905   7.479  18.117  0.00  0.00    +0.000 N 
ATOM      7  H   UNL     1       8.438   7.038  18.858  0.00  0.00    +0.000 HD
BRANCH   6   8
ATOM      8  C   UNL     1       8.017   8.897  17.814  0.00  0.00    +0.000 C 
BRANCH   8   9
ATOM      9  C   UNL     1       8.906   9.652  18.805  0.00  0.00    +0.000 C 
BRANCH   9  10
ATOM     10  C   UNL     1       9.681  10.797  18.150  0.00  0.00    +0.000 C 
BRANCH  10  11
ATOM     11  C   UNL     1      10.195  11.780  19.189  0.00  0.00    +0.000 C 
ATOM     12  O   UNL     1      11.298  12.327  19.108  0.00  0.00    +0.000 OA
BRANCH  11  13
ATOM     13  C   UNL     1       9.301  12.046  20.400  0.00  0.00    +0.000 C 
BRANCH  13  14
ATOM     14  O   UNL     1       9.951  11.755  21.629  0.00  0.00    +0.000 OA
ATOM     15  H   UNL     1       9.625  10.873  21.897  0.00  0.00    +0.000 HD
ENDBRANCH  13  14
ENDBRANCH  11  13
ENDBRANCH  10  11
ENDBRANCH   9  10
ENDBRANCH   8   9
ENDBRANCH   6   8
ENDBRANCH   2   4
ENDBRANCH   1   2
BRANCH   1  16
ATOM     16  C   UNL     1       4.715   4.342  17.833  0.00  0.00    +0.000 C 
BRANCH  16  17
ATOM     17  C   UNL     1       3.653   3.634  16.993  0.00  0.00    +0.000 C 
BRANCH  17  18
ATOM     18  C   UNL     1       2.394   3.398  17.820  0.00  0.00    +0.000 C 
BRANCH  18  19
ATOM     19  C   UNL     1       2.742   2.760  19.156  0.00  0.00    +0.000 C 
BRANCH  19  20
ATOM     20  C   UNL     1       1.855   3.321  20.256  0.00  0.00    +0.000 C 
BRANCH  20  21
ATOM     21  C   UNL     1       2.414   4.645  20.749  0.00  0.00    +0.000 C 
BRANCH  21  22
ATOM     22  C   UNL     1       1.567   5.793  20.231  0.00  0.00    +0.000 C 
BRANCH  22  23
ATOM     23  C   UNL     1       2.461   6.922  19.749  0.00  0.00    +0.000 C 
BRANCH  23  24
ATOM     24  C   UNL     1       2.350   7.063  18.242  0.00  0.00    +0.000 C 
BRANCH  24  25
ATOM     25  C   UNL     1       2.109   8.516  17.872  0.00  0.00    +0.000 C 
BRANCH  25  26
ATOM     26  C   UNL     1       1.325   9.212  18.972  0.00  0.00    +0.000 C 
BRANCH  26  28
ATOM     27  C   UNL     1       0.113  11.389  19.072  0.00  0.00    +0.000 C 
ATOM     28  C   UNL     1       0.201  10.047  18.374  0.00  0.00    +0.000 C 
ENDBRANCH  26  28
ENDBRANCH  25  26
ENDBRANCH  24  25
ENDBRANCH  23  24
ENDBRANCH  22  23
ENDBRANCH  21  22
ENDBRANCH  20  21
ENDBRANCH  19  20
ENDBRANCH  18  19
ENDBRANCH  17  18
ENDBRANCH  16  17
ENDBRANCH   1  16
TORSDOF 20
ENDMDL
MODEL 2
REMARK VINA RESULT:      -5.7      4.499      6.005
REMARK  Name = 
REMARK  21 active torsions:
REMARK  status: ('A' for Active; 'I' for Inactive)
REMARK    1  A    between atoms: C_1  and  C_2
REMARK    2  A    between atoms: C_2  and  C_3
REMARK    3  A    between atoms: C_3  and  C_4
REMARK    4  A    between atoms: C_4  and  C_5
REMARK    5  A    between atoms: C_5  and  C_6
REMARK    6  A    between atoms: C_6  and  C_7
REMARK    7  A    between atoms: C_7  and  C_8
REMARK    8  A    between atoms: C_8  and  C_9
REMARK    9  A    between atoms: C_9  and  C_10
REMARK   10  A    between atoms: C_10  and  C_11
REMARK   11  A    between atoms: C_11  and  C_12
REMARK   12  A    between atoms: C_12  and  C_13
REMARK   13  A    between atoms: C_13  and  C_14
REMARK   14  A    between atoms: C_14  and  C_15
REMARK   15  A    between atoms: C_15  and  C_17
REMARK   16  A    between atoms: N_19  and  C_20
REMARK   17  A    between atoms: C_20  and  C_21
REMARK   18  A    between atoms: C_21  and  C_22
REMARK   19  A    between atoms: C_22  and  C_23
REMARK   20  A    between atoms: C_23  and  C_25
REMARK   21  A    between atoms: C_25  and  O_26
REMARK                            x       y       z     vdW  Elec       q    Type
REMARK                         _______ _______ _______ _____ _____    ______ ____
ROOT
ATOM      1  C   UNL     1       3.326   2.655  21.219  0.00  0.00    +0.000 C 
ENDROOT
BRANCH   1   2
ATOM      2  C   UNL     1       4.253   2.059  20.173  0.00  0.00    +0.000 C 
ATOM      3  O   UNL     1       5.208   1.323  20.380  0.00  0.00    +0.000 OA
BRANCH   2   4
ATOM      4  C   UNL     1       3.958   2.405  18.734  0.00  0.00    +0.000 C 
ATOM      5  O   UNL     1       3.529   1.556  17.982  0.00  0.00    +0.000 OA
ATOM      6  N   UNL     1       4.224   3.717  18.417  0.00  0.00    +0.000 N 
ATOM      7  H   UNL     1       4.579   4.300  19.167  0.00  0.00    +0.000 HD
BRANCH   6   8
ATOM      8  C   UNL     1       4.006   4.224  17.072  0.00  0.00    +0.000 C 
BRANCH   8   9
ATOM      9  C   UNL     1       5.197   3.986  16.143  0.00  0.00    +0.000 C 
BRANCH   9  10
ATOM     10  C   UNL     1       5.487   5.182  15.235  0.00  0.00    +0.000 C 
BRANCH  10  11
ATOM     11  C   UNL     1       6.651   4.896  14.299  0.00  0.00    +0.000 C 
ATOM     12  O   UNL     1       7.737   5.475  14.382  0.00  0.00    +0.000 OA
BRANCH  11  13
ATOM     13  C   UNL     1       6.417   3.872  13.189  0.00  0.00    +0.000 C 
BRANCH  13  14
ATOM     14  O   UNL     1       5.072   3.864  12.731  0.00  0.00    +0.000 OA
ATOM     15  H   UNL     1       4.521   3.978  13.531  0.00  0.00    +0.000 HD
ENDBRANCH  13  14
ENDBRANCH  11  13
ENDBRANCH  10  11
ENDBRANCH   9  10
ENDBRANCH   8   9
ENDBRANCH   6   8
ENDBRANCH   2   4
ENDBRANCH   1   2
BRANCH   1  16
ATOM     16  C   UNL     1       1.854   2.461  20.867  0.00  0.00    +0.000 C 
BRANCH  16  17
ATOM     17  C   UNL     1       1.178   3.775  20.481  0.00  0.00    +0.000 C 
BRANCH  17  18
ATOM     18  C   UNL     1       1.892   4.951  21.139  0.00  0.00    +0.000 C 
BRANCH  18  19
ATOM     19  C   UNL     1       1.521   6.255  20.451  0.00  0.00    +0.000 C 
BRANCH  19  20
ATOM     20  C   UNL     1       2.667   6.734  19.573  0.00  0.00    +0.000 C 
BRANCH  20  21
ATOM     21  C   UNL     1       2.144   7.117  18.199  0.00  0.00    +0.000 C 
BRANCH  21  22
ATOM     22  C   UNL     1       2.584   8.528  17.850  0.00  0.00    +0.000 C 
BRANCH  22  23
ATOM     23  C   UNL     1       1.375   9.443  17.768  0.00  0.00    +0.000 C 
BRANCH  23  24
ATOM     24  C   UNL     1       1.073  10.026  19.136  0.00  0.00    +0.000 C 
BRANCH  24  25
ATOM     25  C   UNL     1      -0.421   9.971  19.407  0.00  0.00    +0.000 C 
BRANCH  25  26
ATOM     26  C   UNL     1      -1.194  10.147  18.110  0.00  0.00    +0.000 C 
BRANCH  26  28
ATOM     27  C   UNL     1      -1.118  12.636  18.251  0.00  0.00    +0.000 C 
ATOM     28  C   UNL     1      -2.022  11.424  18.155  0.00  0.00    +0.000 C 
ENDBRANCH  26  28
ENDBRANCH  25  26
ENDBRANCH  24  25
ENDBRANCH  23  24
ENDBRANCH  22  23
ENDBRANCH  21  22
ENDBRANCH  20  21
ENDBRANCH  19  20
ENDBRANCH  18  19
ENDBRANCH  17  18
ENDBRANCH  16  17
ENDBRANCH   1  16
TORSDOF 20
ENDMDL
MODEL 3
REMARK VINA RESULT:      -5.7      4.130      7.197
REMARK  Name = 
REMARK  21 active torsions:
REMARK  status: ('A' for Active; 'I' for Inactive)
REMARK    1  A    between atoms: C_1  and  C_2
REMARK    2  A    between atoms: C_2  and  C_3
REMARK    3  A    between atoms: C_3  and  C_4
REMARK    4  A    between atoms: C_4  and  C_5
REMARK    5  A    between atoms: C_5  and  C_6
REMARK    6  A    between atoms: C_6  and  C_7
REMARK    7  A    between atoms: C_7  and  C_8
REMARK    8  A    between atoms: C_8  and  C_9
REMARK    9  A    between atoms: C_9  and  C_10
REMARK   10  A    between atoms: C_10  and  C_11
REMARK   11  A    between atoms: C_11  and  C_12
REMARK   12  A    between atoms: C_12  and  C_13
REMARK   13  A    between atoms: C_13  and  C_14
REMARK   14  A    between atoms: C_14  and  C_15
REMARK   15  A    between atoms: C_15  and  C_17
REMARK   16  A    between atoms: N_19  and  C_20
REMARK   17  A    between atoms: C_20  and  C_21
REMARK   18  A    between atoms: C_21  and  C_22
REMARK   19  A    between atoms: C_22  and  C_23
REMARK   20  A    between atoms: C_23  and  C_25
REMARK   21  A    between atoms: C_25  and  O_26
REMARK                            x       y       z     vdW  Elec       q    Type
REMARK                         _______ _______ _______ _____ _____    ______ ____
ROOT
ATOM      1  C   UNL     1       6.101   5.494  17.762  0.00  0.00    +0.000 C 
ENDROOT
BRANCH   1   2
ATOM      2  C   UNL     1       6.985   4.983  16.636  0.00  0.00    +0.000 C 
ATOM      3  O   UNL     1       8.057   4.407  16.755  0.00  0.00    +0.000 OA
BRANCH   2   4
ATOM      4  C   UNL     1       6.480   5.202  15.230  0.00  0.00    +0.000 C 
ATOM      5  O   UNL     1       5.941   6.247  14.937  0.00  0.00    +0.000 OA
ATOM      6  N   UNL     1       6.698   4.132  14.394  0.00  0.00    +0.000 N 
ATOM      7  H   UNL     1       7.166   3.329  14.799  0.00  0.00    +0.000 HD
BRANCH   6   8
ATOM      8  C   UNL     1       6.268   4.165  13.005  0.00  0.00    +0.000 C 
BRANCH   8   9
ATOM      9  C   UNL     1       5.270   3.058  12.661  0.00  0.00    +0.000 C 
BRANCH   9  10
ATOM     10  C   UNL     1       5.422   2.550  11.226  0.00  0.00    +0.000 C 
BRANCH  10  11
ATOM     11  C   UNL     1       6.409   1.396  11.150  0.00  0.00    +0.000 C 
ATOM     12  O   UNL     1       7.632   1.556  11.153  0.00  0.00    +0.000 OA
BRANCH  11  13
ATOM     13  C   UNL     1       5.826  -0.011  11.020  0.00  0.00    +0.000 C 
BRANCH  13  14
ATOM     14  O   UNL     1       6.528  -0.964  11.805  0.00  0.00    +0.000 OA
ATOM     15  H   UNL     1       7.473  -0.721  11.733  0.00  0.00    +0.000 HD
ENDBRANCH  13  14
ENDBRANCH  11  13
ENDBRANCH  10  11
ENDBRANCH   9  10
ENDBRANCH   8   9
ENDBRANCH   6   8
ENDBRANCH   2   4
ENDBRANCH   1   2
BRANCH   1  16
ATOM     16  C   UNL     1       5.844   4.430  18.826  0.00  0.00    +0.000 C 
BRANCH  16  17
ATOM     17  C   UNL     1       4.450   3.819  18.700  0.00  0.00    +0.000 C 
BRANCH  17  18
ATOM     18  C   UNL     1       4.149   3.480  17.244  0.00  0.00    +0.000 C 
BRANCH  18  19
ATOM     19  C   UNL     1       2.774   2.844  17.115  0.00  0.00    +0.000 C 
BRANCH  19  20
ATOM     20  C   UNL     1       1.784   3.534  18.041  0.00  0.00    +0.000 C 
BRANCH  20  21
ATOM     21  C   UNL     1       1.012   2.499  18.841  0.00  0.00    +0.000 C 
BRANCH  21  22
ATOM     22  C   UNL     1       1.584   2.392  20.243  0.00  0.00    +0.000 C 
BRANCH  22  23
ATOM     23  C   UNL     1       1.129   3.575  21.079  0.00  0.00    +0.000 C 
BRANCH  23  24
ATOM     24  C   UNL     1       2.239   4.608  21.162  0.00  0.00    +0.000 C 
BRANCH  24  25
ATOM     25  C   UNL     1       1.743   5.946  20.644  0.00  0.00    +0.000 C 
BRANCH  25  26
ATOM     26  C   UNL     1       2.834   6.630  19.836  0.00  0.00    +0.000 C 
BRANCH  26  28
ATOM     27  C   UNL     1       3.236   7.647  17.594  0.00  0.00    +0.000 C 
ATOM     28  C   UNL     1       2.223   7.442  18.702  0.00  0.00    +0.000 C 
ENDBRANCH  26  28
ENDBRANCH  25  26
ENDBRANCH  24  25
ENDBRANCH  23  24
ENDBRANCH  22  23
ENDBRANCH  21  22
ENDBRANCH  20  21
ENDBRANCH  19  20
ENDBRANCH  18  19
ENDBRANCH  17  18
ENDBRANCH  16  17
ENDBRANCH   1  16
TORSDOF 20
ENDMDL
MODEL 4
REMARK VINA RESULT:      -5.7      3.673      6.465
REMARK  Name = 
REMARK  21 active torsions:
REMARK  status: ('A' for Active; 'I' for Inactive)
REMARK    1  A    between atoms: C_1  and  C_2
REMARK    2  A    between atoms: C_2  and  C_3
REMARK    3  A    between atoms: C_3  and  C_4
REMARK    4  A    between atoms: C_4  and  C_5
REMARK    5  A    between atoms: C_5  and  C_6
REMARK    6  A    between atoms: C_6  and  C_7
REMARK    7  A    between atoms: C_7  and  C_8
REMARK    8  A    between atoms: C_8  and  C_9
REMARK    9  A    between atoms: C_9  and  C_10
REMARK   10  A    between atoms: C_10  and  C_11
REMARK   11  A    between atoms: C_11  and  C_12
REMARK   12  A    between atoms: C_12  and  C_13
REMARK   13  A    between atoms: C_13  and  C_14
REMARK   14  A    between atoms: C_14  and  C_15
REMARK   15  A    between atoms: C_15  and  C_17
REMARK   16  A    between atoms: N_19  and  C_20
REMARK   17  A    between atoms: C_20  and  C_21
REMARK   18  A    between atoms: C_21  and  C_22
REMARK   19  A    between atoms: C_22  and  C_23
REMARK   20  A    between atoms: C_23  and  C_25
REMARK   21  A    between atoms: C_25  and  O_26
REMARK                            x       y       z     vdW  Elec       q    Type
REMARK                         _______ _______ _______ _____ _____    ______ ____
ROOT
ATOM      1  C   UNL     1       5.602   4.758  18.836  0.00  0.00    +0.000 C 
ENDROOT
BRANCH   1   2
ATOM      2  C   UNL     1       6.993   5.173  18.386  0.00  0.00    +0.000 C 
ATOM      3  O   UNL     1       8.007   5.185  19.071  0.00  0.00    +0.000 OA
BRANCH   2   4
ATOM      4  C   UNL     1       7.136   5.605  16.947  0.00  0.00    +0.000 C 
ATOM      5  O   UNL     1       7.462   6.743  16.686  0.00  0.00    +0.000 OA
ATOM      6  N   UNL     1       6.865   4.605  16.042  0.00  0.00    +0.000 N 
ATOM      7  H   UNL     1       6.607   3.703  16.428  0.00  0.00    +0.000 HD
BRANCH   6   8
ATOM      8  C   UNL     1       6.944   4.846  14.610  0.00  0.00    +0.000 C 
BRANCH   8   9
ATOM      9  C   UNL     1       6.443   3.665  13.777  0.00  0.00    +0.000 C 
BRANCH   9  10
ATOM     10  C   UNL     1       5.179   3.998  12.982  0.00  0.00    +0.000 C 
BRANCH  10  11
ATOM     11  C   UNL     1       4.983   3.030  11.825  0.00  0.00    +0.000 C 
ATOM     12  O   UNL     1       4.117   3.184  10.960  0.00  0.00    +0.000 OA
BRANCH  11  13
ATOM     13  C   UNL     1       5.887   1.798  11.787  0.00  0.00    +0.000 C 
BRANCH  13  14
ATOM     14  O   UNL     1       6.429   1.562  10.496  0.00  0.00    +0.000 OA
ATOM     15  H   UNL     1       7.359   1.860  10.542  0.00  0.00    +0.000 HD
ENDBRANCH  13  14
ENDBRANCH  11  13
ENDBRANCH  10  11
ENDBRANCH   9  10
ENDBRANCH   8   9
ENDBRANCH   6   8
ENDBRANCH   2   4
ENDBRANCH   1   2
BRANCH   1  16
ATOM     16  C   UNL     1       4.506   5.570  18.152  0.00  0.00    +0.000 C 
BRANCH  16  17
ATOM     17  C   UNL     1       3.523   4.681  17.392  0.00  0.00    +0.000 C 
BRANCH  17  18
ATOM     18  C   UNL     1       3.814   3.210  17.673  0.00  0.00    +0.000 C 
BRANCH  18  19
ATOM     19  C   UNL     1       2.549   2.378  17.527  0.00  0.00    +0.000 C 
BRANCH  19  20
ATOM     20  C   UNL     1       2.021   1.977  18.896  0.00  0.00    +0.000 C 
BRANCH  20  21
ATOM     21  C   UNL     1       0.870   2.884  19.295  0.00  0.00    +0.000 C 
BRANCH  21  22
ATOM     22  C   UNL     1       1.050   3.354  20.727  0.00  0.00    +0.000 C 
BRANCH  22  23
ATOM     23  C   UNL     1       2.383   4.064  20.877  0.00  0.00    +0.000 C 
BRANCH  23  24
ATOM     24  C   UNL     1       2.157   5.529  21.202  0.00  0.00    +0.000 C 
BRANCH  24  25
ATOM     25  C   UNL     1       1.776   6.288  19.943  0.00  0.00    +0.000 C 
BRANCH  25  26
ATOM     26  C   UNL     1       1.879   7.785  20.184  0.00  0.00    +0.000 C 
BRANCH  26  28
ATOM     27  C   UNL     1       1.369   9.053  22.271  0.00  0.00    +0.000 C 
ATOM     28  C   UNL     1       0.779   8.246  21.131  0.00  0.00    +0.000 C 
ENDBRANCH  26  28
ENDBRANCH  25  26
ENDBRANCH  24  25
ENDBRANCH  23  24
ENDBRANCH  22  23
ENDBRANCH  21  22
ENDBRANCH  20  21
ENDBRANCH  19  20
ENDBRANCH  18  19
ENDBRANCH  17  18
ENDBRANCH  16  17
ENDBRANCH   1  16
TORSDOF 20
ENDMDL
MODEL 5
REMARK VINA RESULT:      -5.7      2.927      4.430
REMARK  Name = 
REMARK  21 active torsions:
REMARK  status: ('A' for Active; 'I' for Inactive)
REMARK    1  A    between atoms: C_1  and  C_2
REMARK    2  A    between atoms: C_2  and  C_3
REMARK    3  A    between atoms: C_3  and  C_4
REMARK    4  A    between atoms: C_4  and  C_5
REMARK    5  A    between atoms: C_5  and  C_6
REMARK    6  A    between atoms: C_6  and  C_7
REMARK    7  A    between atoms: C_7  and  C_8
REMARK    8  A    between atoms: C_8  and  C_9
REMARK    9  A    between atoms: C_9  and  C_10
REMARK   10  A    between atoms: C_10  and  C_11
REMARK   11  A    between atoms: C_11  and  C_12
REMARK   12  A    between atoms: C_12  and  C_13
REMARK   13  A    between atoms: C_13  and  C_14
REMARK   14  A    between atoms: C_14  and  C_15
REMARK   15  A    between atoms: C_15  and  C_17
REMARK   16  A    between atoms: N_19  and  C_20
REMARK   17  A    between atoms: C_20  and  C_21
REMARK   18  A    between atoms: C_21  and  C_22
REMARK   19  A    between atoms: C_22  and  C_23
REMARK   20  A    between atoms: C_23  and  C_25
REMARK   21  A    between atoms: C_25  and  O_26
REMARK                            x       y       z     vdW  Elec       q    Type
REMARK                         _______ _______ _______ _____ _____    ______ ____
ROOT
ATOM      1  C   UNL     1       4.087   2.535  20.240  0.00  0.00    +0.000 C 
ENDROOT
BRANCH   1   2
ATOM      2  C   UNL     1       3.855   2.061  18.815  0.00  0.00    +0.000 C 
ATOM      3  O   UNL     1       3.638   0.912  18.455  0.00  0.00    +0.000 OA
BRANCH   2   4
ATOM      4  C   UNL     1       3.888   3.119  17.738  0.00  0.00    +0.000 C 
ATOM      5  O   UNL     1       2.852   3.530  17.262  0.00  0.00    +0.000 OA
ATOM      6  N   UNL     1       5.159   3.520  17.399  0.00  0.00    +0.000 N 
ATOM      7  H   UNL     1       5.922   3.075  17.897  0.00  0.00    +0.000 HD
BRANCH   6   8
ATOM      8  C   UNL     1       5.380   4.526  16.373  0.00  0.00    +0.000 C 
BRANCH   8   9
ATOM      9  C   UNL     1       5.672   5.913  16.949  0.00  0.00    +0.000 C 
BRANCH   9  10
ATOM     10  C   UNL     1       7.163   6.253  16.944  0.00  0.00    +0.000 C 
BRANCH  10  11
ATOM     11  C   UNL     1       7.661   6.573  18.344  0.00  0.00    +0.000 C 
ATOM     12  O   UNL     1       8.394   7.534  18.593  0.00  0.00    +0.000 OA
BRANCH  11  13
ATOM     13  C   UNL     1       7.255   5.615  19.464  0.00  0.00    +0.000 C 
BRANCH  13  14
ATOM     14  O   UNL     1       8.220   5.556  20.505  0.00  0.00    +0.000 OA
ATOM     15  H   UNL     1       9.007   5.131  20.110  0.00  0.00    +0.000 HD
ENDBRANCH  13  14
ENDBRANCH  11  13
ENDBRANCH  10  11
ENDBRANCH   9  10
ENDBRANCH   8   9
ENDBRANCH   6   8
ENDBRANCH   2   4
ENDBRANCH   1   2
BRANCH   1  16
ATOM     16  C   UNL     1       2.783   2.866  20.960  0.00  0.00    +0.000 C 
BRANCH  16  17
ATOM     17  C   UNL     1       1.644   3.150  19.983  0.00  0.00    +0.000 C 
BRANCH  17  18
ATOM     18  C   UNL     1       0.944   4.454  20.349  0.00  0.00    +0.000 C 
BRANCH  18  19
ATOM     19  C   UNL     1       1.935   5.446  20.938  0.00  0.00    +0.000 C 
BRANCH  19  20
ATOM     20  C   UNL     1       1.893   6.756  20.166  0.00  0.00    +0.000 C 
BRANCH  20  21
ATOM     21  C   UNL     1       2.388   6.538  18.747  0.00  0.00    +0.000 C 
BRANCH  21  22
ATOM     22  C   UNL     1       2.907   7.843  18.170  0.00  0.00    +0.000 C 
BRANCH  22  23
ATOM     23  C   UNL     1       1.761   8.636  17.569  0.00  0.00    +0.000 C 
BRANCH  23  24
ATOM     24  C   UNL     1       1.441   9.832  18.448  0.00  0.00    +0.000 C 
BRANCH  24  25
ATOM     25  C   UNL     1      -0.058   9.928  18.669  0.00  0.00    +0.000 C 
BRANCH  25  26
ATOM     26  C   UNL     1      -0.473  11.383  18.818  0.00  0.00    +0.000 C 
BRANCH  26  28
ATOM     27  C   UNL     1      -2.489  10.429  17.702  0.00  0.00    +0.000 C 
ATOM     28  C   UNL     1      -1.674  11.685  17.932  0.00  0.00    +0.000 C 
ENDBRANCH  26  28
ENDBRANCH  25  26
ENDBRANCH  24  25
ENDBRANCH  23  24
ENDBRANCH  22  23
ENDBRANCH  21  22
ENDBRANCH  20  21
ENDBRANCH  19  20
ENDBRANCH  18  19
ENDBRANCH  17  18
ENDBRANCH  16  17
ENDBRANCH   1  16
TORSDOF 20
ENDMDL
MODEL 6
REMARK VINA RESULT:      -5.6      3.072      9.412
REMARK  Name = 
REMARK  21 active torsions:
REMARK  status: ('A' for Active; 'I' for Inactive)
REMARK    1  A    between atoms: C_1  and  C_2
REMARK    2  A    between atoms: C_2  and  C_3
REMARK    3  A    between atoms: C_3  and  C_4
REMARK    4  A    between atoms: C_4  and  C_5
REMARK    5  A    between atoms: C_5  and  C_6
REMARK    6  A    between atoms: C_6  and  C_7
REMARK    7  A    between atoms: C_7  and  C_8
REMARK    8  A    between atoms: C_8  and  C_9
REMARK    9  A    between atoms: C_9  and  C_10
REMARK   10  A    between atoms: C_10  and  C_11
REMARK   11  A    between atoms: C_11  and  C_12
REMARK   12  A    between atoms: C_12  and  C_13
REMARK   13  A    between atoms: C_13  and  C_14
REMARK   14  A    between atoms: C_14  and  C_15
REMARK   15  A    between atoms: C_15  and  C_17
REMARK   16  A    between atoms: N_19  and  C_20
REMARK   17  A    between atoms: C_20  and  C_21
REMARK   18  A    between atoms: C_21  and  C_22
REMARK   19  A    between atoms: C_22  and  C_23
REMARK   20  A    between atoms: C_23  and  C_25
REMARK   21  A    between atoms: C_25  and  O_26
REMARK                            x       y       z     vdW  Elec       q    Type
REMARK                         _______ _______ _______ _____ _____    ______ ____
ROOT
ATOM      1  C   UNL     1       7.928   8.757  17.817  0.00  0.00    +0.000 C 
ENDROOT
BRANCH   1   2
ATOM      2  C   UNL     1       7.772   7.263  18.046  0.00  0.00    +0.000 C 
ATOM      3  O   UNL     1       8.227   6.619  18.980  0.00  0.00    +0.000 OA
BRANCH   2   4
ATOM      4  C   UNL     1       6.968   6.503  17.020  0.00  0.00    +0.000 C 
ATOM      5  O   UNL     1       7.473   6.194  15.962  0.00  0.00    +0.000 OA
ATOM      6  N   UNL     1       5.680   6.232  17.419  0.00  0.00    +0.000 N 
ATOM      7  H   UNL     1       5.414   6.560  18.341  0.00  0.00    +0.000 HD
BRANCH   6   8
ATOM      8  C   UNL     1       4.760   5.514  16.552  0.00  0.00    +0.000 C 
BRANCH   8   9
ATOM      9  C   UNL     1       4.007   4.395  17.274  0.00  0.00    +0.000 C 
BRANCH   9  10
ATOM     10  C   UNL     1       2.626   4.832  17.764  0.00  0.00    +0.000 C 
BRANCH  10  11
ATOM     11  C   UNL     1       1.923   3.707  18.507  0.00  0.00    +0.000 C 
ATOM     12  O   UNL     1       1.384   2.757  17.933  0.00  0.00    +0.000 OA
BRANCH  11  13
ATOM     13  C   UNL     1       1.858   3.811  20.030  0.00  0.00    +0.000 C 
BRANCH  13  14
ATOM     14  O   UNL     1       0.593   3.425  20.548  0.00  0.00    +0.000 OA
ATOM     15  H   UNL     1       0.711   3.370  21.517  0.00  0.00    +0.000 HD
ENDBRANCH  13  14
ENDBRANCH  11  13
ENDBRANCH  10  11
ENDBRANCH   9  10
ENDBRANCH   8   9
ENDBRANCH   6   8
ENDBRANCH   2   4
ENDBRANCH   1   2
BRANCH   1  16
ATOM     16  C   UNL     1       8.902   9.397  18.802  0.00  0.00    +0.000 C 
BRANCH  16  17
ATOM     17  C   UNL     1       9.378  10.770  18.329  0.00  0.00    +0.000 C 
BRANCH  17  18
ATOM     18  C   UNL     1      10.665  11.161  19.047  0.00  0.00    +0.000 C 
BRANCH  18  19
ATOM     19  C   UNL     1      11.597  11.908  18.107  0.00  0.00    +0.000 C 
BRANCH  19  20
ATOM     20  C   UNL     1      12.101  13.183  18.766  0.00  0.00    +0.000 C 
BRANCH  20  21
ATOM     21  C   UNL     1      11.051  14.275  18.655  0.00  0.00    +0.000 C 
BRANCH  21  22
ATOM     22  C   UNL     1      10.936  15.021  19.972  0.00  0.00    +0.000 C 
BRANCH  22  23
ATOM     23  C   UNL     1       9.474  15.203  20.340  0.00  0.00    +0.000 C 
BRANCH  23  24
ATOM     24  C   UNL     1       8.819  13.848  20.544  0.00  0.00    +0.000 C 
BRANCH  24  25
ATOM     25  C   UNL     1       9.120  13.331  21.939  0.00  0.00    +0.000 C 
BRANCH  25  26
ATOM     26  C   UNL     1       8.718  11.869  22.052  0.00  0.00    +0.000 C 
BRANCH  26  28
ATOM     27  C   UNL     1       6.589  12.103  23.330  0.00  0.00    +0.000 C 
ATOM     28  C   UNL     1       8.021  11.612  23.381  0.00  0.00    +0.000 C 
ENDBRANCH  26  28
ENDBRANCH  25  26
ENDBRANCH  24  25
ENDBRANCH  23  24
ENDBRANCH  22  23
ENDBRANCH  21  22
ENDBRANCH  20  21
ENDBRANCH  19  20
ENDBRANCH  18  19
ENDBRANCH  17  18
ENDBRANCH  16  17
ENDBRANCH   1  16
TORSDOF 20
ENDMDL
MODEL 7
REMARK VINA RESULT:      -5.5      3.994      8.324
REMARK  Name = 
REMARK  21 active torsions:
REMARK  status: ('A' for Active; 'I' for Inactive)
REMARK    1  A    between atoms: C_1  and  C_2
REMARK    2  A    between atoms: C_2  and  C_3
REMARK    3  A    between atoms: C_3  and  C_4
REMARK    4  A    between atoms: C_4  and  C_5
REMARK    5  A    between atoms: C_5  and  C_6
REMARK    6  A    between atoms: C_6  and  C_7
REMARK    7  A    between atoms: C_7  and  C_8
REMARK    8  A    between atoms: C_8  and  C_9
REMARK    9  A    between atoms: C_9  and  C_10
REMARK   10  A    between atoms: C_10  and  C_11
REMARK   11  A    between atoms: C_11  and  C_12
REMARK   12  A    between atoms: C_12  and  C_13
REMARK   13  A    between atoms: C_13  and  C_14
REMARK   14  A    between atoms: C_14  and  C_15
REMARK   15  A    between atoms: C_15  and  C_17
REMARK   16  A    between atoms: N_19  and  C_20
REMARK   17  A    between atoms: C_20  and  C_21
REMARK   18  A    between atoms: C_21  and  C_22
REMARK   19  A    between atoms: C_22  and  C_23
REMARK   20  A    between atoms: C_23  and  C_25
REMARK   21  A    between atoms: C_25  and  O_26
REMARK                            x       y       z     vdW  Elec       q    Type
REMARK                         _______ _______ _______ _____ _____    ______ ____
ROOT
ATOM      1  C   UNL     1       3.532   6.576  17.201  0.00  0.00    +0.000 C 
ENDROOT
BRANCH   1   2
ATOM      2  C   UNL     1       2.803   7.606  18.048  0.00  0.00    +0.000 C 
ATOM      3  O   UNL     1       2.584   8.771  17.749  0.00  0.00    +0.000 OA
BRANCH   2   4
ATOM      4  C   UNL     1       2.293   7.137  19.390  0.00  0.00    +0.000 C 
ATOM      5  O   UNL     1       1.918   7.946  20.211  0.00  0.00    +0.000 OA
ATOM      6  N   UNL     1       2.313   5.771  19.540  0.00  0.00    +0.000 N 
ATOM      7  H   UNL     1       2.657   5.234  18.751  0.00  0.00    +0.000 HD
BRANCH   6   8
ATOM      8  C   UNL     1       1.865   5.144  20.773  0.00  0.00    +0.000 C 
BRANCH   8   9
ATOM      9  C   UNL     1       0.778   4.092  20.548  0.00  0.00    +0.000 C 
BRANCH   9  10
ATOM     10  C   UNL     1       1.349   2.713  20.213  0.00  0.00    +0.000 C 
BRANCH  10  11
ATOM     11  C   UNL     1       2.671   2.475  20.926  0.00  0.00    +0.000 C 
ATOM     12  O   UNL     1       2.764   2.371  22.152  0.00  0.00    +0.000 OA
BRANCH  11  13
ATOM     13  C   UNL     1       3.928   2.413  20.059  0.00  0.00    +0.000 C 
BRANCH  13  14
ATOM     14  O   UNL     1       3.717   2.939  18.757  0.00  0.00    +0.000 OA
ATOM     15  H   UNL     1       4.013   2.242  18.139  0.00  0.00    +0.000 HD
ENDBRANCH  13  14
ENDBRANCH  11  13
ENDBRANCH  10  11
ENDBRANCH   9  10
ENDBRANCH   8   9
ENDBRANCH   6   8
ENDBRANCH   2   4
ENDBRANCH   1   2
BRANCH   1  16
ATOM     16  C   UNL     1       4.776   7.152  16.530  0.00  0.00    +0.000 C 
BRANCH  16  17
ATOM     17  C   UNL     1       5.800   7.647  17.550  0.00  0.00    +0.000 C 
BRANCH  17  18
ATOM     18  C   UNL     1       7.191   7.134  17.194  0.00  0.00    +0.000 C 
BRANCH  18  19
ATOM     19  C   UNL     1       7.874   6.546  18.419  0.00  0.00    +0.000 C 
BRANCH  19  20
ATOM     20  C   UNL     1       7.781   5.028  18.397  0.00  0.00    +0.000 C 
BRANCH  20  21
ATOM     21  C   UNL     1       7.456   4.548  16.993  0.00  0.00    +0.000 C 
BRANCH  21  22
ATOM     22  C   UNL     1       6.060   3.952  16.956  0.00  0.00    +0.000 C 
BRANCH  22  23
ATOM     23  C   UNL     1       5.768   3.401  15.572  0.00  0.00    +0.000 C 
BRANCH  23  24
ATOM     24  C   UNL     1       6.133   4.430  14.517  0.00  0.00    +0.000 C 
BRANCH  24  25
ATOM     25  C   UNL     1       6.231   3.765  13.155  0.00  0.00    +0.000 C 
BRANCH  25  26
ATOM     26  C   UNL     1       4.934   3.956  12.386  0.00  0.00    +0.000 C 
BRANCH  26  28
ATOM     27  C   UNL     1       5.902   1.854  11.454  0.00  0.00    +0.000 C 
ATOM     28  C   UNL     1       4.740   2.824  11.386  0.00  0.00    +0.000 C 
ENDBRANCH  26  28
ENDBRANCH  25  26
ENDBRANCH  24  25
ENDBRANCH  23  24
ENDBRANCH  22  23
ENDBRANCH  21  22
ENDBRANCH  20  21
ENDBRANCH  19  20
ENDBRANCH  18  19
ENDBRANCH  17  18
ENDBRANCH  16  17
ENDBRANCH   1  16
TORSDOF 20
ENDMDL
MODEL 8
REMARK VINA RESULT:      -5.5      4.455      6.188
REMARK  Name = 
REMARK  21 active torsions:
REMARK  status: ('A' for Active; 'I' for Inactive)
REMARK    1  A    between atoms: C_1  and  C_2
REMARK    2  A    between atoms: C_2  and  C_3
REMARK    3  A    between atoms: C_3  and  C_4
REMARK    4  A    between atoms: C_4  and  C_5
REMARK    5  A    between atoms: C_5  and  C_6
REMARK    6  A    between atoms: C_6  and  C_7
REMARK    7  A    between atoms: C_7  and  C_8
REMARK    8  A    between atoms: C_8  and  C_9
REMARK    9  A    between atoms: C_9  and  C_10
REMARK   10  A    between atoms: C_10  and  C_11
REMARK   11  A    between atoms: C_11  and  C_12
REMARK   12  A    between atoms: C_12  and  C_13
REMARK   13  A    between atoms: C_13  and  C_14
REMARK   14  A    between atoms: C_14  and  C_15
REMARK   15  A    between atoms: C_15  and  C_17
REMARK   16  A    between atoms: N_19  and  C_20
REMARK   17  A    between atoms: C_20  and  C_21
REMARK   18  A    between atoms: C_21  and  C_22
REMARK   19  A    between atoms: C_22  and  C_23
REMARK   20  A    between atoms: C_23  and  C_25
REMARK   21  A    between atoms: C_25  and  O_26
REMARK                            x       y       z     vdW  Elec       q    Type
REMARK                         _______ _______ _______ _____ _____    ______ ____
ROOT
ATOM      1  C   UNL     1       2.623   1.850  18.950  0.00  0.00    +0.000 C 
ENDROOT
BRANCH   1   2
ATOM      2  C   UNL     1       2.995   2.860  17.877  0.00  0.00    +0.000 C 
ATOM      3  O   UNL     1       2.345   3.133  16.877  0.00  0.00    +0.000 OA
BRANCH   2   4
ATOM      4  C   UNL     1       4.293   3.605  18.072  0.00  0.00    +0.000 C 
ATOM      5  O   UNL     1       4.785   3.684  19.177  0.00  0.00    +0.000 OA
ATOM      6  N   UNL     1       4.800   4.142  16.912  0.00  0.00    +0.000 N 
ATOM      7  H   UNL     1       4.264   3.982  16.067  0.00  0.00    +0.000 HD
BRANCH   6   8
ATOM      8  C   UNL     1       6.041   4.900  16.915  0.00  0.00    +0.000 C 
BRANCH   8   9
ATOM      9  C   UNL     1       6.392   5.478  15.543  0.00  0.00    +0.000 C 
BRANCH   9  10
ATOM     10  C   UNL     1       7.052   4.452  14.621  0.00  0.00    +0.000 C 
BRANCH  10  11
ATOM     11  C   UNL     1       6.113   4.029  13.503  0.00  0.00    +0.000 C 
ATOM     12  O   UNL     1       4.889   3.957  13.645  0.00  0.00    +0.000 OA
BRANCH  11  13
ATOM     13  C   UNL     1       6.748   3.639  12.169  0.00  0.00    +0.000 C 
BRANCH  13  14
ATOM     14  O   UNL     1       6.582   2.259  11.871  0.00  0.00    +0.000 OA
ATOM     15  H   UNL     1       5.673   2.172  11.523  0.00  0.00    +0.000 HD
ENDBRANCH  13  14
ENDBRANCH  11  13
ENDBRANCH  10  11
ENDBRANCH   9  10
ENDBRANCH   8   9
ENDBRANCH   6   8
ENDBRANCH   2   4
ENDBRANCH   1   2
BRANCH   1  16
ATOM     16  C   UNL     1       1.397   2.280  19.750  0.00  0.00    +0.000 C 
BRANCH  16  17
ATOM     17  C   UNL     1       1.105   3.771  19.595  0.00  0.00    +0.000 C 
BRANCH  17  18
ATOM     18  C   UNL     1       1.718   4.554  20.752  0.00  0.00    +0.000 C 
BRANCH  18  19
ATOM     19  C   UNL     1       1.503   6.047  20.561  0.00  0.00    +0.000 C 
BRANCH  19  20
ATOM     20  C   UNL     1       2.622   6.637  19.716  0.00  0.00    +0.000 C 
BRANCH  20  21
ATOM     21  C   UNL     1       2.262   6.549  18.242  0.00  0.00    +0.000 C 
BRANCH  21  22
ATOM     22  C   UNL     1       2.502   7.887  17.567  0.00  0.00    +0.000 C 
BRANCH  22  23
ATOM     23  C   UNL     1       2.228   9.017  18.542  0.00  0.00    +0.000 C 
BRANCH  23  24
ATOM     24  C   UNL     1       0.892   9.665  18.222  0.00  0.00    +0.000 C 
BRANCH  24  25
ATOM     25  C   UNL     1       0.045   9.758  19.479  0.00  0.00    +0.000 C 
BRANCH  25  26
ATOM     26  C   UNL     1       0.901  10.200  20.655  0.00  0.00    +0.000 C 
BRANCH  26  28
ATOM     27  C   UNL     1      -0.480   8.742  22.134  0.00  0.00    +0.000 C 
ATOM     28  C   UNL     1       0.102  10.128  21.949  0.00  0.00    +0.000 C 
ENDBRANCH  26  28
ENDBRANCH  25  26
ENDBRANCH  24  25
ENDBRANCH  23  24
ENDBRANCH  22  23
ENDBRANCH  21  22
ENDBRANCH  20  21
ENDBRANCH  19  20
ENDBRANCH  18  19
ENDBRANCH  17  18
ENDBRANCH  16  17
ENDBRANCH   1  16
TORSDOF 20
ENDMDL
MODEL 9
REMARK VINA RESULT:      -5.5      3.909      5.638
REMARK  Name = 
REMARK  21 active torsions:
REMARK  status: ('A' for Active; 'I' for Inactive)
REMARK    1  A    between atoms: C_1  and  C_2
REMARK    2  A    between atoms: C_2  and  C_3
REMARK    3  A    between atoms: C_3  and  C_4
REMARK    4  A    between atoms: C_4  and  C_5
REMARK    5  A    between atoms: C_5  and  C_6
REMARK    6  A    between atoms: C_6  and  C_7
REMARK    7  A    between atoms: C_7  and  C_8
REMARK    8  A    between atoms: C_8  and  C_9
REMARK    9  A    between atoms: C_9  and  C_10
REMARK   10  A    between atoms: C_10  and  C_11
REMARK   11  A    between atoms: C_11  and  C_12
REMARK   12  A    between atoms: C_12  and  C_13
REMARK   13  A    between atoms: C_13  and  C_14
REMARK   14  A    between atoms: C_14  and  C_15
REMARK   15  A    between atoms: C_15  and  C_17
REMARK   16  A    between atoms: N_19  and  C_20
REMARK   17  A    between atoms: C_20  and  C_21
REMARK   18  A    between atoms: C_21  and  C_22
REMARK   19  A    between atoms: C_22  and  C_23
REMARK   20  A    between atoms: C_23  and  C_25
REMARK   21  A    between atoms: C_25  and  O_26
REMARK                            x       y       z     vdW  Elec       q    Type
REMARK                         _______ _______ _______ _____ _____    ______ ____
ROOT
ATOM      1  C   UNL     1       3.660   2.751  18.161  0.00  0.00    +0.000 C 
ENDROOT
BRANCH   1   2
ATOM      2  C   UNL     1       4.613   3.031  19.311  0.00  0.00    +0.000 C 
ATOM      3  O   UNL     1       4.639   2.460  20.392  0.00  0.00    +0.000 OA
BRANCH   2   4
ATOM      4  C   UNL     1       5.635   4.120  19.090  0.00  0.00    +0.000 C 
ATOM      5  O   UNL     1       5.725   5.035  19.880  0.00  0.00    +0.000 OA
ATOM      6  N   UNL     1       6.391   3.945  17.955  0.00  0.00    +0.000 N 
ATOM      7  H   UNL     1       6.189   3.120  17.400  0.00  0.00    +0.000 HD
BRANCH   6   8
ATOM      8  C   UNL     1       7.418   4.903  17.581  0.00  0.00    +0.000 C 
BRANCH   8   9
ATOM      9  C   UNL     1       6.954   5.889  16.507  0.00  0.00    +0.000 C 
BRANCH   9  10
ATOM     10  C   UNL     1       5.676   5.435  15.801  0.00  0.00    +0.000 C 
BRANCH  10  11
ATOM     11  C   UNL     1       5.926   4.205  14.942  0.00  0.00    +0.000 C 
ATOM     12  O   UNL     1       5.717   3.056  15.339  0.00  0.00    +0.000 OA
BRANCH  11  13
ATOM     13  C   UNL     1       6.506   4.435  13.547  0.00  0.00    +0.000 C 
BRANCH  13  14
ATOM     14  O   UNL     1       6.572   3.240  12.782  0.00  0.00    +0.000 OA
ATOM     15  H   UNL     1       6.548   2.510  13.432  0.00  0.00    +0.000 HD
ENDBRANCH  13  14
ENDBRANCH  11  13
ENDBRANCH  10  11
ENDBRANCH   9  10
ENDBRANCH   8   9
ENDBRANCH   6   8
ENDBRANCH   2   4
ENDBRANCH   1   2
BRANCH   1  16
ATOM     16  C   UNL     1       2.244   2.448  18.643  0.00  0.00    +0.000 C 
BRANCH  16  17
ATOM     17  C   UNL     1       1.313   3.648  18.479  0.00  0.00    +0.000 C 
BRANCH  17  18
ATOM     18  C   UNL     1       2.033   4.782  17.756  0.00  0.00    +0.000 C 
BRANCH  18  19
ATOM     19  C   UNL     1       2.267   5.953  18.698  0.00  0.00    +0.000 C 
BRANCH  19  20
ATOM     20  C   UNL     1       3.292   6.909  18.106  0.00  0.00    +0.000 C 
BRANCH  20  21
ATOM     21  C   UNL     1       2.594   8.134  17.540  0.00  0.00    +0.000 C 
BRANCH  21  22
ATOM     22  C   UNL     1       1.747   8.794  18.614  0.00  0.00    +0.000 C 
BRANCH  22  23
ATOM     23  C   UNL     1       0.597   9.551  17.975  0.00  0.00    +0.000 C 
BRANCH  23  24
ATOM     24  C   UNL     1      -0.277  10.169  19.052  0.00  0.00    +0.000 C 
BRANCH  24  25
ATOM     25  C   UNL     1       0.155   9.673  20.420  0.00  0.00    +0.000 C 
BRANCH  25  26
ATOM     26  C   UNL     1       0.272  10.841  21.386  0.00  0.00    +0.000 C 
BRANCH  26  28
ATOM     27  C   UNL     1       1.622  12.803  20.645  0.00  0.00    +0.000 C 
ATOM     28  C   UNL     1       0.250  12.161  20.627  0.00  0.00    +0.000 C 
ENDBRANCH  26  28
ENDBRANCH  25  26
ENDBRANCH  24  25
ENDBRANCH  23  24
ENDBRANCH  22  23
ENDBRANCH  21  22
ENDBRANCH  20  21
ENDBRANCH  19  20
ENDBRANCH  18  19
ENDBRANCH  17  18
ENDBRANCH  16  17
ENDBRANCH   1  16
TORSDOF 20
ENDMDL
