MODEL 1
REMARK VINA RESULT:      -7.0      0.000      0.000
REMARK  Name = 
REMARK  2 active torsions:
REMARK  status: ('A' for Active; 'I' for Inactive)
REMARK    1  A    between atoms: N_9  and  C_10
REMARK    2  A    between atoms: C_10  and  C_11
REMARK                            x       y       z     vdW  Elec       q    Type
REMARK                         _______ _______ _______ _____ _____    ______ ____
ROOT
ATOM      1  N   UNL     1       6.785   3.941  12.773  0.00  0.00    +0.000 N 
ATOM      2  C   UNL     1       6.682   4.447  14.000  0.00  0.00    +0.000 A 
ATOM      3  N   UNL     1       7.514   5.340  14.522  0.00  0.00    +0.000 NA
ATOM      4  N   UNL     1       6.964   5.516  15.732  0.00  0.00    +0.000 N 
ATOM      5  C   UNL     1       5.849   4.738  15.909  0.00  0.00    +0.000 A 
ATOM      6  N   UNL     1       5.091   4.761  17.031  0.00  0.00    +0.000 N 
ATOM      7  C   UNL     1       5.296   5.684  18.151  0.00  0.00    +0.000 C 
ATOM      8  C   UNL     1       3.961   6.335  18.584  0.00  0.00    +0.000 C 
ATOM      9  N   UNL     1       2.851   5.393  18.840  0.00  0.00    +0.000 NA
ATOM     10  C   UNL     1       2.691   4.551  17.623  0.00  0.00    +0.000 C 
ATOM     11  C   UNL     1       3.975   3.814  17.169  0.00  0.00    +0.000 C 
ATOM     12  N   UNL     1       5.683   4.025  14.815  0.00  0.00    +0.000 NA
ATOM     13  H   UNL     1       7.669   4.061  12.305  0.00  0.00    +0.000 HD
ATOM     14  H   UNL     1       6.311   3.066  12.594  0.00  0.00    +0.000 HD
ATOM     15  H   UNL     1       7.390   6.168  16.374  0.00  0.00    +0.000 HD
ENDROOT
BRANCH   9  16
ATOM     16  C   UNL     1       3.071   4.548  20.022  0.00  0.00    +0.000 C 
BRANCH  16  17
ATOM     17  C   UNL     1       1.785   4.248  20.738  0.00  0.00    +0.000 C 
ATOM     18  C   UNL     1       0.927   3.098  20.271  0.00  0.00    +0.000 C 
ATOM     19  C   UNL     1       1.647   3.004  21.586  0.00  0.00    +0.000 C 
ENDBRANCH  16  17
ENDBRANCH   9  16
TORSDOF 2
ENDMDL
MODEL 2
REMARK VINA RESULT:      -6.8      1.119      2.077
REMARK  Name = 
REMARK  2 active torsions:
REMARK  status: ('A' for Active; 'I' for Inactive)
REMARK    1  A    between atoms: N_9  and  C_10
REMARK    2  A    between atoms: C_10  and  C_11
REMARK                            x       y       z     vdW  Elec       q    Type
REMARK                         _______ _______ _______ _____ _____    ______ ____
ROOT
ATOM      1  N   UNL     1       8.432   5.701  13.269  0.00  0.00    +0.000 N 
ATOM      2  C   UNL     1       7.405   5.139  13.903  0.00  0.00    +0.000 A 
ATOM      3  N   UNL     1       6.647   4.170  13.405  0.00  0.00    +0.000 NA
ATOM      4  N   UNL     1       5.800   3.968  14.424  0.00  0.00    +0.000 N 
ATOM      5  C   UNL     1       6.054   4.804  15.480  0.00  0.00    +0.000 A 
ATOM      6  N   UNL     1       5.364   4.771  16.645  0.00  0.00    +0.000 N 
ATOM      7  C   UNL     1       4.334   3.780  16.970  0.00  0.00    +0.000 C 
ATOM      8  C   UNL     1       4.555   3.193  18.383  0.00  0.00    +0.000 C 
ATOM      9  N   UNL     1       4.724   4.190  19.463  0.00  0.00    +0.000 NA
ATOM     10  C   UNL     1       5.829   5.101  19.059  0.00  0.00    +0.000 C 
ATOM     11  C   UNL     1       5.641   5.778  17.679  0.00  0.00    +0.000 C 
ATOM     12  N   UNL     1       7.060   5.582  15.139  0.00  0.00    +0.000 NA
ATOM     13  H   UNL     1       8.490   5.549  12.274  0.00  0.00    +0.000 HD
ATOM     14  H   UNL     1       8.730   6.612  13.590  0.00  0.00    +0.000 HD
ATOM     15  H   UNL     1       5.088   3.257  14.336  0.00  0.00    +0.000 HD
ENDROOT
BRANCH   9  16
ATOM     16  C   UNL     1       3.501   4.957  19.738  0.00  0.00    +0.000 C 
BRANCH  16  17
ATOM     17  C   UNL     1       2.308   4.060  19.906  0.00  0.00    +0.000 C 
ATOM     18  C   UNL     1       1.913   3.601  21.288  0.00  0.00    +0.000 C 
ATOM     19  C   UNL     1       1.041   4.575  20.549  0.00  0.00    +0.000 C 
ENDBRANCH  16  17
ENDBRANCH   9  16
TORSDOF 2
ENDMDL
MODEL 3
REMARK VINA RESULT:      -6.7      1.161      1.397
REMARK  Name = 
REMARK  2 active torsions:
REMARK  status: ('A' for Active; 'I' for Inactive)
REMARK    1  A    between atoms: N_9  and  C_10
REMARK    2  A    between atoms: C_10  and  C_11
REMARK                            x       y       z     vdW  Elec       q    Type
REMARK                         _______ _______ _______ _____ _____    ______ ____
ROOT
ATOM      1  N   UNL     1       7.288   4.970  14.023  0.00  0.00    +0.000 N 
ATOM      2  C   UNL     1       6.926   4.765  15.287  0.00  0.00    +0.000 A 
ATOM      3  N   UNL     1       7.770   4.601  16.298  0.00  0.00    +0.000 NA
ATOM      4  N   UNL     1       6.912   4.453  17.318  0.00  0.00    +0.000 N 
ATOM      5  C   UNL     1       5.605   4.521  16.906  0.00  0.00    +0.000 A 
ATOM      6  N   UNL     1       4.550   4.440  17.750  0.00  0.00    +0.000 N 
ATOM      7  C   UNL     1       4.658   4.376  19.210  0.00  0.00    +0.000 C 
ATOM      8  C   UNL     1       3.687   5.374  19.883  0.00  0.00    +0.000 C 
ATOM      9  N   UNL     1       2.282   5.293  19.429  0.00  0.00    +0.000 NA
ATOM     10  C   UNL     1       2.283   5.431  17.947  0.00  0.00    +0.000 C 
ATOM     11  C   UNL     1       3.186   4.416  17.202  0.00  0.00    +0.000 C 
ATOM     12  N   UNL     1       5.608   4.685  15.600  0.00  0.00    +0.000 NA
ATOM     13  H   UNL     1       8.243   4.753  13.783  0.00  0.00    +0.000 HD
ATOM     14  H   UNL     1       6.602   4.768  13.308  0.00  0.00    +0.000 HD
ATOM     15  H   UNL     1       7.276   4.315  18.249  0.00  0.00    +0.000 HD
ENDROOT
BRANCH   9  16
ATOM     16  C   UNL     1       1.617   4.045  19.827  0.00  0.00    +0.000 C 
BRANCH  16  17
ATOM     17  C   UNL     1       1.917   3.686  21.254  0.00  0.00    +0.000 C 
ATOM     18  C   UNL     1       1.188   2.531  21.898  0.00  0.00    +0.000 C 
ATOM     19  C   UNL     1       2.652   2.408  21.589  0.00  0.00    +0.000 C 
ENDBRANCH  16  17
ENDBRANCH   9  16
TORSDOF 2
ENDMDL
MODEL 4
REMARK VINA RESULT:      -6.6      2.097      6.431
REMARK  Name = 
REMARK  2 active torsions:
REMARK  status: ('A' for Active; 'I' for Inactive)
REMARK    1  A    between atoms: N_9  and  C_10
REMARK    2  A    between atoms: C_10  and  C_11
REMARK                            x       y       z     vdW  Elec       q    Type
REMARK                         _______ _______ _______ _____ _____    ______ ____
ROOT
ATOM      1  N   UNL     1       1.308   2.513  22.276  0.00  0.00    +0.000 N 
ATOM      2  C   UNL     1       1.597   2.951  21.053  0.00  0.00    +0.000 A 
ATOM      3  N   UNL     1       0.704   3.161  20.094  0.00  0.00    +0.000 NA
ATOM      4  N   UNL     1       1.497   3.599  19.106  0.00  0.00    +0.000 N 
ATOM      5  C   UNL     1       2.816   3.632  19.479  0.00  0.00    +0.000 A 
ATOM      6  N   UNL     1       3.811   4.073  18.674  0.00  0.00    +0.000 N 
ATOM      7  C   UNL     1       3.605   4.666  17.350  0.00  0.00    +0.000 C 
ATOM      8  C   UNL     1       4.419   5.972  17.194  0.00  0.00    +0.000 C 
ATOM      9  N   UNL     1       5.854   5.867  17.535  0.00  0.00    +0.000 NA
ATOM     10  C   UNL     1       5.945   5.316  18.914  0.00  0.00    +0.000 C 
ATOM     11  C   UNL     1       5.206   3.972  19.127  0.00  0.00    +0.000 C 
ATOM     12  N   UNL     1       2.890   3.184  20.715  0.00  0.00    +0.000 NA
ATOM     13  H   UNL     1       0.400   2.096  22.407  0.00  0.00    +0.000 HD
ATOM     14  H   UNL     1       2.061   2.095  22.806  0.00  0.00    +0.000 HD
ATOM     15  H   UNL     1       1.082   3.854  18.221  0.00  0.00    +0.000 HD
ENDROOT
BRANCH   9  16
ATOM     16  C   UNL     1       6.612   5.028  16.597  0.00  0.00    +0.000 C 
BRANCH  16  17
ATOM     17  C   UNL     1       6.164   5.236  15.178  0.00  0.00    +0.000 C 
ATOM     18  C   UNL     1       7.086   4.855  14.046  0.00  0.00    +0.000 C 
ATOM     19  C   UNL     1       5.839   4.056  14.292  0.00  0.00    +0.000 C 
ENDBRANCH  16  17
ENDBRANCH   9  16
TORSDOF 2
ENDMDL
MODEL 5
REMARK VINA RESULT:      -6.4      1.420      1.981
REMARK  Name = 
REMARK  2 active torsions:
REMARK  status: ('A' for Active; 'I' for Inactive)
REMARK    1  A    between atoms: N_9  and  C_10
REMARK    2  A    between atoms: C_10  and  C_11
REMARK                            x       y       z     vdW  Elec       q    Type
REMARK                         _______ _______ _______ _____ _____    ______ ____
ROOT
ATOM      1  N   UNL     1       7.673   5.285  14.645  0.00  0.00    +0.000 N 
ATOM      2  C   UNL     1       6.759   5.425  15.603  0.00  0.00    +0.000 A 
ATOM      3  N   UNL     1       6.510   6.556  16.251  0.00  0.00    +0.000 NA
ATOM      4  N   UNL     1       5.523   6.162  17.069  0.00  0.00    +0.000 N 
ATOM      5  C   UNL     1       5.215   4.836  16.905  0.00  0.00    +0.000 A 
ATOM      6  N   UNL     1       4.228   4.207  17.585  0.00  0.00    +0.000 N 
ATOM      7  C   UNL     1       3.296   4.874  18.499  0.00  0.00    +0.000 C 
ATOM      8  C   UNL     1       1.837   4.449  18.212  0.00  0.00    +0.000 C 
ATOM      9  N   UNL     1       1.603   2.990  18.150  0.00  0.00    +0.000 NA
ATOM     10  C   UNL     1       2.553   2.428  17.152  0.00  0.00    +0.000 C 
ATOM     11  C   UNL     1       4.043   2.758  17.417  0.00  0.00    +0.000 C 
ATOM     12  N   UNL     1       6.029   4.349  15.991  0.00  0.00    +0.000 NA
ATOM     13  H   UNL     1       8.371   6.009  14.573  0.00  0.00    +0.000 HD
ATOM     14  H   UNL     1       7.995   4.347  14.448  0.00  0.00    +0.000 HD
ATOM     15  H   UNL     1       5.111   6.835  17.699  0.00  0.00    +0.000 HD
ENDROOT
BRANCH   9  16
ATOM     16  C   UNL     1       1.768   2.323  19.449  0.00  0.00    +0.000 C 
BRANCH  16  17
ATOM     17  C   UNL     1       1.285   3.183  20.581  0.00  0.00    +0.000 C 
ATOM     18  C   UNL     1       1.178   2.594  21.966  0.00  0.00    +0.000 C 
ATOM     19  C   UNL     1       2.233   3.622  21.674  0.00  0.00    +0.000 C 
ENDBRANCH  16  17
ENDBRANCH   9  16
TORSDOF 2
ENDMDL
MODEL 6
REMARK VINA RESULT:      -6.4      1.753      6.415
REMARK  Name = 
REMARK  2 active torsions:
REMARK  status: ('A' for Active; 'I' for Inactive)
REMARK    1  A    between atoms: N_9  and  C_10
REMARK    2  A    between atoms: C_10  and  C_11
REMARK                            x       y       z     vdW  Elec       q    Type
REMARK                         _______ _______ _______ _____ _____    ______ ____
ROOT
ATOM      1  N   UNL     1       2.043   2.763  21.939  0.00  0.00    +0.000 N 
ATOM      2  C   UNL     1       2.228   3.686  20.998  0.00  0.00    +0.000 A 
ATOM      3  N   UNL     1       1.581   4.843  20.936  0.00  0.00    +0.000 NA
ATOM      4  N   UNL     1       2.139   5.382  19.842  0.00  0.00    +0.000 N 
ATOM      5  C   UNL     1       3.078   4.555  19.281  0.00  0.00    +0.000 A 
ATOM      6  N   UNL     1       3.811   4.885  18.192  0.00  0.00    +0.000 N 
ATOM      7  C   UNL     1       3.778   6.196  17.536  0.00  0.00    +0.000 C 
ATOM      8  C   UNL     1       5.208   6.719  17.270  0.00  0.00    +0.000 C 
ATOM      9  N   UNL     1       6.109   5.775  16.574  0.00  0.00    +0.000 NA
ATOM     10  C   UNL     1       6.116   4.508  17.354  0.00  0.00    +0.000 C 
ATOM     11  C   UNL     1       4.718   3.890  17.602  0.00  0.00    +0.000 C 
ATOM     12  N   UNL     1       3.114   3.451  19.997  0.00  0.00    +0.000 NA
ATOM     13  H   UNL     1       1.206   2.842  22.495  0.00  0.00    +0.000 HD
ATOM     14  H   UNL     1       2.338   1.820  21.725  0.00  0.00    +0.000 HD
ATOM     15  H   UNL     1       1.841   6.298  19.541  0.00  0.00    +0.000 HD
ENDROOT
BRANCH   9  16
ATOM     16  C   UNL     1       5.712   5.519  15.182  0.00  0.00    +0.000 C 
BRANCH  16  17
ATOM     17  C   UNL     1       6.633   4.539  14.513  0.00  0.00    +0.000 C 
ATOM     18  C   UNL     1       6.118   3.697  13.372  0.00  0.00    +0.000 C 
ATOM     19  C   UNL     1       7.123   4.780  13.104  0.00  0.00    +0.000 C 
ENDBRANCH  16  17
ENDBRANCH   9  16
TORSDOF 2
ENDMDL
MODEL 7
REMARK VINA RESULT:      -6.3      2.961      5.914
REMARK  Name = 
REMARK  2 active torsions:
REMARK  status: ('A' for Active; 'I' for Inactive)
REMARK    1  A    between atoms: N_9  and  C_10
REMARK    2  A    between atoms: C_10  and  C_11
REMARK                            x       y       z     vdW  Elec       q    Type
REMARK                         _______ _______ _______ _____ _____    ______ ____
ROOT
ATOM      1  N   UNL     1       1.685   1.631  18.466  0.00  0.00    +0.000 N 
ATOM      2  C   UNL     1       2.873   2.217  18.598  0.00  0.00    +0.000 A 
ATOM      3  N   UNL     1       3.938   1.652  19.151  0.00  0.00    +0.000 NA
ATOM      4  N   UNL     1       4.840   2.635  19.018  0.00  0.00    +0.000 N 
ATOM      5  C   UNL     1       4.308   3.745  18.412  0.00  0.00    +0.000 A 
ATOM      6  N   UNL     1       5.023   4.858  18.128  0.00  0.00    +0.000 N 
ATOM      7  C   UNL     1       6.469   4.989  18.331  0.00  0.00    +0.000 C 
ATOM      8  C   UNL     1       7.152   5.588  17.080  0.00  0.00    +0.000 C 
ATOM      9  N   UNL     1       6.550   6.838  16.568  0.00  0.00    +0.000 NA
ATOM     10  C   UNL     1       5.104   6.576  16.339  0.00  0.00    +0.000 C 
ATOM     11  C   UNL     1       4.339   6.035  17.573  0.00  0.00    +0.000 C 
ATOM     12  N   UNL     1       3.037   3.496  18.173  0.00  0.00    +0.000 NA
ATOM     13  H   UNL     1       1.520   0.808  19.024  0.00  0.00    +0.000 HD
ATOM     14  H   UNL     1       0.885   2.234  18.330  0.00  0.00    +0.000 HD
ATOM     15  H   UNL     1       5.780   2.487  19.353  0.00  0.00    +0.000 HD
ENDROOT
BRANCH   9  16
ATOM     16  C   UNL     1       6.728   7.980  17.476  0.00  0.00    +0.000 C 
BRANCH  16  17
ATOM     17  C   UNL     1       8.161   8.425  17.537  0.00  0.00    +0.000 C 
ATOM     18  C   UNL     1       8.476   9.879  17.785  0.00  0.00    +0.000 C 
ATOM     19  C   UNL     1       8.778   8.861  18.846  0.00  0.00    +0.000 C 
ENDBRANCH  16  17
ENDBRANCH   9  16
TORSDOF 2
ENDMDL
MODEL 8
REMARK VINA RESULT:      -6.1      1.541      6.346
REMARK  Name = 
REMARK  2 active torsions:
REMARK  status: ('A' for Active; 'I' for Inactive)
REMARK    1  A    between atoms: N_9  and  C_10
REMARK    2  A    between atoms: C_10  and  C_11
REMARK                            x       y       z     vdW  Elec       q    Type
REMARK                         _______ _______ _______ _____ _____    ______ ____
ROOT
ATOM      1  N   UNL     1       1.031   3.638  20.875  0.00  0.00    +0.000 N 
ATOM      2  C   UNL     1       1.733   4.458  20.096  0.00  0.00    +0.000 A 
ATOM      3  N   UNL     1       1.796   5.775  20.248  0.00  0.00    +0.000 NA
ATOM      4  N   UNL     1       2.623   6.103  19.244  0.00  0.00    +0.000 N 
ATOM      5  C   UNL     1       3.020   5.005  18.524  0.00  0.00    +0.000 A 
ATOM      6  N   UNL     1       3.885   5.065  17.484  0.00  0.00    +0.000 N 
ATOM      7  C   UNL     1       4.586   6.279  17.059  0.00  0.00    +0.000 C 
ATOM      8  C   UNL     1       6.092   6.001  16.841  0.00  0.00    +0.000 C 
ATOM      9  N   UNL     1       6.404   4.848  15.970  0.00  0.00    +0.000 NA
ATOM     10  C   UNL     1       5.695   3.664  16.526  0.00  0.00    +0.000 C 
ATOM     11  C   UNL     1       4.167   3.849  16.709  0.00  0.00    +0.000 C 
ATOM     12  N   UNL     1       2.424   3.952  19.044  0.00  0.00    +0.000 NA
ATOM     13  H   UNL     1       0.327   4.059  21.460  0.00  0.00    +0.000 HD
ATOM     14  H   UNL     1       0.799   2.729  20.497  0.00  0.00    +0.000 HD
ATOM     15  H   UNL     1       2.871   7.072  19.110  0.00  0.00    +0.000 HD
ENDROOT
BRANCH   9  16
ATOM     16  C   UNL     1       6.021   5.063  14.567  0.00  0.00    +0.000 C 
BRANCH  16  17
ATOM     17  C   UNL     1       6.233   3.829  13.737  0.00  0.00    +0.000 C 
ATOM     18  C   UNL     1       5.318   3.555  12.569  0.00  0.00    +0.000 C 
ATOM     19  C   UNL     1       6.749   3.933  12.320  0.00  0.00    +0.000 C 
ENDBRANCH  16  17
ENDBRANCH   9  16
TORSDOF 2
ENDMDL
MODEL 9
REMARK VINA RESULT:      -6.1      2.271      5.987
REMARK  Name = 
REMARK  2 active torsions:
REMARK  status: ('A' for Active; 'I' for Inactive)
REMARK    1  A    between atoms: N_9  and  C_10
REMARK    2  A    between atoms: C_10  and  C_11
REMARK                            x       y       z     vdW  Elec       q    Type
REMARK                         _______ _______ _______ _____ _____    ______ ____
ROOT
ATOM      1  N   UNL     1       0.559   3.182  20.290  0.00  0.00    +0.000 N 
ATOM      2  C   UNL     1       1.606   3.068  19.476  0.00  0.00    +0.000 A 
ATOM      3  N   UNL     1       1.993   1.938  18.895  0.00  0.00    +0.000 NA
ATOM      4  N   UNL     1       3.050   2.369  18.192  0.00  0.00    +0.000 N 
ATOM      5  C   UNL     1       3.276   3.710  18.368  0.00  0.00    +0.000 A 
ATOM      6  N   UNL     1       4.260   4.393  17.737  0.00  0.00    +0.000 N 
ATOM      7  C   UNL     1       5.140   3.822  16.714  0.00  0.00    +0.000 C 
ATOM      8  C   UNL     1       5.240   4.757  15.485  0.00  0.00    +0.000 C 
ATOM      9  N   UNL     1       5.581   6.164  15.786  0.00  0.00    +0.000 NA
ATOM     10  C   UNL     1       4.593   6.659  16.783  0.00  0.00    +0.000 C 
ATOM     11  C   UNL     1       4.488   5.806  18.071  0.00  0.00    +0.000 C 
ATOM     12  N   UNL     1       2.374   4.156  19.218  0.00  0.00    +0.000 NA
ATOM     13  H   UNL     1       0.185   2.328  20.672  0.00  0.00    +0.000 HD
ATOM     14  H   UNL     1       0.542   3.982  20.909  0.00  0.00    +0.000 HD
ATOM     15  H   UNL     1       3.562   1.710  17.624  0.00  0.00    +0.000 HD
ENDROOT
BRANCH   9  16
ATOM     16  C   UNL     1       6.950   6.330  16.295  0.00  0.00    +0.000 C 
BRANCH  16  17
ATOM     17  C   UNL     1       6.990   7.218  17.505  0.00  0.00    +0.000 C 
ATOM     18  C   UNL     1       8.058   7.003  18.548  0.00  0.00    +0.000 C 
ATOM     19  C   UNL     1       8.099   8.230  17.683  0.00  0.00    +0.000 C 
ENDBRANCH  16  17
ENDBRANCH   9  16
TORSDOF 2
ENDMDL
