MODEL 1
REMARK VINA RESULT:      -9.4      0.000      0.000
REMARK  Name = 
REMARK  3 active torsions:
REMARK  status: ('A' for Active; 'I' for Inactive)
REMARK    1  A    between atoms: C_2  and  C_12
REMARK    2  A    between atoms: N_3  and  C_4
REMARK    3  A    between atoms: C_4  and  C_5
REMARK                            x       y       z     vdW  Elec       q    Type
REMARK                         _______ _______ _______ _____ _____    ______ ____
ROOT
ATOM      1  C   UNL     1       2.235   7.262  19.302  0.00  0.00    +0.000 A 
ATOM      2  C   UNL     1       2.208   8.131  18.205  0.00  0.00    +0.000 A 
ATOM      3  C   UNL     1       1.513   9.354  18.284  0.00  0.00    +0.000 A 
ATOM      4  C   UNL     1       0.856   9.737  19.467  0.00  0.00    +0.000 A 
ATOM      5  C   UNL     1       0.931   8.866  20.545  0.00  0.00    +0.000 A 
ATOM      6  C   UNL     1       1.602   7.643  20.480  0.00  0.00    +0.000 A 
ATOM      7  S   UNL     1       0.213   9.253  22.076  0.00  0.00    +0.000 S 
ATOM      8  O   UNL     1       1.315   9.463  22.996  0.00  0.00    +0.000 OA
ATOM      9  O   UNL     1      -0.791   8.239  22.314  0.00  0.00    +0.000 OA
ATOM     10  C   UNL     1      -0.621  10.769  21.939  0.00  0.00    +0.000 A 
ATOM     11  C   UNL     1      -1.307  11.215  23.075  0.00  0.00    +0.000 A 
ATOM     12  C   UNL     1      -1.974  12.430  23.038  0.00  0.00    +0.000 A 
ATOM     13  C   UNL     1      -1.952  13.185  21.868  0.00  0.00    +0.000 A 
ATOM     14  C   UNL     1      -1.267  12.723  20.735  0.00  0.00    +0.000 A 
ATOM     15  C   UNL     1      -0.586  11.496  20.754  0.00  0.00    +0.000 A 
ATOM     16  C   UNL     1       0.131  11.035  19.529  0.00  0.00    +0.000 C 
ATOM     17  O   UNL     1       0.118  11.754  18.527  0.00  0.00    +0.000 OA
ENDROOT
BRANCH   1  19
ATOM     18  O   UNL     1       2.412   4.931  19.495  0.00  0.00    +0.000 OA
ATOM     19  C   UNL     1       2.986   5.982  19.246  0.00  0.00    +0.000 C 
ATOM     20  N   UNL     1       4.317   6.076  18.884  0.00  0.00    +0.000 N 
ATOM     21  H   UNL     1       4.768   6.975  18.788  0.00  0.00    +0.000 HD
BRANCH  20  22
ATOM     22  C   UNL     1       5.147   4.900  18.768  0.00  0.00    +0.000 C 
BRANCH  22  23
ATOM     23  C   UNL     1       5.643   4.697  17.358  0.00  0.00    +0.000 A 
ATOM     24  C   UNL     1       6.997   4.911  17.049  0.00  0.00    +0.000 A 
ATOM     25  C   UNL     1       7.459   4.755  15.740  0.00  0.00    +0.000 A 
ATOM     26  C   UNL     1       6.568   4.389  14.740  0.00  0.00    +0.000 A 
ATOM     27  F   UNL     1       7.008   4.251  13.482  0.00  0.00    +0.000 F 
ATOM     28  C   UNL     1       5.226   4.169  15.024  0.00  0.00    +0.000 A 
ATOM     29  C   UNL     1       4.760   4.326  16.332  0.00  0.00    +0.000 A 
ENDBRANCH  22  23
ENDBRANCH  20  22
ENDBRANCH   1  19
TORSDOF 3
ENDMDL
MODEL 2
REMARK VINA RESULT:      -9.2      0.732      1.108
REMARK  Name = 
REMARK  3 active torsions:
REMARK  status: ('A' for Active; 'I' for Inactive)
REMARK    1  A    between atoms: C_2  and  C_12
REMARK    2  A    between atoms: N_3  and  C_4
REMARK    3  A    between atoms: C_4  and  C_5
REMARK                            x       y       z     vdW  Elec       q    Type
REMARK                         _______ _______ _______ _____ _____    ______ ____
ROOT
ATOM      1  C   UNL     1       2.253   7.475  19.116  0.00  0.00    +0.000 A 
ATOM      2  C   UNL     1       2.153   8.363  18.040  0.00  0.00    +0.000 A 
ATOM      3  C   UNL     1       1.411   9.553  18.166  0.00  0.00    +0.000 A 
ATOM      4  C   UNL     1       0.779   9.885  19.378  0.00  0.00    +0.000 A 
ATOM      5  C   UNL     1       0.926   8.997  20.435  0.00  0.00    +0.000 A 
ATOM      6  C   UNL     1       1.644   7.804  20.322  0.00  0.00    +0.000 A 
ATOM      7  S   UNL     1       0.243   9.322  21.996  0.00  0.00    +0.000 S 
ATOM      8  O   UNL     1       1.365   9.560  22.883  0.00  0.00    +0.000 OA
ATOM      9  O   UNL     1      -0.710   8.262  22.244  0.00  0.00    +0.000 OA
ATOM     10  C   UNL     1      -0.656  10.804  21.918  0.00  0.00    +0.000 A 
ATOM     11  C   UNL     1      -1.323  11.198  23.085  0.00  0.00    +0.000 A 
ATOM     12  C   UNL     1      -2.041  12.385  23.095  0.00  0.00    +0.000 A 
ATOM     13  C   UNL     1      -2.089  13.163  21.942  0.00  0.00    +0.000 A 
ATOM     14  C   UNL     1      -1.423  12.753  20.777  0.00  0.00    +0.000 A 
ATOM     15  C   UNL     1      -0.692  11.555  20.748  0.00  0.00    +0.000 A 
ATOM     16  C   UNL     1       0.003  11.150  19.491  0.00  0.00    +0.000 C 
ATOM     17  O   UNL     1      -0.074  11.887  18.506  0.00  0.00    +0.000 OA
ENDROOT
BRANCH   1  19
ATOM     18  O   UNL     1       3.468   5.685  20.022  0.00  0.00    +0.000 OA
ATOM     19  C   UNL     1       3.054   6.229  19.009  0.00  0.00    +0.000 C 
ATOM     20  N   UNL     1       3.260   5.750  17.728  0.00  0.00    +0.000 N 
ATOM     21  H   UNL     1       2.985   6.290  16.920  0.00  0.00    +0.000 HD
BRANCH  20  22
ATOM     22  C   UNL     1       4.001   4.532  17.493  0.00  0.00    +0.000 C 
BRANCH  22  23
ATOM     23  C   UNL     1       5.068   4.715  16.444  0.00  0.00    +0.000 A 
ATOM     24  C   UNL     1       5.064   3.917  15.287  0.00  0.00    +0.000 A 
ATOM     25  C   UNL     1       6.066   4.059  14.325  0.00  0.00    +0.000 A 
ATOM     26  C   UNL     1       7.074   4.994  14.519  0.00  0.00    +0.000 A 
ATOM     27  F   UNL     1       8.042   5.122  13.602  0.00  0.00    +0.000 F 
ATOM     28  C   UNL     1       7.095   5.796  15.654  0.00  0.00    +0.000 A 
ATOM     29  C   UNL     1       6.095   5.655  16.619  0.00  0.00    +0.000 A 
ENDBRANCH  22  23
ENDBRANCH  20  22
ENDBRANCH   1  19
TORSDOF 3
ENDMDL
MODEL 3
REMARK VINA RESULT:      -8.7      2.587      3.671
REMARK  Name = 
REMARK  3 active torsions:
REMARK  status: ('A' for Active; 'I' for Inactive)
REMARK    1  A    between atoms: C_2  and  C_12
REMARK    2  A    between atoms: N_3  and  C_4
REMARK    3  A    between atoms: C_4  and  C_5
REMARK                            x       y       z     vdW  Elec       q    Type
REMARK                         _______ _______ _______ _____ _____    ______ ____
ROOT
ATOM      1  C   UNL     1       1.438   8.877  19.394  0.00  0.00    +0.000 A 
ATOM      2  C   UNL     1       1.511   8.439  20.721  0.00  0.00    +0.000 A 
ATOM      3  C   UNL     1       0.750   9.072  21.722  0.00  0.00    +0.000 A 
ATOM      4  C   UNL     1      -0.114  10.136  21.408  0.00  0.00    +0.000 A 
ATOM      5  C   UNL     1      -0.187  10.523  20.077  0.00  0.00    +0.000 A 
ATOM      6  C   UNL     1       0.573   9.917  19.074  0.00  0.00    +0.000 A 
ATOM      7  S   UNL     1      -1.259  11.784  19.554  0.00  0.00    +0.000 S 
ATOM      8  O   UNL     1      -2.279  11.136  18.752  0.00  0.00    +0.000 OA
ATOM      9  O   UNL     1      -0.415  12.827  19.013  0.00  0.00    +0.000 OA
ATOM     10  C   UNL     1      -2.061  12.450  20.942  0.00  0.00    +0.000 A 
ATOM     11  C   UNL     1      -2.933  13.521  20.711  0.00  0.00    +0.000 A 
ATOM     12  C   UNL     1      -3.622  14.083  21.774  0.00  0.00    +0.000 A 
ATOM     13  C   UNL     1      -3.433  13.574  23.056  0.00  0.00    +0.000 A 
ATOM     14  C   UNL     1      -2.550  12.505  23.275  0.00  0.00    +0.000 A 
ATOM     15  C   UNL     1      -1.844  11.924  22.211  0.00  0.00    +0.000 A 
ATOM     16  C   UNL     1      -0.913  10.789  22.481  0.00  0.00    +0.000 C 
ATOM     17  O   UNL     1      -0.794  10.381  23.638  0.00  0.00    +0.000 OA
ENDROOT
BRANCH   1  19
ATOM     18  O   UNL     1       2.333   8.740  17.230  0.00  0.00    +0.000 OA
ATOM     19  C   UNL     1       2.213   8.202  18.321  0.00  0.00    +0.000 C 
ATOM     20  N   UNL     1       2.776   6.985  18.656  0.00  0.00    +0.000 N 
ATOM     21  H   UNL     1       2.563   6.536  19.535  0.00  0.00    +0.000 HD
BRANCH  20  22
ATOM     22  C   UNL     1       3.576   6.243  17.708  0.00  0.00    +0.000 C 
BRANCH  22  23
ATOM     23  C   UNL     1       3.547   4.761  17.985  0.00  0.00    +0.000 A 
ATOM     24  C   UNL     1       4.457   4.195  18.894  0.00  0.00    +0.000 A 
ATOM     25  C   UNL     1       4.457   2.819  19.133  0.00  0.00    +0.000 A 
ATOM     26  C   UNL     1       3.552   2.008  18.462  0.00  0.00    +0.000 A 
ATOM     27  F   UNL     1       3.559   0.687  18.682  0.00  0.00    +0.000 F 
ATOM     28  C   UNL     1       2.641   2.547  17.562  0.00  0.00    +0.000 A 
ATOM     29  C   UNL     1       2.639   3.923  17.319  0.00  0.00    +0.000 A 
ENDBRANCH  22  23
ENDBRANCH  20  22
ENDBRANCH   1  19
TORSDOF 3
ENDMDL
MODEL 4
REMARK VINA RESULT:      -8.6      3.637      5.160
REMARK  Name = 
REMARK  3 active torsions:
REMARK  status: ('A' for Active; 'I' for Inactive)
REMARK    1  A    between atoms: C_2  and  C_12
REMARK    2  A    between atoms: N_3  and  C_4
REMARK    3  A    between atoms: C_4  and  C_5
REMARK                            x       y       z     vdW  Elec       q    Type
REMARK                         _______ _______ _______ _____ _____    ______ ____
ROOT
ATOM      1  C   UNL     1       0.402  10.010  18.860  0.00  0.00    +0.000 A 
ATOM      2  C   UNL     1       0.486  10.794  20.016  0.00  0.00    +0.000 A 
ATOM      3  C   UNL     1      -0.599  11.601  20.408  0.00  0.00    +0.000 A 
ATOM      4  C   UNL     1      -1.793  11.617  19.665  0.00  0.00    +0.000 A 
ATOM      5  C   UNL     1      -1.854  10.803  18.543  0.00  0.00    +0.000 A 
ATOM      6  C   UNL     1      -0.781  10.009  18.130  0.00  0.00    +0.000 A 
ATOM      7  S   UNL     1      -3.291  10.692  17.578  0.00  0.00    +0.000 S 
ATOM      8  O   UNL     1      -3.810   9.353  17.783  0.00  0.00    +0.000 OA
ATOM      9  O   UNL     1      -2.928  11.172  16.262  0.00  0.00    +0.000 OA
ATOM     10  C   UNL     1      -4.477  11.791  18.209  0.00  0.00    +0.000 A 
ATOM     11  C   UNL     1      -5.692  11.870  17.517  0.00  0.00    +0.000 A 
ATOM     12  C   UNL     1      -6.690  12.712  17.982  0.00  0.00    +0.000 A 
ATOM     13  C   UNL     1      -6.466  13.468  19.130  0.00  0.00    +0.000 A 
ATOM     14  C   UNL     1      -5.241  13.385  19.810  0.00  0.00    +0.000 A 
ATOM     15  C   UNL     1      -4.219  12.537  19.353  0.00  0.00    +0.000 A 
ATOM     16  C   UNL     1      -2.929  12.475  20.100  0.00  0.00    +0.000 C 
ATOM     17  O   UNL     1      -2.795  13.165  21.114  0.00  0.00    +0.000 OA
ENDROOT
BRANCH   1  19
ATOM     18  O   UNL     1       2.174   9.407  17.447  0.00  0.00    +0.000 OA
ATOM     19  C   UNL     1       1.527   9.132  18.446  0.00  0.00    +0.000 C 
ATOM     20  N   UNL     1       1.778   8.045  19.263  0.00  0.00    +0.000 N 
ATOM     21  H   UNL     1       1.152   7.805  20.018  0.00  0.00    +0.000 HD
BRANCH  20  22
ATOM     22  C   UNL     1       2.862   7.132  18.983  0.00  0.00    +0.000 C 
BRANCH  22  23
ATOM     23  C   UNL     1       2.401   5.696  18.978  0.00  0.00    +0.000 A 
ATOM     24  C   UNL     1       2.477   4.934  17.799  0.00  0.00    +0.000 A 
ATOM     25  C   UNL     1       2.025   3.614  17.778  0.00  0.00    +0.000 A 
ATOM     26  C   UNL     1       1.494   3.054  18.932  0.00  0.00    +0.000 A 
ATOM     27  F   UNL     1       1.049   1.790  18.909  0.00  0.00    +0.000 F 
ATOM     28  C   UNL     1       1.413   3.787  20.110  0.00  0.00    +0.000 A 
ATOM     29  C   UNL     1       1.863   5.109  20.134  0.00  0.00    +0.000 A 
ENDBRANCH  22  23
ENDBRANCH  20  22
ENDBRANCH   1  19
TORSDOF 3
ENDMDL
MODEL 5
REMARK VINA RESULT:      -8.6      3.188      4.220
REMARK  Name = 
REMARK  3 active torsions:
REMARK  status: ('A' for Active; 'I' for Inactive)
REMARK    1  A    between atoms: C_2  and  C_12
REMARK    2  A    between atoms: N_3  and  C_4
REMARK    3  A    between atoms: C_4  and  C_5
REMARK                            x       y       z     vdW  Elec       q    Type
REMARK                         _______ _______ _______ _____ _____    ______ ____
ROOT
ATOM      1  C   UNL     1       0.278   9.990  18.898  0.00  0.00    +0.000 A 
ATOM      2  C   UNL     1      -0.841  10.196  18.083  0.00  0.00    +0.000 A 
ATOM      3  C   UNL     1      -1.893  11.026  18.516  0.00  0.00    +0.000 A 
ATOM      4  C   UNL     1      -1.830  11.683  19.758  0.00  0.00    +0.000 A 
ATOM      5  C   UNL     1      -0.691  11.482  20.526  0.00  0.00    +0.000 A 
ATOM      6  C   UNL     1       0.354  10.649  20.119  0.00  0.00    +0.000 A 
ATOM      7  S   UNL     1      -0.471  12.283  22.049  0.00  0.00    +0.000 S 
ATOM      8  O   UNL     1       0.611  13.229  21.853  0.00  0.00    +0.000 OA
ATOM      9  O   UNL     1      -0.391  11.235  23.044  0.00  0.00    +0.000 OA
ATOM     10  C   UNL     1      -1.891  13.213  22.406  0.00  0.00    +0.000 A 
ATOM     11  C   UNL     1      -1.908  13.891  23.632  0.00  0.00    +0.000 A 
ATOM     12  C   UNL     1      -3.005  14.670  23.966  0.00  0.00    +0.000 A 
ATOM     13  C   UNL     1      -4.073  14.764  23.078  0.00  0.00    +0.000 A 
ATOM     14  C   UNL     1      -4.047  14.074  21.857  0.00  0.00    +0.000 A 
ATOM     15  C   UNL     1      -2.945  13.280  21.501  0.00  0.00    +0.000 A 
ATOM     16  C   UNL     1      -2.952  12.559  20.194  0.00  0.00    +0.000 C 
ATOM     17  O   UNL     1      -3.926  12.688  19.450  0.00  0.00    +0.000 OA
ENDROOT
BRANCH   1  19
ATOM     18  O   UNL     1       2.032   9.445  17.439  0.00  0.00    +0.000 OA
ATOM     19  C   UNL     1       1.409   9.140  18.445  0.00  0.00    +0.000 C 
ATOM     20  N   UNL     1       1.693   8.041  19.235  0.00  0.00    +0.000 N 
ATOM     21  H   UNL     1       1.086   7.775  19.997  0.00  0.00    +0.000 HD
BRANCH  20  22
ATOM     22  C   UNL     1       2.786   7.151  18.915  0.00  0.00    +0.000 C 
BRANCH  22  23
ATOM     23  C   UNL     1       2.365   5.704  18.957  0.00  0.00    +0.000 A 
ATOM     24  C   UNL     1       2.455   4.909  17.801  0.00  0.00    +0.000 A 
ATOM     25  C   UNL     1       2.039   3.577  17.824  0.00  0.00    +0.000 A 
ATOM     26  C   UNL     1       1.530   3.038  18.998  0.00  0.00    +0.000 A 
ATOM     27  F   UNL     1       1.120   1.763  19.017  0.00  0.00    +0.000 F 
ATOM     28  C   UNL     1       1.437   3.805  20.153  0.00  0.00    +0.000 A 
ATOM     29  C   UNL     1       1.850   5.139  20.134  0.00  0.00    +0.000 A 
ENDBRANCH  22  23
ENDBRANCH  20  22
ENDBRANCH   1  19
TORSDOF 3
ENDMDL
MODEL 6
REMARK VINA RESULT:      -8.6      2.279      3.479
REMARK  Name = 
REMARK  3 active torsions:
REMARK  status: ('A' for Active; 'I' for Inactive)
REMARK    1  A    between atoms: C_2  and  C_12
REMARK    2  A    between atoms: N_3  and  C_4
REMARK    3  A    between atoms: C_4  and  C_5
REMARK                            x       y       z     vdW  Elec       q    Type
REMARK                         _______ _______ _______ _____ _____    ______ ____
ROOT
ATOM      1  C   UNL     1       1.402   8.804  19.411  0.00  0.00    +0.000 A 
ATOM      2  C   UNL     1       1.464   8.388  20.745  0.00  0.00    +0.000 A 
ATOM      3  C   UNL     1       0.709   9.049  21.732  0.00  0.00    +0.000 A 
ATOM      4  C   UNL     1      -0.139  10.119  21.397  0.00  0.00    +0.000 A 
ATOM      5  C   UNL     1      -0.202  10.484  20.059  0.00  0.00    +0.000 A 
ATOM      6  C   UNL     1       0.553   9.850  19.069  0.00  0.00    +0.000 A 
ATOM      7  S   UNL     1      -1.255  11.750  19.511  0.00  0.00    +0.000 S 
ATOM      8  O   UNL     1      -2.281  11.103  18.716  0.00  0.00    +0.000 OA
ATOM      9  O   UNL     1      -0.395  12.772  18.954  0.00  0.00    +0.000 OA
ATOM     10  C   UNL     1      -2.052  12.450  20.884  0.00  0.00    +0.000 A 
ATOM     11  C   UNL     1      -2.909  13.529  20.631  0.00  0.00    +0.000 A 
ATOM     12  C   UNL     1      -3.594  14.119  21.682  0.00  0.00    +0.000 A 
ATOM     13  C   UNL     1      -3.417  13.629  22.973  0.00  0.00    +0.000 A 
ATOM     14  C   UNL     1      -2.549  12.553  23.214  0.00  0.00    +0.000 A 
ATOM     15  C   UNL     1      -1.848  11.944  22.162  0.00  0.00    +0.000 A 
ATOM     16  C   UNL     1      -0.933  10.801  22.455  0.00  0.00    +0.000 C 
ATOM     17  O   UNL     1      -0.824  10.411  23.620  0.00  0.00    +0.000 OA
ENDROOT
BRANCH   1  19
ATOM     18  O   UNL     1       2.523   8.709  17.353  0.00  0.00    +0.000 OA
ATOM     19  C   UNL     1       2.171   8.100  18.353  0.00  0.00    +0.000 C 
ATOM     20  N   UNL     1       2.459   6.770  18.596  0.00  0.00    +0.000 N 
ATOM     21  H   UNL     1       2.058   6.287  19.388  0.00  0.00    +0.000 HD
BRANCH  20  22
ATOM     22  C   UNL     1       3.224   5.984  17.656  0.00  0.00    +0.000 C 
BRANCH  22  23
ATOM     23  C   UNL     1       4.700   6.020  17.961  0.00  0.00    +0.000 A 
ATOM     24  C   UNL     1       5.212   5.307  19.058  0.00  0.00    +0.000 A 
ATOM     25  C   UNL     1       6.573   5.360  19.366  0.00  0.00    +0.000 A 
ATOM     26  C   UNL     1       7.422   6.127  18.580  0.00  0.00    +0.000 A 
ATOM     27  F   UNL     1       8.726   6.188  18.881  0.00  0.00    +0.000 F 
ATOM     28  C   UNL     1       6.938   6.837  17.487  0.00  0.00    +0.000 A 
ATOM     29  C   UNL     1       5.577   6.788  17.178  0.00  0.00    +0.000 A 
ENDBRANCH  22  23
ENDBRANCH  20  22
ENDBRANCH   1  19
TORSDOF 3
ENDMDL
MODEL 7
REMARK VINA RESULT:      -8.4      1.864      3.186
REMARK  Name = 
REMARK  3 active torsions:
REMARK  status: ('A' for Active; 'I' for Inactive)
REMARK    1  A    between atoms: C_2  and  C_12
REMARK    2  A    between atoms: N_3  and  C_4
REMARK    3  A    between atoms: C_4  and  C_5
REMARK                            x       y       z     vdW  Elec       q    Type
REMARK                         _______ _______ _______ _____ _____    ______ ____
ROOT
ATOM      1  C   UNL     1       1.649   8.418  19.323  0.00  0.00    +0.000 A 
ATOM      2  C   UNL     1       1.746   8.022  20.662  0.00  0.00    +0.000 A 
ATOM      3  C   UNL     1       1.085   8.752  21.668  0.00  0.00    +0.000 A 
ATOM      4  C   UNL     1       0.298   9.873  21.350  0.00  0.00    +0.000 A 
ATOM      5  C   UNL     1       0.197  10.217  20.009  0.00  0.00    +0.000 A 
ATOM      6  C   UNL     1       0.858   9.515  18.999  0.00  0.00    +0.000 A 
ATOM      7  S   UNL     1      -0.791  11.544  19.484  0.00  0.00    +0.000 S 
ATOM      8  O   UNL     1      -1.896  10.955  18.751  0.00  0.00    +0.000 OA
ATOM      9  O   UNL     1       0.110  12.493  18.867  0.00  0.00    +0.000 OA
ATOM     10  C   UNL     1      -1.472  12.322  20.877  0.00  0.00    +0.000 A 
ATOM     11  C   UNL     1      -2.263  13.454  20.641  0.00  0.00    +0.000 A 
ATOM     12  C   UNL     1      -2.856  14.109  21.710  0.00  0.00    +0.000 A 
ATOM     13  C   UNL     1      -2.651  13.631  23.002  0.00  0.00    +0.000 A 
ATOM     14  C   UNL     1      -1.849  12.501  23.225  0.00  0.00    +0.000 A 
ATOM     15  C   UNL     1      -1.242  11.825  22.155  0.00  0.00    +0.000 A 
ATOM     16  C   UNL     1      -0.395  10.627  22.429  0.00  0.00    +0.000 C 
ATOM     17  O   UNL     1      -0.258  10.251  23.596  0.00  0.00    +0.000 OA
ENDROOT
BRANCH   1  19
ATOM     18  O   UNL     1       2.763   8.226  17.268  0.00  0.00    +0.000 OA
ATOM     19  C   UNL     1       2.316   7.644  18.245  0.00  0.00    +0.000 C 
ATOM     20  N   UNL     1       2.403   6.279  18.446  0.00  0.00    +0.000 N 
ATOM     21  H   UNL     1       1.930   5.834  19.219  0.00  0.00    +0.000 HD
BRANCH  20  22
ATOM     22  C   UNL     1       3.054   5.420  17.483  0.00  0.00    +0.000 C 
BRANCH  22  23
ATOM     23  C   UNL     1       4.528   5.272  17.764  0.00  0.00    +0.000 A 
ATOM     24  C   UNL     1       5.418   4.963  16.722  0.00  0.00    +0.000 A 
ATOM     25  C   UNL     1       6.780   4.794  16.979  0.00  0.00    +0.000 A 
ATOM     26  C   UNL     1       7.253   4.931  18.277  0.00  0.00    +0.000 A 
ATOM     27  F   UNL     1       8.558   4.758  18.526  0.00  0.00    +0.000 F 
ATOM     28  C   UNL     1       6.392   5.241  19.322  0.00  0.00    +0.000 A 
ATOM     29  C   UNL     1       5.028   5.408  19.069  0.00  0.00    +0.000 A 
ENDBRANCH  22  23
ENDBRANCH  20  22
ENDBRANCH   1  19
TORSDOF 3
ENDMDL
MODEL 8
REMARK VINA RESULT:      -8.3      2.593      3.448
REMARK  Name = 
REMARK  3 active torsions:
REMARK  status: ('A' for Active; 'I' for Inactive)
REMARK    1  A    between atoms: C_2  and  C_12
REMARK    2  A    between atoms: N_3  and  C_4
REMARK    3  A    between atoms: C_4  and  C_5
REMARK                            x       y       z     vdW  Elec       q    Type
REMARK                         _______ _______ _______ _____ _____    ______ ____
ROOT
ATOM      1  C   UNL     1       0.760   9.745  18.561  0.00  0.00    +0.000 A 
ATOM      2  C   UNL     1      -0.382   9.862  17.762  0.00  0.00    +0.000 A 
ATOM      3  C   UNL     1      -1.504  10.577  18.226  0.00  0.00    +0.000 A 
ATOM      4  C   UNL     1      -1.491  11.205  19.484  0.00  0.00    +0.000 A 
ATOM      5  C   UNL     1      -0.329  11.096  20.236  0.00  0.00    +0.000 A 
ATOM      6  C   UNL     1       0.786  10.378  19.799  0.00  0.00    +0.000 A 
ATOM      7  S   UNL     1      -0.170  11.876  21.778  0.00  0.00    +0.000 S 
ATOM      8  O   UNL     1       0.814  12.926  21.596  0.00  0.00    +0.000 OA
ATOM      9  O   UNL     1       0.021  10.816  22.744  0.00  0.00    +0.000 OA
ATOM     10  C   UNL     1      -1.669  12.656  22.171  0.00  0.00    +0.000 A 
ATOM     11  C   UNL     1      -1.737  13.298  23.414  0.00  0.00    +0.000 A 
ATOM     12  C   UNL     1      -2.900  13.960  23.778  0.00  0.00    +0.000 A 
ATOM     13  C   UNL     1      -3.982  13.972  22.902  0.00  0.00    +0.000 A 
ATOM     14  C   UNL     1      -3.903  13.318  21.663  0.00  0.00    +0.000 A 
ATOM     15  C   UNL     1      -2.734  12.644  21.277  0.00  0.00    +0.000 A 
ATOM     16  C   UNL     1      -2.686  11.958  19.952  0.00  0.00    +0.000 C 
ATOM     17  O   UNL     1      -3.676  12.011  19.220  0.00  0.00    +0.000 OA
ENDROOT
BRANCH   1  19
ATOM     18  O   UNL     1       2.587   9.452  17.120  0.00  0.00    +0.000 OA
ATOM     19  C   UNL     1       1.962   9.019  18.077  0.00  0.00    +0.000 C 
ATOM     20  N   UNL     1       2.307   7.881  18.782  0.00  0.00    +0.000 N 
ATOM     21  H   UNL     1       1.701   7.510  19.500  0.00  0.00    +0.000 HD
BRANCH  20  22
ATOM     22  C   UNL     1       3.470   7.102  18.426  0.00  0.00    +0.000 C 
BRANCH  22  23
ATOM     23  C   UNL     1       3.121   5.662  18.148  0.00  0.00    +0.000 A 
ATOM     24  C   UNL     1       4.110   4.769  17.701  0.00  0.00    +0.000 A 
ATOM     25  C   UNL     1       3.789   3.442  17.412  0.00  0.00    +0.000 A 
ATOM     26  C   UNL     1       2.480   3.006  17.566  0.00  0.00    +0.000 A 
ATOM     27  F   UNL     1       2.168   1.735  17.277  0.00  0.00    +0.000 F 
ATOM     28  C   UNL     1       1.487   3.870  18.010  0.00  0.00    +0.000 A 
ATOM     29  C   UNL     1       1.805   5.200  18.299  0.00  0.00    +0.000 A 
ENDBRANCH  22  23
ENDBRANCH  20  22
ENDBRANCH   1  19
TORSDOF 3
ENDMDL
MODEL 9
REMARK VINA RESULT:      -8.2      3.647      5.251
REMARK  Name = 
REMARK  3 active torsions:
REMARK  status: ('A' for Active; 'I' for Inactive)
REMARK    1  A    between atoms: C_2  and  C_12
REMARK    2  A    between atoms: N_3  and  C_4
REMARK    3  A    between atoms: C_4  and  C_5
REMARK                            x       y       z     vdW  Elec       q    Type
REMARK                         _______ _______ _______ _____ _____    ______ ____
ROOT
ATOM      1  C   UNL     1       0.452  10.323  18.658  0.00  0.00    +0.000 A 
ATOM      2  C   UNL     1       0.509  11.108  19.815  0.00  0.00    +0.000 A 
ATOM      3  C   UNL     1      -0.634  11.798  20.263  0.00  0.00    +0.000 A 
ATOM      4  C   UNL     1      -1.856  11.694  19.576  0.00  0.00    +0.000 A 
ATOM      5  C   UNL     1      -1.885  10.880  18.451  0.00  0.00    +0.000 A 
ATOM      6  C   UNL     1      -0.757  10.202  17.983  0.00  0.00    +0.000 A 
ATOM      7  S   UNL     1      -3.347  10.625  17.552  0.00  0.00    +0.000 S 
ATOM      8  O   UNL     1      -3.715   9.239  17.770  0.00  0.00    +0.000 OA
ATOM      9  O   UNL     1      -3.096  11.144  16.225  0.00  0.00    +0.000 OA
ATOM     10  C   UNL     1      -4.609  11.594  18.245  0.00  0.00    +0.000 A 
ATOM     11  C   UNL     1      -5.856  11.550  17.610  0.00  0.00    +0.000 A 
ATOM     12  C   UNL     1      -6.913  12.283  18.127  0.00  0.00    +0.000 A 
ATOM     13  C   UNL     1      -6.714  13.054  19.270  0.00  0.00    +0.000 A 
ATOM     14  C   UNL     1      -5.457  13.096  19.892  0.00  0.00    +0.000 A 
ATOM     15  C   UNL     1      -4.376  12.359  19.382  0.00  0.00    +0.000 A 
ATOM     16  C   UNL     1      -3.053  12.428  20.069  0.00  0.00    +0.000 C 
ATOM     17  O   UNL     1      -2.944  13.125  21.080  0.00  0.00    +0.000 OA
ENDROOT
BRANCH   1  19
ATOM     18  O   UNL     1       2.472  10.122  17.482  0.00  0.00    +0.000 OA
ATOM     19  C   UNL     1       1.641   9.567  18.187  0.00  0.00    +0.000 C 
ATOM     20  N   UNL     1       1.732   8.255  18.613  0.00  0.00    +0.000 N 
ATOM     21  H   UNL     1       0.970   7.814  19.109  0.00  0.00    +0.000 HD
BRANCH  20  22
ATOM     22  C   UNL     1       2.854   7.423  18.245  0.00  0.00    +0.000 C 
BRANCH  22  23
ATOM     23  C   UNL     1       2.831   6.096  18.960  0.00  0.00    +0.000 A 
ATOM     24  C   UNL     1       2.089   5.945  20.144  0.00  0.00    +0.000 A 
ATOM     25  C   UNL     1       2.086   4.729  20.829  0.00  0.00    +0.000 A 
ATOM     26  C   UNL     1       2.826   3.664  20.334  0.00  0.00    +0.000 A 
ATOM     27  F   UNL     1       2.834   2.499  20.997  0.00  0.00    +0.000 F 
ATOM     28  C   UNL     1       3.564   3.789  19.163  0.00  0.00    +0.000 A 
ATOM     29  C   UNL     1       3.570   5.006  18.476  0.00  0.00    +0.000 A 
ENDBRANCH  22  23
ENDBRANCH  20  22
ENDBRANCH   1  19
TORSDOF 3
ENDMDL
