MODEL 1
REMARK VINA RESULT:      -9.7      0.000      0.000
REMARK  Name = 
REMARK  9 active torsions:
REMARK  status: ('A' for Active; 'I' for Inactive)
REMARK    1  A    between atoms: C_1  and  O_2
REMARK    2  A    between atoms: O_2  and  C_3
REMARK    3  A    between atoms: C_8  and  C_9
REMARK    4  A    between atoms: C_11  and  N_12
REMARK    5  A    between atoms: N_12  and  C_13
REMARK    6  A    between atoms: C_23  and  N_24
REMARK    7  A    between atoms: C_25  and  C_27
REMARK    8  A    between atoms: C_28  and  C_29
REMARK    9  A    between atoms: C_29  and  N_30
REMARK                            x       y       z     vdW  Elec       q    Type
REMARK                         _______ _______ _______ _____ _____    ______ ____
ROOT
ATOM      1  C   UNL     1       6.458   5.373  16.157  0.00  0.00    +0.000 A 
ATOM      2  C   UNL     1       5.748   4.167  16.229  0.00  0.00    +0.000 A 
ATOM      3  C   UNL     1       4.711   3.976  17.127  0.00  0.00    +0.000 A 
ATOM      4  N   UNL     1       4.035   2.826  17.057  0.00  0.00    +0.000 NA
ATOM      5  C   UNL     1       2.985   2.668  17.887  0.00  0.00    +0.000 A 
ATOM      6  C   UNL     1       2.576   3.602  18.827  0.00  0.00    +0.000 A 
ATOM      7  C   UNL     1       3.304   4.795  18.944  0.00  0.00    +0.000 A 
ATOM      8  C   UNL     1       4.397   4.989  18.050  0.00  0.00    +0.000 A 
ATOM      9  C   UNL     1       5.178   6.155  18.031  0.00  0.00    +0.000 A 
ATOM     10  C   UNL     1       6.179   6.387  17.082  0.00  0.00    +0.000 A 
ENDROOT
BRANCH  10  11
ATOM     11  N   UNL     1       6.874   7.623  17.022  0.00  0.00    +0.000 N 
ATOM     12  C   UNL     1       7.901   8.001  17.868  0.00  0.00    +0.000 C 
ATOM     13  O   UNL     1       8.366   7.349  18.797  0.00  0.00    +0.000 OA
ATOM     14  H   UNL     1       6.535   8.269  16.317  0.00  0.00    +0.000 HD
BRANCH  12  15
ATOM     15  C   UNL     1       8.451   9.346  17.584  0.00  0.00    +0.000 C 
ATOM     16  C   UNL     1       8.976  10.042  18.608  0.00  0.00    +0.000 C 
BRANCH  16  17
ATOM     17  C   UNL     1       9.603  11.384  18.458  0.00  0.00    +0.000 C 
BRANCH  17  18
ATOM     18  N   UNL     1      10.673  11.655  19.423  0.00  0.00    +0.000 NA
ATOM     19  C   UNL     1      10.506  12.922  20.174  0.00  0.00    +0.000 C 
ATOM     20  C   UNL     1      10.658  14.184  19.309  0.00  0.00    +0.000 C 
ATOM     21  O   UNL     1      11.904  14.195  18.598  0.00  0.00    +0.000 OA
ATOM     22  C   UNL     1      12.084  13.002  17.827  0.00  0.00    +0.000 C 
ATOM     23  C   UNL     1      11.969  11.743  18.707  0.00  0.00    +0.000 C 
ENDBRANCH  17  18
ENDBRANCH  16  17
ENDBRANCH  12  15
ENDBRANCH  10  11
BRANCH   1  25
ATOM     24  C   UNL     1       7.282   4.819  14.020  0.00  0.00    +0.000 C 
ATOM     25  O   UNL     1       7.426   5.610  15.207  0.00  0.00    +0.000 OA
ENDBRANCH   1  25
BRANCH   6  26
ATOM     26  C   UNL     1       1.371   3.325  19.530  0.00  0.00    +0.000 C 
ATOM     27  N   UNL     1       0.393   3.151  20.140  0.00  0.00    +0.000 NA
ENDBRANCH   6  26
BRANCH   7  28
ATOM     28  N   UNL     1       3.011   5.797  19.910  0.00  0.00    +0.000 N 
ATOM     29  H   UNL     1       3.498   5.682  20.796  0.00  0.00    +0.000 HD
BRANCH  28  30
ATOM     30  C   UNL     1       2.238   6.971  19.838  0.00  0.00    +0.000 A 
ATOM     31  C   UNL     1       2.222   7.790  18.700  0.00  0.00    +0.000 A 
ATOM     32  C   UNL     1       1.583   9.032  18.718  0.00  0.00    +0.000 A 
ATOM     33  C   UNL     1       0.929   9.452  19.869  0.00  0.00    +0.000 A 
ATOM     34  F   UNL     1       0.346  10.661  19.876  0.00  0.00    +0.000 F 
ATOM     35  C   UNL     1       0.882   8.630  20.990  0.00  0.00    +0.000 A 
ATOM     36 CL   UNL     1       0.053   9.134  22.413  0.00  0.00    +0.000 Cl
ATOM     37  C   UNL     1       1.531   7.392  20.975  0.00  0.00    +0.000 A 
ENDBRANCH  28  30
ENDBRANCH   7  28
TORSDOF 8
ENDMDL
MODEL 2
REMARK VINA RESULT:      -9.2      0.953      1.258
REMARK  Name = 
REMARK  9 active torsions:
REMARK  status: ('A' for Active; 'I' for Inactive)
REMARK    1  A    between atoms: C_1  and  O_2
REMARK    2  A    between atoms: O_2  and  C_3
REMARK    3  A    between atoms: C_8  and  C_9
REMARK    4  A    between atoms: C_11  and  N_12
REMARK    5  A    between atoms: N_12  and  C_13
REMARK    6  A    between atoms: C_23  and  N_24
REMARK    7  A    between atoms: C_25  and  C_27
REMARK    8  A    between atoms: C_28  and  C_29
REMARK    9  A    between atoms: C_29  and  N_30
REMARK                            x       y       z     vdW  Elec       q    Type
REMARK                         _______ _______ _______ _____ _____    ______ ____
ROOT
ATOM      1  C   UNL     1       6.286   5.446  16.120  0.00  0.00    +0.000 A 
ATOM      2  C   UNL     1       5.537   4.262  16.165  0.00  0.00    +0.000 A 
ATOM      3  C   UNL     1       4.544   4.056  17.109  0.00  0.00    +0.000 A 
ATOM      4  N   UNL     1       3.823   2.935  17.014  0.00  0.00    +0.000 NA
ATOM      5  C   UNL     1       2.814   2.766  17.891  0.00  0.00    +0.000 A 
ATOM      6  C   UNL     1       2.492   3.658  18.903  0.00  0.00    +0.000 A 
ATOM      7  C   UNL     1       3.268   4.818  19.044  0.00  0.00    +0.000 A 
ATOM      8  C   UNL     1       4.318   5.025  18.102  0.00  0.00    +0.000 A 
ATOM      9  C   UNL     1       5.139   6.164  18.103  0.00  0.00    +0.000 A 
ATOM     10  C   UNL     1       6.095   6.414  17.113  0.00  0.00    +0.000 A 
ENDROOT
BRANCH  10  11
ATOM     11  N   UNL     1       6.831   7.628  17.082  0.00  0.00    +0.000 N 
ATOM     12  C   UNL     1       7.900   7.932  17.904  0.00  0.00    +0.000 C 
ATOM     13  O   UNL     1       8.374   7.224  18.785  0.00  0.00    +0.000 OA
ATOM     14  H   UNL     1       6.489   8.316  16.419  0.00  0.00    +0.000 HD
BRANCH  12  15
ATOM     15  C   UNL     1       8.487   9.269  17.660  0.00  0.00    +0.000 C 
ATOM     16  C   UNL     1       8.945   9.961  18.718  0.00  0.00    +0.000 C 
BRANCH  16  17
ATOM     17  C   UNL     1       9.598  11.294  18.613  0.00  0.00    +0.000 C 
BRANCH  17  18
ATOM     18  N   UNL     1      10.960  11.337  19.155  0.00  0.00    +0.000 NA
ATOM     19  C   UNL     1      11.081  12.077  20.434  0.00  0.00    +0.000 C 
ATOM     20  C   UNL     1      10.843  13.590  20.303  0.00  0.00    +0.000 C 
ATOM     21  O   UNL     1      11.696  14.180  19.312  0.00  0.00    +0.000 OA
ATOM     22  C   UNL     1      11.577  13.515  18.049  0.00  0.00    +0.000 C 
ATOM     23  C   UNL     1      11.856  12.007  18.180  0.00  0.00    +0.000 C 
ENDBRANCH  17  18
ENDBRANCH  16  17
ENDBRANCH  12  15
ENDBRANCH  10  11
BRANCH   1  25
ATOM     24  C   UNL     1       7.098   4.840  13.992  0.00  0.00    +0.000 C 
ATOM     25  O   UNL     1       7.209   5.703  15.131  0.00  0.00    +0.000 OA
ENDBRANCH   1  25
BRANCH   6  26
ATOM     26  C   UNL     1       1.317   3.383  19.656  0.00  0.00    +0.000 C 
ATOM     27  N   UNL     1       0.349   3.103  20.243  0.00  0.00    +0.000 NA
ENDBRANCH   6  26
BRANCH   7  28
ATOM     28  N   UNL     1       3.065   5.773  20.077  0.00  0.00    +0.000 N 
ATOM     29  H   UNL     1       3.608   5.601  20.920  0.00  0.00    +0.000 HD
BRANCH  28  30
ATOM     30  C   UNL     1       2.316   6.964  20.120  0.00  0.00    +0.000 A 
ATOM     31  C   UNL     1       1.453   7.269  21.182  0.00  0.00    +0.000 A 
ATOM     32  C   UNL     1       0.598   8.372  21.118  0.00  0.00    +0.000 A 
ATOM     33  C   UNL     1       0.619   9.195  19.999  0.00  0.00    +0.000 A 
ATOM     34  F   UNL     1      -0.231  10.231  19.944  0.00  0.00    +0.000 F 
ATOM     35  C   UNL     1       1.508   8.944  18.959  0.00  0.00    +0.000 A 
ATOM     36 CL   UNL     1       1.557   9.973  17.579  0.00  0.00    +0.000 Cl
ATOM     37  C   UNL     1       2.356   7.834  19.019  0.00  0.00    +0.000 A 
ENDBRANCH  28  30
ENDBRANCH   7  28
TORSDOF 8
ENDMDL
MODEL 3
REMARK VINA RESULT:      -7.6      1.368      1.705
REMARK  Name = 
REMARK  9 active torsions:
REMARK  status: ('A' for Active; 'I' for Inactive)
REMARK    1  A    between atoms: C_1  and  O_2
REMARK    2  A    between atoms: O_2  and  C_3
REMARK    3  A    between atoms: C_8  and  C_9
REMARK    4  A    between atoms: C_11  and  N_12
REMARK    5  A    between atoms: N_12  and  C_13
REMARK    6  A    between atoms: C_23  and  N_24
REMARK    7  A    between atoms: C_25  and  C_27
REMARK    8  A    between atoms: C_28  and  C_29
REMARK    9  A    between atoms: C_29  and  N_30
REMARK                            x       y       z     vdW  Elec       q    Type
REMARK                         _______ _______ _______ _____ _____    ______ ____
ROOT
ATOM      1  C   UNL     1       6.668   4.471  16.671  0.00  0.00    +0.000 A 
ATOM      2  C   UNL     1       5.699   3.470  16.528  0.00  0.00    +0.000 A 
ATOM      3  C   UNL     1       4.556   3.434  17.311  0.00  0.00    +0.000 A 
ATOM      4  N   UNL     1       3.647   2.494  17.038  0.00  0.00    +0.000 NA
ATOM      5  C   UNL     1       2.507   2.501  17.757  0.00  0.00    +0.000 A 
ATOM      6  C   UNL     1       2.225   3.396  18.778  0.00  0.00    +0.000 A 
ATOM      7  C   UNL     1       3.188   4.360  19.107  0.00  0.00    +0.000 A 
ATOM      8  C   UNL     1       4.385   4.385  18.333  0.00  0.00    +0.000 A 
ATOM      9  C   UNL     1       5.409   5.326  18.527  0.00  0.00    +0.000 A 
ATOM     10  C   UNL     1       6.530   5.415  17.697  0.00  0.00    +0.000 A 
ENDROOT
BRANCH  10  11
ATOM     11  N   UNL     1       7.491   6.448  17.854  0.00  0.00    +0.000 N 
ATOM     12  C   UNL     1       7.304   7.770  17.495  0.00  0.00    +0.000 C 
ATOM     13  O   UNL     1       6.303   8.258  16.983  0.00  0.00    +0.000 OA
ATOM     14  H   UNL     1       8.386   6.145  18.225  0.00  0.00    +0.000 HD
BRANCH  12  15
ATOM     15  C   UNL     1       8.471   8.640  17.770  0.00  0.00    +0.000 C 
ATOM     16  C   UNL     1       8.243   9.944  18.008  0.00  0.00    +0.000 C 
BRANCH  16  17
ATOM     17  C   UNL     1       9.316  10.920  18.342  0.00  0.00    +0.000 C 
BRANCH  17  18
ATOM     18  N   UNL     1       8.901  11.967  19.283  0.00  0.00    +0.000 NA
ATOM     19  C   UNL     1       9.184  13.345  18.820  0.00  0.00    +0.000 C 
ATOM     20  C   UNL     1      10.682  13.685  18.754  0.00  0.00    +0.000 C 
ATOM     21  O   UNL     1      11.340  13.442  20.005  0.00  0.00    +0.000 OA
ATOM     22  C   UNL     1      11.122  12.103  20.466  0.00  0.00    +0.000 C 
ATOM     23  C   UNL     1       9.619  11.783  20.568  0.00  0.00    +0.000 C 
ENDBRANCH  17  18
ENDBRANCH  16  17
ENDBRANCH  12  15
ENDBRANCH  10  11
BRANCH   1  25
ATOM     24  C   UNL     1       7.431   4.940  14.491  0.00  0.00    +0.000 C 
ATOM     25  O   UNL     1       7.759   4.573  15.837  0.00  0.00    +0.000 OA
ENDBRANCH   1  25
BRANCH   6  26
ATOM     26  C   UNL     1       0.921   3.340  19.344  0.00  0.00    +0.000 C 
ATOM     27  N   UNL     1      -0.170   3.315  19.753  0.00  0.00    +0.000 NA
ENDBRANCH   6  26
BRANCH   7  28
ATOM     28  N   UNL     1       3.031   5.291  20.170  0.00  0.00    +0.000 N 
ATOM     29  H   UNL     1       3.494   5.022  21.035  0.00  0.00    +0.000 HD
BRANCH  28  30
ATOM     30  C   UNL     1       2.425   6.561  20.223  0.00  0.00    +0.000 A 
ATOM     31  C   UNL     1       1.656   6.979  21.319  0.00  0.00    +0.000 A 
ATOM     32  C   UNL     1       0.929   8.171  21.272  0.00  0.00    +0.000 A 
ATOM     33  C   UNL     1       0.990   8.970  20.138  0.00  0.00    +0.000 A 
ATOM     34  F   UNL     1       0.262  10.096  20.101  0.00  0.00    +0.000 F 
ATOM     35  C   UNL     1       1.793   8.603  19.063  0.00  0.00    +0.000 A 
ATOM     36 CL   UNL     1       1.892   9.600  17.661  0.00  0.00    +0.000 Cl
ATOM     37  C   UNL     1       2.511   7.404  19.105  0.00  0.00    +0.000 A 
ENDBRANCH  28  30
ENDBRANCH   7  28
TORSDOF 8
ENDMDL
MODEL 4
REMARK VINA RESULT:      -7.4      5.148      7.113
REMARK  Name = 
REMARK  9 active torsions:
REMARK  status: ('A' for Active; 'I' for Inactive)
REMARK    1  A    between atoms: C_1  and  O_2
REMARK    2  A    between atoms: O_2  and  C_3
REMARK    3  A    between atoms: C_8  and  C_9
REMARK    4  A    between atoms: C_11  and  N_12
REMARK    5  A    between atoms: N_12  and  C_13
REMARK    6  A    between atoms: C_23  and  N_24
REMARK    7  A    between atoms: C_25  and  C_27
REMARK    8  A    between atoms: C_28  and  C_29
REMARK    9  A    between atoms: C_29  and  N_30
REMARK                            x       y       z     vdW  Elec       q    Type
REMARK                         _______ _______ _______ _____ _____    ______ ____
ROOT
ATOM      1  C   UNL     1       1.585   7.902  20.682  0.00  0.00    +0.000 A 
ATOM      2  C   UNL     1       1.469   6.613  21.219  0.00  0.00    +0.000 A 
ATOM      3  C   UNL     1       1.876   5.486  20.524  0.00  0.00    +0.000 A 
ATOM      4  N   UNL     1       1.810   4.311  21.157  0.00  0.00    +0.000 NA
ATOM      5  C   UNL     1       2.269   3.225  20.504  0.00  0.00    +0.000 A 
ATOM      6  C   UNL     1       2.775   3.237  19.213  0.00  0.00    +0.000 A 
ATOM      7  C   UNL     1       2.809   4.455  18.519  0.00  0.00    +0.000 A 
ATOM      8  C   UNL     1       2.358   5.618  19.210  0.00  0.00    +0.000 A 
ATOM      9  C   UNL     1       2.380   6.904  18.649  0.00  0.00    +0.000 A 
ATOM     10  C   UNL     1       2.039   8.055  19.366  0.00  0.00    +0.000 A 
ENDROOT
BRANCH  10  11
ATOM     11  N   UNL     1       2.180   9.350  18.803  0.00  0.00    +0.000 N 
ATOM     12  C   UNL     1       1.139  10.136  18.341  0.00  0.00    +0.000 C 
ATOM     13  O   UNL     1      -0.052   9.846  18.333  0.00  0.00    +0.000 OA
ATOM     14  H   UNL     1       3.138   9.674  18.711  0.00  0.00    +0.000 HD
BRANCH  12  15
ATOM     15  C   UNL     1       1.566  11.446  17.802  0.00  0.00    +0.000 C 
ATOM     16  C   UNL     1       2.237  12.277  18.619  0.00  0.00    +0.000 C 
BRANCH  16  17
ATOM     17  C   UNL     1       2.764  13.603  18.196  0.00  0.00    +0.000 C 
BRANCH  17  18
ATOM     18  N   UNL     1       2.527  14.678  19.165  0.00  0.00    +0.000 NA
ATOM     19  C   UNL     1       1.928  15.901  18.581  0.00  0.00    +0.000 C 
ATOM     20  C   UNL     1       2.866  16.660  17.628  0.00  0.00    +0.000 C 
ATOM     21  O   UNL     1       4.117  16.978  18.253  0.00  0.00    +0.000 OA
ATOM     22  C   UNL     1       4.747  15.812  18.797  0.00  0.00    +0.000 C 
ATOM     23  C   UNL     1       3.816  15.078  19.780  0.00  0.00    +0.000 C 
ENDBRANCH  17  18
ENDBRANCH  16  17
ENDBRANCH  12  15
ENDBRANCH  10  11
BRANCH   1  25
ATOM     24  C   UNL     1      -0.088   9.087  21.842  0.00  0.00    +0.000 C 
ATOM     25  O   UNL     1       1.273   9.036  21.397  0.00  0.00    +0.000 OA
ENDBRANCH   1  25
BRANCH   6  26
ATOM     26  C   UNL     1       3.332   2.022  18.727  0.00  0.00    +0.000 C 
ATOM     27  N   UNL     1       3.822   1.059  18.287  0.00  0.00    +0.000 NA
ENDBRANCH   6  26
BRANCH   7  28
ATOM     28  N   UNL     1       3.254   4.576  17.175  0.00  0.00    +0.000 N 
ATOM     29  H   UNL     1       2.507   4.686  16.493  0.00  0.00    +0.000 HD
BRANCH  28  30
ATOM     30  C   UNL     1       4.544   4.661  16.617  0.00  0.00    +0.000 A 
ATOM     31  C   UNL     1       5.582   5.374  17.235  0.00  0.00    +0.000 A 
ATOM     32  C   UNL     1       6.798   5.583  16.580  0.00  0.00    +0.000 A 
ATOM     33  C   UNL     1       6.995   5.054  15.310  0.00  0.00    +0.000 A 
ATOM     34  F   UNL     1       8.158   5.291  14.686  0.00  0.00    +0.000 F 
ATOM     35  C   UNL     1       6.001   4.295  14.703  0.00  0.00    +0.000 A 
ATOM     36 CL   UNL     1       6.246   3.616  13.139  0.00  0.00    +0.000 Cl
ATOM     37  C   UNL     1       4.780   4.095  15.355  0.00  0.00    +0.000 A 
ENDBRANCH  28  30
ENDBRANCH   7  28
TORSDOF 8
ENDMDL
MODEL 5
REMARK VINA RESULT:      -7.4      4.296      8.221
REMARK  Name = 
REMARK  9 active torsions:
REMARK  status: ('A' for Active; 'I' for Inactive)
REMARK    1  A    between atoms: C_1  and  O_2
REMARK    2  A    between atoms: O_2  and  C_3
REMARK    3  A    between atoms: C_8  and  C_9
REMARK    4  A    between atoms: C_11  and  N_12
REMARK    5  A    between atoms: N_12  and  C_13
REMARK    6  A    between atoms: C_23  and  N_24
REMARK    7  A    between atoms: C_25  and  C_27
REMARK    8  A    between atoms: C_28  and  C_29
REMARK    9  A    between atoms: C_29  and  N_30
REMARK                            x       y       z     vdW  Elec       q    Type
REMARK                         _______ _______ _______ _____ _____    ______ ____
ROOT
ATOM      1  C   UNL     1       2.133   4.667  19.516  0.00  0.00    +0.000 A 
ATOM      2  C   UNL     1       2.634   3.807  18.530  0.00  0.00    +0.000 A 
ATOM      3  C   UNL     1       3.641   4.192  17.660  0.00  0.00    +0.000 A 
ATOM      4  N   UNL     1       4.116   3.272  16.816  0.00  0.00    +0.000 NA
ATOM      5  C   UNL     1       5.140   3.628  16.016  0.00  0.00    +0.000 A 
ATOM      6  C   UNL     1       5.716   4.889  15.988  0.00  0.00    +0.000 A 
ATOM      7  C   UNL     1       5.199   5.879  16.836  0.00  0.00    +0.000 A 
ATOM      8  C   UNL     1       4.137   5.506  17.711  0.00  0.00    +0.000 A 
ATOM      9  C   UNL     1       3.560   6.387  18.640  0.00  0.00    +0.000 A 
ATOM     10  C   UNL     1       2.594   5.988  19.569  0.00  0.00    +0.000 A 
ENDROOT
BRANCH  10  11
ATOM     11  N   UNL     1       2.113   6.875  20.568  0.00  0.00    +0.000 N 
ATOM     12  C   UNL     1       1.630   8.150  20.335  0.00  0.00    +0.000 C 
ATOM     13  O   UNL     1       1.548   8.718  19.251  0.00  0.00    +0.000 OA
ATOM     14  H   UNL     1       2.184   6.526  21.518  0.00  0.00    +0.000 HD
BRANCH  12  15
ATOM     15  C   UNL     1       1.192   8.861  21.557  0.00  0.00    +0.000 C 
ATOM     16  C   UNL     1       0.063   9.589  21.493  0.00  0.00    +0.000 C 
BRANCH  16  17
ATOM     17  C   UNL     1      -0.517  10.316  22.655  0.00  0.00    +0.000 C 
BRANCH  17  18
ATOM     18  N   UNL     1      -0.358  11.773  22.589  0.00  0.00    +0.000 NA
ATOM     19  C   UNL     1      -1.415  12.531  23.298  0.00  0.00    +0.000 C 
ATOM     20  C   UNL     1      -2.802  12.427  22.643  0.00  0.00    +0.000 C 
ATOM     21  O   UNL     1      -2.769  12.807  21.260  0.00  0.00    +0.000 OA
ATOM     22  C   UNL     1      -1.784  12.065  20.531  0.00  0.00    +0.000 C 
ATOM     23  C   UNL     1      -0.390  12.206  21.170  0.00  0.00    +0.000 C 
ENDBRANCH  17  18
ENDBRANCH  16  17
ENDBRANCH  12  15
ENDBRANCH  10  11
BRANCH   1  25
ATOM     24  C   UNL     1       1.636   3.185  21.280  0.00  0.00    +0.000 C 
ATOM     25  O   UNL     1       1.201   4.267  20.446  0.00  0.00    +0.000 OA
ENDBRANCH   1  25
BRANCH   6  26
ATOM     26  C   UNL     1       6.871   5.053  15.175  0.00  0.00    +0.000 C 
ATOM     27  N   UNL     1       7.849   5.150  14.547  0.00  0.00    +0.000 NA
ENDBRANCH   6  26
BRANCH   7  28
ATOM     28  N   UNL     1       5.673   7.219  16.852  0.00  0.00    +0.000 N 
ATOM     29  H   UNL     1       5.049   7.890  16.409  0.00  0.00    +0.000 HD
BRANCH  28  30
ATOM     30  C   UNL     1       6.807   7.807  17.444  0.00  0.00    +0.000 A 
ATOM     31  C   UNL     1       7.655   7.096  18.305  0.00  0.00    +0.000 A 
ATOM     32  C   UNL     1       8.671   7.747  19.010  0.00  0.00    +0.000 A 
ATOM     33  C   UNL     1       8.863   9.112  18.837  0.00  0.00    +0.000 A 
ATOM     34  F   UNL     1       9.824   9.724  19.545  0.00  0.00    +0.000 F 
ATOM     35  C   UNL     1       8.070   9.825  17.944  0.00  0.00    +0.000 A 
ATOM     36 CL   UNL     1       8.317  11.513  17.707  0.00  0.00    +0.000 Cl
ATOM     37  C   UNL     1       7.047   9.175  17.248  0.00  0.00    +0.000 A 
ENDBRANCH  28  30
ENDBRANCH   7  28
TORSDOF 8
ENDMDL
MODEL 6
REMARK VINA RESULT:      -7.4      5.588      9.384
REMARK  Name = 
REMARK  9 active torsions:
REMARK  status: ('A' for Active; 'I' for Inactive)
REMARK    1  A    between atoms: C_1  and  O_2
REMARK    2  A    between atoms: O_2  and  C_3
REMARK    3  A    between atoms: C_8  and  C_9
REMARK    4  A    between atoms: C_11  and  N_12
REMARK    5  A    between atoms: N_12  and  C_13
REMARK    6  A    between atoms: C_23  and  N_24
REMARK    7  A    between atoms: C_25  and  C_27
REMARK    8  A    between atoms: C_28  and  C_29
REMARK    9  A    between atoms: C_29  and  N_30
REMARK                            x       y       z     vdW  Elec       q    Type
REMARK                         _______ _______ _______ _____ _____    ______ ____
ROOT
ATOM      1  C   UNL     1      -0.973  10.560  18.288  0.00  0.00    +0.000 A 
ATOM      2  C   UNL     1      -1.872  11.402  18.955  0.00  0.00    +0.000 A 
ATOM      3  C   UNL     1      -1.445  12.450  19.754  0.00  0.00    +0.000 A 
ATOM      4  N   UNL     1      -2.378  13.253  20.274  0.00  0.00    +0.000 NA
ATOM      5  C   UNL     1      -1.958  14.311  20.996  0.00  0.00    +0.000 A 
ATOM      6  C   UNL     1      -0.630  14.606  21.262  0.00  0.00    +0.000 A 
ATOM      7  C   UNL     1       0.359  13.747  20.762  0.00  0.00    +0.000 A 
ATOM      8  C   UNL     1      -0.069  12.643  19.968  0.00  0.00    +0.000 A 
ATOM      9  C   UNL     1       0.819  11.734  19.370  0.00  0.00    +0.000 A 
ATOM     10  C   UNL     1       0.401  10.718  18.505  0.00  0.00    +0.000 A 
ENDROOT
BRANCH  10  11
ATOM     11  N   UNL     1       1.334   9.887  17.831  0.00  0.00    +0.000 N 
ATOM     12  C   UNL     1       1.931   8.761  18.367  0.00  0.00    +0.000 C 
ATOM     13  O   UNL     1       1.765   8.308  19.494  0.00  0.00    +0.000 OA
ATOM     14  H   UNL     1       1.588  10.201  16.899  0.00  0.00    +0.000 HD
BRANCH  12  15
ATOM     15  C   UNL     1       2.867   8.078  17.445  0.00  0.00    +0.000 C 
ATOM     16  C   UNL     1       3.567   7.032  17.918  0.00  0.00    +0.000 C 
BRANCH  16  17
ATOM     17  C   UNL     1       4.507   6.227  17.091  0.00  0.00    +0.000 C 
BRANCH  17  18
ATOM     18  N   UNL     1       4.888   4.946  17.694  0.00  0.00    +0.000 NA
ATOM     19  C   UNL     1       5.968   5.048  18.704  0.00  0.00    +0.000 C 
ATOM     20  C   UNL     1       7.335   5.435  18.117  0.00  0.00    +0.000 C 
ATOM     21  O   UNL     1       7.732   4.549  17.061  0.00  0.00    +0.000 OA
ATOM     22  C   UNL     1       6.728   4.455  16.044  0.00  0.00    +0.000 C 
ATOM     23  C   UNL     1       5.371   4.028  16.633  0.00  0.00    +0.000 C 
ENDBRANCH  17  18
ENDBRANCH  16  17
ENDBRANCH  12  15
ENDBRANCH  10  11
BRANCH   1  25
ATOM     24  C   UNL     1      -2.369  10.010  16.471  0.00  0.00    +0.000 C 
ATOM     25  O   UNL     1      -1.383   9.576  17.417  0.00  0.00    +0.000 OA
ENDBRANCH   1  25
BRANCH   6  26
ATOM     26  C   UNL     1      -0.363  15.832  21.933  0.00  0.00    +0.000 C 
ATOM     27  N   UNL     1      -0.084  16.821  22.483  0.00  0.00    +0.000 NA
ENDBRANCH   6  26
BRANCH   7  28
ATOM     28  N   UNL     1       1.746  13.920  21.019  0.00  0.00    +0.000 N 
ATOM     29  H   UNL     1       2.098  13.383  21.808  0.00  0.00    +0.000 HD
BRANCH  28  30
ATOM     30  C   UNL     1       2.747  14.630  20.328  0.00  0.00    +0.000 A 
ATOM     31  C   UNL     1       4.050  14.767  20.829  0.00  0.00    +0.000 A 
ATOM     32  C   UNL     1       4.971  15.615  20.210  0.00  0.00    +0.000 A 
ATOM     33  C   UNL     1       4.603  16.314  19.067  0.00  0.00    +0.000 A 
ATOM     34  F   UNL     1       5.492  17.147  18.505  0.00  0.00    +0.000 F 
ATOM     35  C   UNL     1       3.335  16.149  18.521  0.00  0.00    +0.000 A 
ATOM     36 CL   UNL     1       2.879  16.994  17.091  0.00  0.00    +0.000 Cl
ATOM     37  C   UNL     1       2.410  15.308  19.147  0.00  0.00    +0.000 A 
ENDBRANCH  28  30
ENDBRANCH   7  28
TORSDOF 8
ENDMDL
MODEL 7
REMARK VINA RESULT:      -7.3      5.619     10.361
REMARK  Name = 
REMARK  9 active torsions:
REMARK  status: ('A' for Active; 'I' for Inactive)
REMARK    1  A    between atoms: C_1  and  O_2
REMARK    2  A    between atoms: O_2  and  C_3
REMARK    3  A    between atoms: C_8  and  C_9
REMARK    4  A    between atoms: C_11  and  N_12
REMARK    5  A    between atoms: N_12  and  C_13
REMARK    6  A    between atoms: C_23  and  N_24
REMARK    7  A    between atoms: C_25  and  C_27
REMARK    8  A    between atoms: C_28  and  C_29
REMARK    9  A    between atoms: C_29  and  N_30
REMARK                            x       y       z     vdW  Elec       q    Type
REMARK                         _______ _______ _______ _____ _____    ______ ____
ROOT
ATOM      1  C   UNL     1      -0.620  11.211  18.886  0.00  0.00    +0.000 A 
ATOM      2  C   UNL     1      -1.092  12.525  18.763  0.00  0.00    +0.000 A 
ATOM      3  C   UNL     1      -0.282  13.623  19.001  0.00  0.00    +0.000 A 
ATOM      4  N   UNL     1      -0.795  14.834  18.768  0.00  0.00    +0.000 NA
ATOM      5  C   UNL     1       0.014  15.898  18.936  0.00  0.00    +0.000 A 
ATOM      6  C   UNL     1       1.331  15.826  19.363  0.00  0.00    +0.000 A 
ATOM      7  C   UNL     1       1.872  14.566  19.656  0.00  0.00    +0.000 A 
ATOM      8  C   UNL     1       1.036  13.429  19.450  0.00  0.00    +0.000 A 
ATOM      9  C   UNL     1       1.467  12.109  19.661  0.00  0.00    +0.000 A 
ATOM     10  C   UNL     1       0.681  10.993  19.355  0.00  0.00    +0.000 A 
ENDROOT
BRANCH  10  11
ATOM     11  N   UNL     1       1.188   9.673  19.476  0.00  0.00    +0.000 N 
ATOM     12  C   UNL     1       1.856   8.982  18.482  0.00  0.00    +0.000 C 
ATOM     13  O   UNL     1       2.108   9.382  17.351  0.00  0.00    +0.000 OA
ATOM     14  H   UNL     1       0.989   9.219  20.362  0.00  0.00    +0.000 HD
BRANCH  12  15
ATOM     15  C   UNL     1       2.278   7.618  18.874  0.00  0.00    +0.000 C 
ATOM     16  C   UNL     1       3.064   6.932  18.026  0.00  0.00    +0.000 C 
BRANCH  16  17
ATOM     17  C   UNL     1       3.598   5.572  18.312  0.00  0.00    +0.000 C 
BRANCH  17  18
ATOM     18  N   UNL     1       3.020   4.514  17.477  0.00  0.00    +0.000 NA
ATOM     19  C   UNL     1       1.614   4.181  17.806  0.00  0.00    +0.000 C 
ATOM     20  C   UNL     1       1.437   3.508  19.176  0.00  0.00    +0.000 C 
ATOM     21  O   UNL     1       2.261   2.341  19.307  0.00  0.00    +0.000 OA
ATOM     22  C   UNL     1       3.637   2.632  19.035  0.00  0.00    +0.000 C 
ATOM     23  C   UNL     1       3.811   3.270  17.645  0.00  0.00    +0.000 C 
ENDBRANCH  17  18
ENDBRANCH  16  17
ENDBRANCH  12  15
ENDBRANCH  10  11
BRANCH   1  25
ATOM     24  C   UNL     1      -1.886  10.130  17.219  0.00  0.00    +0.000 C 
ATOM     25  O   UNL     1      -1.385  10.114  18.561  0.00  0.00    +0.000 OA
ENDBRANCH   1  25
BRANCH   6  26
ATOM     26  C   UNL     1       2.077  17.038  19.363  0.00  0.00    +0.000 C 
ATOM     27  N   UNL     1       2.636  18.061  19.347  0.00  0.00    +0.000 NA
ENDBRANCH   6  26
BRANCH   7  28
ATOM     28  N   UNL     1       3.190  14.377  20.153  0.00  0.00    +0.000 N 
ATOM     29  H   UNL     1       3.239  13.856  21.026  0.00  0.00    +0.000 HD
BRANCH  28  30
ATOM     30  C   UNL     1       4.450  14.702  19.617  0.00  0.00    +0.000 A 
ATOM     31  C   UNL     1       4.740  14.570  18.251  0.00  0.00    +0.000 A 
ATOM     32  C   UNL     1       6.043  14.736  17.775  0.00  0.00    +0.000 A 
ATOM     33  C   UNL     1       7.062  15.064  18.660  0.00  0.00    +0.000 A 
ATOM     34  F   UNL     1       8.312  15.190  18.187  0.00  0.00    +0.000 F 
ATOM     35  C   UNL     1       6.786  15.257  20.009  0.00  0.00    +0.000 A 
ATOM     36 CL   UNL     1       8.041  15.686  21.109  0.00  0.00    +0.000 Cl
ATOM     37  C   UNL     1       5.485  15.079  20.487  0.00  0.00    +0.000 A 
ENDBRANCH  28  30
ENDBRANCH   7  28
TORSDOF 8
ENDMDL
MODEL 8
REMARK VINA RESULT:      -7.2      5.811     10.541
REMARK  Name = 
REMARK  9 active torsions:
REMARK  status: ('A' for Active; 'I' for Inactive)
REMARK    1  A    between atoms: C_1  and  O_2
REMARK    2  A    between atoms: O_2  and  C_3
REMARK    3  A    between atoms: C_8  and  C_9
REMARK    4  A    between atoms: C_11  and  N_12
REMARK    5  A    between atoms: N_12  and  C_13
REMARK    6  A    between atoms: C_23  and  N_24
REMARK    7  A    between atoms: C_25  and  C_27
REMARK    8  A    between atoms: C_28  and  C_29
REMARK    9  A    between atoms: C_29  and  N_30
REMARK                            x       y       z     vdW  Elec       q    Type
REMARK                         _______ _______ _______ _____ _____    ______ ____
ROOT
ATOM      1  C   UNL     1      -0.644  11.285  18.958  0.00  0.00    +0.000 A 
ATOM      2  C   UNL     1      -1.159  12.496  19.438  0.00  0.00    +0.000 A 
ATOM      3  C   UNL     1      -0.448  13.682  19.355  0.00  0.00    +0.000 A 
ATOM      4  N   UNL     1      -1.059  14.801  19.755  0.00  0.00    +0.000 NA
ATOM      5  C   UNL     1      -0.391  15.962  19.613  0.00  0.00    +0.000 A 
ATOM      6  C   UNL     1       0.896  16.074  19.108  0.00  0.00    +0.000 A 
ATOM      7  C   UNL     1       1.568  14.905  18.726  0.00  0.00    +0.000 A 
ATOM      8  C   UNL     1       0.861  13.672  18.841  0.00  0.00    +0.000 A 
ATOM      9  C   UNL     1       1.400  12.436  18.451  0.00  0.00    +0.000 A 
ATOM     10  C   UNL     1       0.665  11.246  18.464  0.00  0.00    +0.000 A 
ENDROOT
BRANCH  10  11
ATOM     11  N   UNL     1       1.205  10.035  17.959  0.00  0.00    +0.000 N 
ATOM     12  C   UNL     1       1.635   8.970  18.731  0.00  0.00    +0.000 C 
ATOM     13  O   UNL     1       1.629   8.902  19.955  0.00  0.00    +0.000 OA
ATOM     14  H   UNL     1       1.306  10.001  16.949  0.00  0.00    +0.000 HD
BRANCH  12  15
ATOM     15  C   UNL     1       2.155   7.828  17.947  0.00  0.00    +0.000 C 
ATOM     16  C   UNL     1       2.559   6.734  18.617  0.00  0.00    +0.000 C 
BRANCH  16  17
ATOM     17  C   UNL     1       3.061   5.499  17.955  0.00  0.00    +0.000 C 
BRANCH  17  18
ATOM     18  N   UNL     1       2.057   4.437  17.832  0.00  0.00    +0.000 NA
ATOM     19  C   UNL     1       1.482   3.992  19.123  0.00  0.00    +0.000 C 
ATOM     20  C   UNL     1       2.481   3.253  20.028  0.00  0.00    +0.000 C 
ATOM     21  O   UNL     1       3.090   2.143  19.354  0.00  0.00    +0.000 OA
ATOM     22  C   UNL     1       3.694   2.542  18.117  0.00  0.00    +0.000 C 
ATOM     23  C   UNL     1       2.678   3.247  17.200  0.00  0.00    +0.000 C 
ENDBRANCH  17  18
ENDBRANCH  16  17
ENDBRANCH  12  15
ENDBRANCH  10  11
BRANCH   1  25
ATOM     24  C   UNL     1      -2.396  10.081  17.940  0.00  0.00    +0.000 C 
ATOM     25  O   UNL     1      -1.377  10.119  18.947  0.00  0.00    +0.000 OA
ENDBRANCH   1  25
BRANCH   6  26
ATOM     26  C   UNL     1       1.399  17.390  18.909  0.00  0.00    +0.000 C 
ATOM     27  N   UNL     1       1.820  18.454  18.685  0.00  0.00    +0.000 NA
ENDBRANCH   6  26
BRANCH   7  28
ATOM     28  N   UNL     1       2.907  14.894  18.249  0.00  0.00    +0.000 N 
ATOM     29  H   UNL     1       2.995  14.995  17.240  0.00  0.00    +0.000 HD
BRANCH  28  30
ATOM     30  C   UNL     1       4.143  14.858  18.922  0.00  0.00    +0.000 A 
ATOM     31  C   UNL     1       4.233  14.825  20.321  0.00  0.00    +0.000 A 
ATOM     32  C   UNL     1       5.465  14.961  20.965  0.00  0.00    +0.000 A 
ATOM     33  C   UNL     1       6.623  15.103  20.210  0.00  0.00    +0.000 A 
ATOM     34  F   UNL     1       7.793  15.262  20.847  0.00  0.00    +0.000 F 
ATOM     35  C   UNL     1       6.564  15.080  18.821  0.00  0.00    +0.000 A 
ATOM     36 CL   UNL     1       7.997  15.232  17.878  0.00  0.00    +0.000 Cl
ATOM     37  C   UNL     1       5.329  14.955  18.178  0.00  0.00    +0.000 A 
ENDBRANCH  28  30
ENDBRANCH   7  28
TORSDOF 8
ENDMDL
MODEL 9
REMARK VINA RESULT:      -7.2      5.583      9.392
REMARK  Name = 
REMARK  9 active torsions:
REMARK  status: ('A' for Active; 'I' for Inactive)
REMARK    1  A    between atoms: C_1  and  O_2
REMARK    2  A    between atoms: O_2  and  C_3
REMARK    3  A    between atoms: C_8  and  C_9
REMARK    4  A    between atoms: C_11  and  N_12
REMARK    5  A    between atoms: N_12  and  C_13
REMARK    6  A    between atoms: C_23  and  N_24
REMARK    7  A    between atoms: C_25  and  C_27
REMARK    8  A    between atoms: C_28  and  C_29
REMARK    9  A    between atoms: C_29  and  N_30
REMARK                            x       y       z     vdW  Elec       q    Type
REMARK                         _______ _______ _______ _____ _____    ______ ____
ROOT
ATOM      1  C   UNL     1      -2.091  10.381  17.499  0.00  0.00    +0.000 A 
ATOM      2  C   UNL     1      -3.223  11.042  17.993  0.00  0.00    +0.000 A 
ATOM      3  C   UNL     1      -3.171  11.852  19.116  0.00  0.00    +0.000 A 
ATOM      4  N   UNL     1      -4.281  12.512  19.456  0.00  0.00    +0.000 NA
ATOM      5  C   UNL     1      -4.211  13.350  20.509  0.00  0.00    +0.000 A 
ATOM      6  C   UNL     1      -3.078  13.552  21.282  0.00  0.00    +0.000 A 
ATOM      7  C   UNL     1      -1.917  12.832  20.966  0.00  0.00    +0.000 A 
ATOM      8  C   UNL     1      -1.967  11.966  19.834  0.00  0.00    +0.000 A 
ATOM      9  C   UNL     1      -0.864  11.224  19.383  0.00  0.00    +0.000 A 
ATOM     10  C   UNL     1      -0.887  10.461  18.211  0.00  0.00    +0.000 A 
ENDROOT
BRANCH  10  11
ATOM     11  N   UNL     1       0.278   9.813  17.724  0.00  0.00    +0.000 N 
ATOM     12  C   UNL     1       1.238   9.203  18.511  0.00  0.00    +0.000 C 
ATOM     13  O   UNL     1       1.248   9.132  19.735  0.00  0.00    +0.000 OA
ATOM     14  H   UNL     1       0.401   9.856  16.717  0.00  0.00    +0.000 HD
BRANCH  12  15
ATOM     15  C   UNL     1       2.353   8.601  17.745  0.00  0.00    +0.000 C 
ATOM     16  C   UNL     1       2.828   7.411  18.152  0.00  0.00    +0.000 C 
BRANCH  16  17
ATOM     17  C   UNL     1       3.912   6.672  17.451  0.00  0.00    +0.000 C 
BRANCH  17  18
ATOM     18  N   UNL     1       3.924   5.230  17.718  0.00  0.00    +0.000 NA
ATOM     19  C   UNL     1       4.406   4.868  19.072  0.00  0.00    +0.000 C 
ATOM     20  C   UNL     1       5.900   5.150  19.298  0.00  0.00    +0.000 C 
ATOM     21  O   UNL     1       6.718   4.521  18.302  0.00  0.00    +0.000 OA
ATOM     22  C   UNL     1       6.307   4.880  16.977  0.00  0.00    +0.000 C 
ATOM     23  C   UNL     1       4.819   4.558  16.745  0.00  0.00    +0.000 C 
ENDBRANCH  17  18
ENDBRANCH  16  17
ENDBRANCH  12  15
ENDBRANCH  10  11
BRANCH   1  25
ATOM     24  C   UNL     1      -2.850  10.266  15.271  0.00  0.00    +0.000 C 
ATOM     25  O   UNL     1      -2.107   9.652  16.332  0.00  0.00    +0.000 OA
ENDBRANCH   1  25
BRANCH   6  26
ATOM     26  C   UNL     1      -3.146  14.567  22.275  0.00  0.00    +0.000 C 
ATOM     27  N   UNL     1      -3.263  15.404  23.079  0.00  0.00    +0.000 NA
ENDBRANCH   6  26
BRANCH   7  28
ATOM     28  N   UNL     1      -0.715  12.916  21.721  0.00  0.00    +0.000 N 
ATOM     29  H   UNL     1      -0.647  12.239  22.478  0.00  0.00    +0.000 HD
BRANCH  28  30
ATOM     30  C   UNL     1       0.439  13.706  21.563  0.00  0.00    +0.000 A 
ATOM     31  C   UNL     1       1.581  13.239  20.896  0.00  0.00    +0.000 A 
ATOM     32  C   UNL     1       2.767  13.976  20.902  0.00  0.00    +0.000 A 
ATOM     33  C   UNL     1       2.811  15.203  21.552  0.00  0.00    +0.000 A 
ATOM     34  F   UNL     1       3.968  15.882  21.571  0.00  0.00    +0.000 F 
ATOM     35  C   UNL     1       1.674  15.712  22.170  0.00  0.00    +0.000 A 
ATOM     36 CL   UNL     1       1.714  17.243  22.958  0.00  0.00    +0.000 Cl
ATOM     37  C   UNL     1       0.490  14.968  22.173  0.00  0.00    +0.000 A 
ENDBRANCH  28  30
ENDBRANCH   7  28
TORSDOF 8
ENDMDL
