MODEL 1
REMARK VINA RESULT:      -8.1      0.000      0.000
REMARK  Name = 
REMARK  9 active torsions:
REMARK  status: ('A' for Active; 'I' for Inactive)
REMARK    1  A    between atoms: C_1  and  C_2
REMARK    2  A    between atoms: C_6  and  N_7
REMARK    3  A    between atoms: C_8  and  C_9
REMARK    4  A    between atoms: N_11  and  C_12
REMARK    5  A    between atoms: C_12  and  C_13
REMARK    6  A    between atoms: C_13  and  C_14
REMARK    7  A    between atoms: C_17  and  C_18
REMARK    8  A    between atoms: C_18  and  C_19
REMARK    9  A    between atoms: C_19  and  O_21
REMARK                            x       y       z     vdW  Elec       q    Type
REMARK                         _______ _______ _______ _____ _____    ______ ____
ROOT
ATOM      1  C   UNL     1       6.949   7.021  17.352  0.00  0.00    +0.000 C 
ATOM      2  O   UNL     1       7.773   6.758  16.472  0.00  0.00    +0.000 OA
ATOM      3  N   UNL     1       7.033   8.223  18.041  0.00  0.00    +0.000 N 
ATOM      4  H   UNL     1       6.332   8.438  18.741  0.00  0.00    +0.000 HD
ENDROOT
BRANCH   1  11
ATOM      5  C   UNL     1       0.658   3.221  19.074  0.00  0.00    +0.000 C 
ATOM      6  C   UNL     1       2.111   3.533  18.848  0.00  0.00    +0.000 A 
ATOM      7  C   UNL     1       3.077   2.579  19.149  0.00  0.00    +0.000 A 
ATOM      8  C   UNL     1       4.421   2.891  18.960  0.00  0.00    +0.000 A 
ATOM      9  C   UNL     1       4.756   4.171  18.471  0.00  0.00    +0.000 A 
ATOM     10  C   UNL     1       6.005   4.809  18.185  0.00  0.00    +0.000 A 
ATOM     11  C   UNL     1       5.871   6.105  17.708  0.00  0.00    +0.000 A 
ATOM     12  S   UNL     1       4.216   6.540  17.596  0.00  0.00    +0.000 S 
ATOM     13  C   UNL     1       3.699   5.029  18.196  0.00  0.00    +0.000 A 
ATOM     14  N   UNL     1       2.385   4.767  18.364  0.00  0.00    +0.000 NA
BRANCH  10  15
ATOM     15  N   UNL     1       7.202   4.207  18.368  0.00  0.00    +0.000 N 
ATOM     16  H   UNL     1       7.809   4.387  19.159  0.00  0.00    +0.000 HD
ATOM     17  H   UNL     1       7.655   3.712  17.595  0.00  0.00    +0.000 HD
ENDBRANCH  10  15
ENDBRANCH   1  11
BRANCH   3  18
ATOM     18  C   UNL     1       8.082   9.170  17.701  0.00  0.00    +0.000 C 
BRANCH  18  19
ATOM     19  C   UNL     1       8.931   9.630  18.886  0.00  0.00    +0.000 C 
BRANCH  19  20
ATOM     20  C   UNL     1       9.556  10.985  18.625  0.00  0.00    +0.000 A 
ATOM     21  C   UNL     1       8.933  11.916  17.783  0.00  0.00    +0.000 A 
ATOM     22  C   UNL     1       9.534  13.151  17.513  0.00  0.00    +0.000 A 
ATOM     23  C   UNL     1      10.771  13.484  18.083  0.00  0.00    +0.000 A 
ATOM     24  C   UNL     1      11.401  12.547  18.912  0.00  0.00    +0.000 A 
ATOM     25  C   UNL     1      10.800  11.312  19.179  0.00  0.00    +0.000 A 
BRANCH  23  26
ATOM     26  C   UNL     1      11.425  14.818  17.797  0.00  0.00    +0.000 C 
BRANCH  26  27
ATOM     27  C   UNL     1      10.524  15.887  17.212  0.00  0.00    +0.000 C 
ATOM     28  O   UNL     1       9.709  16.507  17.882  0.00  0.00    +0.000 OA
BRANCH  27  29
ATOM     29  O   UNL     1      10.618  16.063  15.875  0.00  0.00    +0.000 OA
ATOM     30  H   UNL     1      10.386  16.964  15.574  0.00  0.00    +0.000 HD
ENDBRANCH  27  29
ENDBRANCH  26  27
ENDBRANCH  23  26
ENDBRANCH  19  20
ENDBRANCH  18  19
ENDBRANCH   3  18
TORSDOF 8
ENDMDL
MODEL 2
REMARK VINA RESULT:      -8.0      1.240      1.585
REMARK  Name = 
REMARK  9 active torsions:
REMARK  status: ('A' for Active; 'I' for Inactive)
REMARK    1  A    between atoms: C_1  and  C_2
REMARK    2  A    between atoms: C_6  and  N_7
REMARK    3  A    between atoms: C_8  and  C_9
REMARK    4  A    between atoms: N_11  and  C_12
REMARK    5  A    between atoms: C_12  and  C_13
REMARK    6  A    between atoms: C_13  and  C_14
REMARK    7  A    between atoms: C_17  and  C_18
REMARK    8  A    between atoms: C_18  and  C_19
REMARK    9  A    between atoms: C_19  and  O_21
REMARK                            x       y       z     vdW  Elec       q    Type
REMARK                         _______ _______ _______ _____ _____    ______ ____
ROOT
ATOM      1  C   UNL     1       6.960   6.805  17.223  0.00  0.00    +0.000 C 
ATOM      2  O   UNL     1       7.797   6.501  16.368  0.00  0.00    +0.000 OA
ATOM      3  N   UNL     1       7.059   8.020  17.886  0.00  0.00    +0.000 N 
ATOM      4  H   UNL     1       6.350   8.268  18.565  0.00  0.00    +0.000 HD
ENDROOT
BRANCH   1  11
ATOM      5  C   UNL     1       1.595   2.391  20.174  0.00  0.00    +0.000 C 
ATOM      6  C   UNL     1       2.449   3.104  19.164  0.00  0.00    +0.000 A 
ATOM      7  C   UNL     1       2.266   2.860  17.808  0.00  0.00    +0.000 A 
ATOM      8  C   UNL     1       3.082   3.507  16.884  0.00  0.00    +0.000 A 
ATOM      9  C   UNL     1       4.074   4.390  17.360  0.00  0.00    +0.000 A 
ATOM     10  C   UNL     1       5.068   5.184  16.705  0.00  0.00    +0.000 A 
ATOM     11  C   UNL     1       5.854   5.923  17.577  0.00  0.00    +0.000 A 
ATOM     12  S   UNL     1       5.369   5.657  19.201  0.00  0.00    +0.000 S 
ATOM     13  C   UNL     1       4.149   4.559  18.737  0.00  0.00    +0.000 A 
ATOM     14  N   UNL     1       3.378   3.953  19.665  0.00  0.00    +0.000 NA
BRANCH  10  15
ATOM     15  N   UNL     1       5.229   5.207  15.362  0.00  0.00    +0.000 N 
ATOM     16  H   UNL     1       5.910   4.645  14.866  0.00  0.00    +0.000 HD
ATOM     17  H   UNL     1       4.825   5.967  14.806  0.00  0.00    +0.000 HD
ENDBRANCH  10  15
ENDBRANCH   1  11
BRANCH   3  18
ATOM     18  C   UNL     1       8.138   8.934  17.547  0.00  0.00    +0.000 C 
BRANCH  18  19
ATOM     19  C   UNL     1       8.760   9.655  18.743  0.00  0.00    +0.000 C 
BRANCH  19  20
ATOM     20  C   UNL     1       9.539  10.878  18.307  0.00  0.00    +0.000 A 
ATOM     21  C   UNL     1      10.939  10.902  18.375  0.00  0.00    +0.000 A 
ATOM     22  C   UNL     1      11.654  12.049  18.009  0.00  0.00    +0.000 A 
ATOM     23  C   UNL     1      10.984  13.196  17.564  0.00  0.00    +0.000 A 
ATOM     24  C   UNL     1       9.583  13.178  17.512  0.00  0.00    +0.000 A 
ATOM     25  C   UNL     1       8.871  12.032  17.880  0.00  0.00    +0.000 A 
BRANCH  23  26
ATOM     26  C   UNL     1      11.750  14.439  17.165  0.00  0.00    +0.000 C 
BRANCH  26  27
ATOM     27  C   UNL     1      10.935  15.711  17.045  0.00  0.00    +0.000 C 
ATOM     28  O   UNL     1      10.547  16.344  18.017  0.00  0.00    +0.000 OA
BRANCH  27  29
ATOM     29  O   UNL     1      10.590  16.068  15.788  0.00  0.00    +0.000 OA
ATOM     30  H   UNL     1      11.159  16.761  15.399  0.00  0.00    +0.000 HD
ENDBRANCH  27  29
ENDBRANCH  26  27
ENDBRANCH  23  26
ENDBRANCH  19  20
ENDBRANCH  18  19
ENDBRANCH   3  18
TORSDOF 8
ENDMDL
MODEL 3
REMARK VINA RESULT:      -7.7      1.104      1.165
REMARK  Name = 
REMARK  9 active torsions:
REMARK  status: ('A' for Active; 'I' for Inactive)
REMARK    1  A    between atoms: C_1  and  C_2
REMARK    2  A    between atoms: C_6  and  N_7
REMARK    3  A    between atoms: C_8  and  C_9
REMARK    4  A    between atoms: N_11  and  C_12
REMARK    5  A    between atoms: C_12  and  C_13
REMARK    6  A    between atoms: C_13  and  C_14
REMARK    7  A    between atoms: C_17  and  C_18
REMARK    8  A    between atoms: C_18  and  C_19
REMARK    9  A    between atoms: C_19  and  O_21
REMARK                            x       y       z     vdW  Elec       q    Type
REMARK                         _______ _______ _______ _____ _____    ______ ____
ROOT
ATOM      1  C   UNL     1       6.779   6.431  17.422  0.00  0.00    +0.000 C 
ATOM      2  O   UNL     1       7.779   6.010  16.835  0.00  0.00    +0.000 OA
ATOM      3  N   UNL     1       6.725   7.755  17.834  0.00  0.00    +0.000 N 
ATOM      4  H   UNL     1       5.886   8.093  18.290  0.00  0.00    +0.000 HD
ENDROOT
BRANCH   1  11
ATOM      5  C   UNL     1       0.595   2.799  19.779  0.00  0.00    +0.000 C 
ATOM      6  C   UNL     1       1.847   3.120  19.012  0.00  0.00    +0.000 A 
ATOM      7  C   UNL     1       2.354   2.199  18.103  0.00  0.00    +0.000 A 
ATOM      8  C   UNL     1       3.530   2.497  17.417  0.00  0.00    +0.000 A 
ATOM      9  C   UNL     1       4.169   3.728  17.675  0.00  0.00    +0.000 A 
ATOM     10  C   UNL     1       5.368   4.328  17.174  0.00  0.00    +0.000 A 
ATOM     11  C   UNL     1       5.630   5.580  17.710  0.00  0.00    +0.000 A 
ATOM     12  S   UNL     1       4.402   6.032  18.819  0.00  0.00    +0.000 S 
ATOM     13  C   UNL     1       3.556   4.568  18.596  0.00  0.00    +0.000 A 
ATOM     14  N   UNL     1       2.418   4.318  19.279  0.00  0.00    +0.000 NA
BRANCH  10  15
ATOM     15  N   UNL     1       6.172   3.727  16.267  0.00  0.00    +0.000 N 
ATOM     16  H   UNL     1       5.841   3.080  15.561  0.00  0.00    +0.000 HD
ATOM     17  H   UNL     1       7.187   3.720  16.401  0.00  0.00    +0.000 HD
ENDBRANCH  10  15
ENDBRANCH   1  11
BRANCH   3  18
ATOM     18  C   UNL     1       7.843   8.639  17.549  0.00  0.00    +0.000 C 
BRANCH  18  19
ATOM     19  C   UNL     1       8.695   9.000  18.765  0.00  0.00    +0.000 C 
BRANCH  19  20
ATOM     20  C   UNL     1       9.191  10.429  18.689  0.00  0.00    +0.000 A 
ATOM     21  C   UNL     1       8.614  11.345  17.799  0.00  0.00    +0.000 A 
ATOM     22  C   UNL     1       9.102  12.654  17.702  0.00  0.00    +0.000 A 
ATOM     23  C   UNL     1      10.177  13.075  18.498  0.00  0.00    +0.000 A 
ATOM     24  C   UNL     1      10.764  12.155  19.376  0.00  0.00    +0.000 A 
ATOM     25  C   UNL     1      10.276  10.847  19.469  0.00  0.00    +0.000 A 
BRANCH  23  26
ATOM     26  C   UNL     1      10.708  14.489  18.401  0.00  0.00    +0.000 C 
BRANCH  26  27
ATOM     27  C   UNL     1      11.154  14.937  17.024  0.00  0.00    +0.000 C 
ATOM     28  O   UNL     1      10.830  16.013  16.539  0.00  0.00    +0.000 OA
BRANCH  27  29
ATOM     29  O   UNL     1      11.875  14.035  16.320  0.00  0.00    +0.000 OA
ATOM     30  H   UNL     1      11.333  13.411  15.797  0.00  0.00    +0.000 HD
ENDBRANCH  27  29
ENDBRANCH  26  27
ENDBRANCH  23  26
ENDBRANCH  19  20
ENDBRANCH  18  19
ENDBRANCH   3  18
TORSDOF 8
ENDMDL
MODEL 4
REMARK VINA RESULT:      -7.6      1.209      1.583
REMARK  Name = 
REMARK  9 active torsions:
REMARK  status: ('A' for Active; 'I' for Inactive)
REMARK    1  A    between atoms: C_1  and  C_2
REMARK    2  A    between atoms: C_6  and  N_7
REMARK    3  A    between atoms: C_8  and  C_9
REMARK    4  A    between atoms: N_11  and  C_12
REMARK    5  A    between atoms: C_12  and  C_13
REMARK    6  A    between atoms: C_13  and  C_14
REMARK    7  A    between atoms: C_17  and  C_18
REMARK    8  A    between atoms: C_18  and  C_19
REMARK    9  A    between atoms: C_19  and  O_21
REMARK                            x       y       z     vdW  Elec       q    Type
REMARK                         _______ _______ _______ _____ _____    ______ ____
ROOT
ATOM      1  C   UNL     1       6.081   6.745  16.937  0.00  0.00    +0.000 C 
ATOM      2  O   UNL     1       6.263   7.026  15.749  0.00  0.00    +0.000 OA
ATOM      3  N   UNL     1       6.845   7.361  17.918  0.00  0.00    +0.000 N 
ATOM      4  H   UNL     1       6.665   7.141  18.891  0.00  0.00    +0.000 HD
ENDROOT
BRANCH   1  11
ATOM      5  C   UNL     1       0.421   2.612  19.741  0.00  0.00    +0.000 C 
ATOM      6  C   UNL     1       1.679   2.984  19.009  0.00  0.00    +0.000 A 
ATOM      7  C   UNL     1       2.458   1.990  18.427  0.00  0.00    +0.000 A 
ATOM      8  C   UNL     1       3.636   2.345  17.774  0.00  0.00    +0.000 A 
ATOM      9  C   UNL     1       4.001   3.708  17.730  0.00  0.00    +0.000 A 
ATOM     10  C   UNL     1       5.123   4.399  17.173  0.00  0.00    +0.000 A 
ATOM     11  C   UNL     1       5.081   5.773  17.362  0.00  0.00    +0.000 A 
ATOM     12  S   UNL     1       3.660   6.222  18.212  0.00  0.00    +0.000 S 
ATOM     13  C   UNL     1       3.132   4.605  18.338  0.00  0.00    +0.000 A 
ATOM     14  N   UNL     1       1.982   4.303  18.979  0.00  0.00    +0.000 NA
BRANCH  10  15
ATOM     15  N   UNL     1       6.132   3.771  16.527  0.00  0.00    +0.000 N 
ATOM     16  H   UNL     1       7.063   4.158  16.423  0.00  0.00    +0.000 HD
ATOM     17  H   UNL     1       5.936   2.976  15.912  0.00  0.00    +0.000 HD
ENDBRANCH  10  15
ENDBRANCH   1  11
BRANCH   3  18
ATOM     18  C   UNL     1       7.839   8.350  17.535  0.00  0.00    +0.000 C 
BRANCH  18  19
ATOM     19  C   UNL     1       8.680   8.888  18.692  0.00  0.00    +0.000 C 
BRANCH  19  20
ATOM     20  C   UNL     1       9.062  10.337  18.472  0.00  0.00    +0.000 A 
ATOM     21  C   UNL     1      10.218  10.874  19.056  0.00  0.00    +0.000 A 
ATOM     22  C   UNL     1      10.545  12.224  18.883  0.00  0.00    +0.000 A 
ATOM     23  C   UNL     1       9.726  13.066  18.118  0.00  0.00    +0.000 A 
ATOM     24  C   UNL     1       8.562  12.533  17.548  0.00  0.00    +0.000 A 
ATOM     25  C   UNL     1       8.235  11.184  17.724  0.00  0.00    +0.000 A 
BRANCH  23  26
ATOM     26  C   UNL     1      10.075  14.526  17.925  0.00  0.00    +0.000 C 
BRANCH  26  27
ATOM     27  C   UNL     1      11.180  14.817  16.930  0.00  0.00    +0.000 C 
ATOM     28  O   UNL     1      11.922  15.785  17.027  0.00  0.00    +0.000 OA
BRANCH  27  29
ATOM     29  O   UNL     1      11.249  13.979  15.871  0.00  0.00    +0.000 OA
ATOM     30  H   UNL     1      10.553  14.125  15.200  0.00  0.00    +0.000 HD
ENDBRANCH  27  29
ENDBRANCH  26  27
ENDBRANCH  23  26
ENDBRANCH  19  20
ENDBRANCH  18  19
ENDBRANCH   3  18
TORSDOF 8
ENDMDL
MODEL 5
REMARK VINA RESULT:      -7.5      1.156      1.286
REMARK  Name = 
REMARK  9 active torsions:
REMARK  status: ('A' for Active; 'I' for Inactive)
REMARK    1  A    between atoms: C_1  and  C_2
REMARK    2  A    between atoms: C_6  and  N_7
REMARK    3  A    between atoms: C_8  and  C_9
REMARK    4  A    between atoms: N_11  and  C_12
REMARK    5  A    between atoms: C_12  and  C_13
REMARK    6  A    between atoms: C_13  and  C_14
REMARK    7  A    between atoms: C_17  and  C_18
REMARK    8  A    between atoms: C_18  and  C_19
REMARK    9  A    between atoms: C_19  and  O_21
REMARK                            x       y       z     vdW  Elec       q    Type
REMARK                         _______ _______ _______ _____ _____    ______ ____
ROOT
ATOM      1  C   UNL     1       6.677   6.550  17.047  0.00  0.00    +0.000 C 
ATOM      2  O   UNL     1       7.484   6.294  16.150  0.00  0.00    +0.000 OA
ATOM      3  N   UNL     1       6.823   7.707  17.798  0.00  0.00    +0.000 N 
ATOM      4  H   UNL     1       6.137   7.919  18.513  0.00  0.00    +0.000 HD
ENDROOT
BRANCH   1  11
ATOM      5  C   UNL     1       0.509   2.876  19.377  0.00  0.00    +0.000 C 
ATOM      6  C   UNL     1       1.811   3.166  18.685  0.00  0.00    +0.000 A 
ATOM      7  C   UNL     1       2.460   2.158  17.983  0.00  0.00    +0.000 A 
ATOM      8  C   UNL     1       3.680   2.434  17.369  0.00  0.00    +0.000 A 
ATOM      9  C   UNL     1       4.217   3.733  17.486  0.00  0.00    +0.000 A 
ATOM     10  C   UNL     1       5.423   4.336  17.007  0.00  0.00    +0.000 A 
ATOM     11  C   UNL     1       5.556   5.671  17.360  0.00  0.00    +0.000 A 
ATOM     12  S   UNL     1       4.198   6.195  18.268  0.00  0.00    +0.000 S 
ATOM     13  C   UNL     1       3.466   4.656  18.203  0.00  0.00    +0.000 A 
ATOM     14  N   UNL     1       2.281   4.430  18.811  0.00  0.00    +0.000 NA
BRANCH  10  15
ATOM     15  N   UNL     1       6.348   3.665  16.283  0.00  0.00    +0.000 N 
ATOM     16  H   UNL     1       7.252   3.384  16.645  0.00  0.00    +0.000 HD
ATOM     17  H   UNL     1       6.269   3.613  15.264  0.00  0.00    +0.000 HD
ENDBRANCH  10  15
ENDBRANCH   1  11
BRANCH   3  18
ATOM     18  C   UNL     1       7.917   8.618  17.504  0.00  0.00    +0.000 C 
BRANCH  18  19
ATOM     19  C   UNL     1       8.735   9.045  18.722  0.00  0.00    +0.000 C 
BRANCH  19  20
ATOM     20  C   UNL     1       9.140  10.502  18.635  0.00  0.00    +0.000 A 
ATOM     21  C   UNL     1       8.491  11.378  17.753  0.00  0.00    +0.000 A 
ATOM     22  C   UNL     1       8.895  12.714  17.646  0.00  0.00    +0.000 A 
ATOM     23  C   UNL     1       9.954  13.204  18.422  0.00  0.00    +0.000 A 
ATOM     24  C   UNL     1      10.613  12.325  19.291  0.00  0.00    +0.000 A 
ATOM     25  C   UNL     1      10.210  10.989  19.395  0.00  0.00    +0.000 A 
BRANCH  23  26
ATOM     26  C   UNL     1      10.394  14.648  18.313  0.00  0.00    +0.000 C 
BRANCH  26  27
ATOM     27  C   UNL     1       9.545  15.658  19.058  0.00  0.00    +0.000 C 
ATOM     28  O   UNL     1       8.826  15.355  20.000  0.00  0.00    +0.000 OA
BRANCH  27  29
ATOM     29  O   UNL     1       9.568  16.917  18.565  0.00  0.00    +0.000 OA
ATOM     30  H   UNL     1       9.726  16.967  17.602  0.00  0.00    +0.000 HD
ENDBRANCH  27  29
ENDBRANCH  26  27
ENDBRANCH  23  26
ENDBRANCH  19  20
ENDBRANCH  18  19
ENDBRANCH   3  18
TORSDOF 8
ENDMDL
MODEL 6
REMARK VINA RESULT:      -7.4      7.053     10.215
REMARK  Name = 
REMARK  9 active torsions:
REMARK  status: ('A' for Active; 'I' for Inactive)
REMARK    1  A    between atoms: C_1  and  C_2
REMARK    2  A    between atoms: C_6  and  N_7
REMARK    3  A    between atoms: C_8  and  C_9
REMARK    4  A    between atoms: N_11  and  C_12
REMARK    5  A    between atoms: C_12  and  C_13
REMARK    6  A    between atoms: C_13  and  C_14
REMARK    7  A    between atoms: C_17  and  C_18
REMARK    8  A    between atoms: C_18  and  C_19
REMARK    9  A    between atoms: C_19  and  O_21
REMARK                            x       y       z     vdW  Elec       q    Type
REMARK                         _______ _______ _______ _____ _____    ______ ____
ROOT
ATOM      1  C   UNL     1       0.052  10.690  18.698  0.00  0.00    +0.000 C 
ATOM      2  O   UNL     1       0.851  11.136  19.526  0.00  0.00    +0.000 OA
ATOM      3  N   UNL     1       0.467   9.733  17.784  0.00  0.00    +0.000 N 
ATOM      4  H   UNL     1      -0.207   9.355  17.129  0.00  0.00    +0.000 HD
ENDROOT
BRANCH   1  11
ATOM      5  C   UNL     1      -6.992  13.274  19.526  0.00  0.00    +0.000 C 
ATOM      6  C   UNL     1      -5.773  12.648  18.908  0.00  0.00    +0.000 A 
ATOM      7  C   UNL     1      -5.852  12.090  17.637  0.00  0.00    +0.000 A 
ATOM      8  C   UNL     1      -4.722  11.490  17.087  0.00  0.00    +0.000 A 
ATOM      9  C   UNL     1      -3.532  11.466  17.845  0.00  0.00    +0.000 A 
ATOM     10  C   UNL     1      -2.229  10.930  17.596  0.00  0.00    +0.000 A 
ATOM     11  C   UNL     1      -1.335  11.135  18.637  0.00  0.00    +0.000 A 
ATOM     12  S   UNL     1      -2.085  11.996  19.917  0.00  0.00    +0.000 S 
ATOM     13  C   UNL     1      -3.578  12.068  19.095  0.00  0.00    +0.000 A 
ATOM     14  N   UNL     1      -4.650  12.661  19.664  0.00  0.00    +0.000 NA
BRANCH  10  15
ATOM     15  N   UNL     1      -1.902  10.280  16.456  0.00  0.00    +0.000 N 
ATOM     16  H   UNL     1      -0.962  10.237  16.080  0.00  0.00    +0.000 HD
ATOM     17  H   UNL     1      -2.632   9.994  15.796  0.00  0.00    +0.000 HD
ENDBRANCH  10  15
ENDBRANCH   1  11
BRANCH   3  18
ATOM     18  C   UNL     1       1.838   9.250  17.826  0.00  0.00    +0.000 C 
BRANCH  18  19
ATOM     19  C   UNL     1       2.049   8.009  18.693  0.00  0.00    +0.000 C 
BRANCH  19  20
ATOM     20  C   UNL     1       2.960   7.008  18.013  0.00  0.00    +0.000 A 
ATOM     21  C   UNL     1       2.665   5.637  18.032  0.00  0.00    +0.000 A 
ATOM     22  C   UNL     1       3.530   4.711  17.438  0.00  0.00    +0.000 A 
ATOM     23  C   UNL     1       4.708   5.136  16.808  0.00  0.00    +0.000 A 
ATOM     24  C   UNL     1       5.011   6.504  16.803  0.00  0.00    +0.000 A 
ATOM     25  C   UNL     1       4.146   7.428  17.400  0.00  0.00    +0.000 A 
BRANCH  23  26
ATOM     26  C   UNL     1       5.647   4.140  16.161  0.00  0.00    +0.000 C 
BRANCH  26  27
ATOM     27  C   UNL     1       7.088   4.584  16.018  0.00  0.00    +0.000 C 
ATOM     28  O   UNL     1       7.495   5.219  15.055  0.00  0.00    +0.000 OA
BRANCH  27  29
ATOM     29  O   UNL     1       7.928   4.165  16.992  0.00  0.00    +0.000 OA
ATOM     30  H   UNL     1       8.860   4.082  16.708  0.00  0.00    +0.000 HD
ENDBRANCH  27  29
ENDBRANCH  26  27
ENDBRANCH  23  26
ENDBRANCH  19  20
ENDBRANCH  18  19
ENDBRANCH   3  18
TORSDOF 8
ENDMDL
MODEL 7
REMARK VINA RESULT:      -7.4      7.021     10.106
REMARK  Name = 
REMARK  9 active torsions:
REMARK  status: ('A' for Active; 'I' for Inactive)
REMARK    1  A    between atoms: C_1  and  C_2
REMARK    2  A    between atoms: C_6  and  N_7
REMARK    3  A    between atoms: C_8  and  C_9
REMARK    4  A    between atoms: N_11  and  C_12
REMARK    5  A    between atoms: C_12  and  C_13
REMARK    6  A    between atoms: C_13  and  C_14
REMARK    7  A    between atoms: C_17  and  C_18
REMARK    8  A    between atoms: C_18  and  C_19
REMARK    9  A    between atoms: C_19  and  O_21
REMARK                            x       y       z     vdW  Elec       q    Type
REMARK                         _______ _______ _______ _____ _____    ______ ____
ROOT
ATOM      1  C   UNL     1       0.698  10.519  19.383  0.00  0.00    +0.000 C 
ATOM      2  O   UNL     1       1.332  11.160  18.541  0.00  0.00    +0.000 OA
ATOM      3  N   UNL     1       0.949   9.165  19.556  0.00  0.00    +0.000 N 
ATOM      4  H   UNL     1       0.441   8.659  20.270  0.00  0.00    +0.000 HD
ENDROOT
BRANCH   1  11
ATOM      5  C   UNL     1      -4.278  12.914  24.530  0.00  0.00    +0.000 C 
ATOM      6  C   UNL     1      -3.533  12.778  23.232  0.00  0.00    +0.000 A 
ATOM      7  C   UNL     1      -3.951  13.497  22.117  0.00  0.00    +0.000 A 
ATOM      8  C   UNL     1      -3.268  13.341  20.913  0.00  0.00    +0.000 A 
ATOM      9  C   UNL     1      -2.173  12.452  20.866  0.00  0.00    +0.000 A 
ATOM     10  C   UNL     1      -1.286  12.052  19.817  0.00  0.00    +0.000 A 
ATOM     11  C   UNL     1      -0.328  11.134  20.218  0.00  0.00    +0.000 A 
ATOM     12  S   UNL     1      -0.502  10.767  21.885  0.00  0.00    +0.000 S 
ATOM     13  C   UNL     1      -1.847  11.803  22.050  0.00  0.00    +0.000 A 
ATOM     14  N   UNL     1      -2.481  11.926  23.237  0.00  0.00    +0.000 NA
BRANCH  10  15
ATOM     15  N   UNL     1      -1.378  12.523  18.552  0.00  0.00    +0.000 N 
ATOM     16  H   UNL     1      -2.199  12.989  18.181  0.00  0.00    +0.000 HD
ATOM     17  H   UNL     1      -0.707  12.223  17.839  0.00  0.00    +0.000 HD
ENDBRANCH  10  15
ENDBRANCH   1  11
BRANCH   3  18
ATOM     18  C   UNL     1       1.977   8.521  18.755  0.00  0.00    +0.000 C 
BRANCH  18  19
ATOM     19  C   UNL     1       2.432   7.159  19.279  0.00  0.00    +0.000 C 
BRANCH  19  20
ATOM     20  C   UNL     1       3.272   6.424  18.255  0.00  0.00    +0.000 A 
ATOM     21  C   UNL     1       4.170   7.116  17.431  0.00  0.00    +0.000 A 
ATOM     22  C   UNL     1       4.916   6.439  16.458  0.00  0.00    +0.000 A 
ATOM     23  C   UNL     1       4.782   5.054  16.292  0.00  0.00    +0.000 A 
ATOM     24  C   UNL     1       3.872   4.365  17.105  0.00  0.00    +0.000 A 
ATOM     25  C   UNL     1       3.126   5.044  18.075  0.00  0.00    +0.000 A 
BRANCH  23  26
ATOM     26  C   UNL     1       5.586   4.315  15.244  0.00  0.00    +0.000 C 
BRANCH  26  27
ATOM     27  C   UNL     1       7.040   4.720  15.117  0.00  0.00    +0.000 C 
ATOM     28  O   UNL     1       7.857   4.553  16.012  0.00  0.00    +0.000 OA
BRANCH  27  29
ATOM     29  O   UNL     1       7.371   5.358  13.971  0.00  0.00    +0.000 OA
ATOM     30  H   UNL     1       6.695   5.292  13.268  0.00  0.00    +0.000 HD
ENDBRANCH  27  29
ENDBRANCH  26  27
ENDBRANCH  23  26
ENDBRANCH  19  20
ENDBRANCH  18  19
ENDBRANCH   3  18
TORSDOF 8
ENDMDL
MODEL 8
REMARK VINA RESULT:      -7.4      1.773      2.113
REMARK  Name = 
REMARK  9 active torsions:
REMARK  status: ('A' for Active; 'I' for Inactive)
REMARK    1  A    between atoms: C_1  and  C_2
REMARK    2  A    between atoms: C_6  and  N_7
REMARK    3  A    between atoms: C_8  and  C_9
REMARK    4  A    between atoms: N_11  and  C_12
REMARK    5  A    between atoms: C_12  and  C_13
REMARK    6  A    between atoms: C_13  and  C_14
REMARK    7  A    between atoms: C_17  and  C_18
REMARK    8  A    between atoms: C_18  and  C_19
REMARK    9  A    between atoms: C_19  and  O_21
REMARK                            x       y       z     vdW  Elec       q    Type
REMARK                         _______ _______ _______ _____ _____    ______ ____
ROOT
ATOM      1  C   UNL     1       6.661   6.721  17.134  0.00  0.00    +0.000 C 
ATOM      2  O   UNL     1       7.549   6.483  16.310  0.00  0.00    +0.000 OA
ATOM      3  N   UNL     1       6.696   7.899  17.866  0.00  0.00    +0.000 N 
ATOM      4  H   UNL     1       5.945   8.094  18.518  0.00  0.00    +0.000 HD
ENDROOT
BRANCH   1  11
ATOM      5  C   UNL     1       0.478   2.830  19.033  0.00  0.00    +0.000 C 
ATOM      6  C   UNL     1       1.823   3.161  18.451  0.00  0.00    +0.000 A 
ATOM      7  C   UNL     1       2.579   2.163  17.848  0.00  0.00    +0.000 A 
ATOM      8  C   UNL     1       3.836   2.477  17.337  0.00  0.00    +0.000 A 
ATOM      9  C   UNL     1       4.301   3.804  17.453  0.00  0.00    +0.000 A 
ATOM     10  C   UNL     1       5.517   4.449  17.063  0.00  0.00    +0.000 A 
ATOM     11  C   UNL     1       5.557   5.799  17.377  0.00  0.00    +0.000 A 
ATOM     12  S   UNL     1       4.100   6.286  18.139  0.00  0.00    +0.000 S 
ATOM     13  C   UNL     1       3.446   4.712  18.065  0.00  0.00    +0.000 A 
ATOM     14  N   UNL     1       2.222   4.449  18.572  0.00  0.00    +0.000 NA
BRANCH  10  15
ATOM     15  N   UNL     1       6.534   3.800  16.451  0.00  0.00    +0.000 N 
ATOM     16  H   UNL     1       6.410   2.987  15.859  0.00  0.00    +0.000 HD
ATOM     17  H   UNL     1       7.502   3.962  16.744  0.00  0.00    +0.000 HD
ENDBRANCH  10  15
ENDBRANCH   1  11
BRANCH   3  18
ATOM     18  C   UNL     1       7.770   8.851  17.639  0.00  0.00    +0.000 C 
BRANCH  18  19
ATOM     19  C   UNL     1       8.846   8.868  18.724  0.00  0.00    +0.000 C 
BRANCH  19  20
ATOM     20  C   UNL     1       9.307  10.279  19.025  0.00  0.00    +0.000 A 
ATOM     21  C   UNL     1       9.486  10.712  20.347  0.00  0.00    +0.000 A 
ATOM     22  C   UNL     1       9.873  12.028  20.622  0.00  0.00    +0.000 A 
ATOM     23  C   UNL     1      10.093  12.941  19.581  0.00  0.00    +0.000 A 
ATOM     24  C   UNL     1       9.899  12.513  18.261  0.00  0.00    +0.000 A 
ATOM     25  C   UNL     1       9.510  11.197  17.988  0.00  0.00    +0.000 A 
BRANCH  23  26
ATOM     26  C   UNL     1      10.514  14.365  19.872  0.00  0.00    +0.000 C 
BRANCH  26  27
ATOM     27  C   UNL     1       9.843  15.026  21.059  0.00  0.00    +0.000 C 
ATOM     28  O   UNL     1      10.414  15.212  22.125  0.00  0.00    +0.000 OA
BRANCH  27  29
ATOM     29  O   UNL     1       8.536  15.331  20.896  0.00  0.00    +0.000 OA
ATOM     30  H   UNL     1       8.058  15.500  21.733  0.00  0.00    +0.000 HD
ENDBRANCH  27  29
ENDBRANCH  26  27
ENDBRANCH  23  26
ENDBRANCH  19  20
ENDBRANCH  18  19
ENDBRANCH   3  18
TORSDOF 8
ENDMDL
MODEL 9
REMARK VINA RESULT:      -7.3      6.876     10.008
REMARK  Name = 
REMARK  9 active torsions:
REMARK  status: ('A' for Active; 'I' for Inactive)
REMARK    1  A    between atoms: C_1  and  C_2
REMARK    2  A    between atoms: C_6  and  N_7
REMARK    3  A    between atoms: C_8  and  C_9
REMARK    4  A    between atoms: N_11  and  C_12
REMARK    5  A    between atoms: C_12  and  C_13
REMARK    6  A    between atoms: C_13  and  C_14
REMARK    7  A    between atoms: C_17  and  C_18
REMARK    8  A    between atoms: C_18  and  C_19
REMARK    9  A    between atoms: C_19  and  O_21
REMARK                            x       y       z     vdW  Elec       q    Type
REMARK                         _______ _______ _______ _____ _____    ______ ____
ROOT
ATOM      1  C   UNL     1       0.261  10.086  18.845  0.00  0.00    +0.000 C 
ATOM      2  O   UNL     1       0.970  10.221  19.846  0.00  0.00    +0.000 OA
ATOM      3  N   UNL     1       0.744   9.393  17.744  0.00  0.00    +0.000 N 
ATOM      4  H   UNL     1       0.141   9.266  16.941  0.00  0.00    +0.000 HD
ENDROOT
BRANCH   1  11
ATOM      5  C   UNL     1      -6.723  12.514  17.329  0.00  0.00    +0.000 C 
ATOM      6  C   UNL     1      -5.429  12.279  18.056  0.00  0.00    +0.000 A 
ATOM      7  C   UNL     1      -5.208  12.885  19.287  0.00  0.00    +0.000 A 
ATOM      8  C   UNL     1      -3.994  12.681  19.937  0.00  0.00    +0.000 A 
ATOM      9  C   UNL     1      -3.024  11.863  19.318  0.00  0.00    +0.000 A 
ATOM     10  C   UNL     1      -1.701  11.468  19.691  0.00  0.00    +0.000 A 
ATOM     11  C   UNL     1      -1.087  10.636  18.767  0.00  0.00    +0.000 A 
ATOM     12  S   UNL     1      -2.135  10.324  17.445  0.00  0.00    +0.000 S 
ATOM     13  C   UNL     1      -3.370  11.305  18.095  0.00  0.00    +0.000 A 
ATOM     14  N   UNL     1      -4.535  11.476  17.432  0.00  0.00    +0.000 NA
BRANCH  10  15
ATOM     15  N   UNL     1      -1.103  11.873  20.835  0.00  0.00    +0.000 N 
ATOM     16  H   UNL     1      -1.439  12.639  21.407  0.00  0.00    +0.000 HD
ATOM     17  H   UNL     1      -0.148  11.573  21.054  0.00  0.00    +0.000 HD
ENDBRANCH  10  15
ENDBRANCH   1  11
BRANCH   3  18
ATOM     18  C   UNL     1       2.077   8.814  17.792  0.00  0.00    +0.000 C 
BRANCH  18  19
ATOM     19  C   UNL     1       2.134   7.396  18.359  0.00  0.00    +0.000 C 
BRANCH  19  20
ATOM     20  C   UNL     1       3.344   6.643  17.846  0.00  0.00    +0.000 A 
ATOM     21  C   UNL     1       4.384   7.314  17.186  0.00  0.00    +0.000 A 
ATOM     22  C   UNL     1       5.481   6.609  16.678  0.00  0.00    +0.000 A 
ATOM     23  C   UNL     1       5.564   5.217  16.821  0.00  0.00    +0.000 A 
ATOM     24  C   UNL     1       4.518   4.544  17.466  0.00  0.00    +0.000 A 
ATOM     25  C   UNL     1       3.421   5.250  17.971  0.00  0.00    +0.000 A 
BRANCH  23  26
ATOM     26  C   UNL     1       6.749   4.449  16.276  0.00  0.00    +0.000 C 
BRANCH  26  27
ATOM     27  C   UNL     1       6.956   4.525  14.777  0.00  0.00    +0.000 C 
ATOM     28  O   UNL     1       7.541   5.453  14.234  0.00  0.00    +0.000 OA
BRANCH  27  29
ATOM     29  O   UNL     1       6.382   3.536  14.056  0.00  0.00    +0.000 OA
ATOM     30  H   UNL     1       5.790   2.956  14.574  0.00  0.00    +0.000 HD
ENDBRANCH  27  29
ENDBRANCH  26  27
ENDBRANCH  23  26
ENDBRANCH  19  20
ENDBRANCH  18  19
ENDBRANCH   3  18
TORSDOF 8
ENDMDL
