MODEL 1
REMARK VINA RESULT:      -9.2      0.000      0.000
REMARK  Name = 
REMARK  4 active torsions:
REMARK  status: ('A' for Active; 'I' for Inactive)
REMARK    1  A    between atoms: C_1  and  C_2
REMARK    2  A    between atoms: C_6  and  N_7
REMARK    3  A    between atoms: N_10  and  C_11
REMARK    4  A    between atoms: C_14  and  C_15
REMARK                            x       y       z     vdW  Elec       q    Type
REMARK                         _______ _______ _______ _____ _____    ______ ____
ROOT
ATOM      1  C   UNL     1       1.473   9.247  19.654  0.00  0.00    +0.000 A 
ATOM      2  C   UNL     1       1.775   8.049  20.303  0.00  0.00    +0.000 A 
ATOM      3  C   UNL     1       2.439   7.021  19.626  0.00  0.00    +0.000 A 
ATOM      4  C   UNL     1       2.790   7.142  18.272  0.00  0.00    +0.000 A 
ATOM      5  C   UNL     1       2.347   8.299  17.610  0.00  0.00    +0.000 A 
ATOM      6  C   UNL     1       1.725   9.355  18.290  0.00  0.00    +0.000 A 
ENDROOT
BRANCH   4   7
ATOM      7  C   UNL     1       3.577   6.091  17.588  0.00  0.00    +0.000 A 
ATOM      8  C   UNL     1       4.665   6.441  16.740  0.00  0.00    +0.000 A 
ATOM      9  C   UNL     1       5.444   5.487  16.084  0.00  0.00    +0.000 A 
ATOM     10  C   UNL     1       5.183   4.140  16.267  0.00  0.00    +0.000 A 
ATOM     11  F   UNL     1       5.938   3.215  15.665  0.00  0.00    +0.000 F 
ATOM     12  C   UNL     1       4.125   3.777  17.091  0.00  0.00    +0.000 A 
ATOM     13  N   UNL     1       3.681   2.538  17.450  0.00  0.00    +0.000 N 
ATOM     14  N   UNL     1       2.611   2.552  18.253  0.00  0.00    +0.000 NA
ATOM     15  C   UNL     1       2.347   3.847  18.407  0.00  0.00    +0.000 A 
ATOM     16  N   UNL     1       1.295   4.244  19.137  0.00  0.00    +0.000 N 
ATOM     17  C   UNL     1       3.295   4.695  17.738  0.00  0.00    +0.000 A 
ATOM     18  H   UNL     1       4.073   1.644  17.180  0.00  0.00    +0.000 HD
ATOM     19  H   UNL     1       0.683   3.515  19.486  0.00  0.00    +0.000 HD
ATOM     20  H   UNL     1       0.808   5.103  18.901  0.00  0.00    +0.000 HD
ENDBRANCH   4   7
BRANCH   1  24
ATOM     21  N   UNL     1      -0.724  11.744  21.115  0.00  0.00    +0.000 N 
ATOM     22  C   UNL     1      -0.416  10.591  20.415  0.00  0.00    +0.000 C 
ATOM     23  O   UNL     1      -1.242   9.819  19.941  0.00  0.00    +0.000 OA
ATOM     24  N   UNL     1       0.952  10.366  20.348  0.00  0.00    +0.000 N 
ATOM     25  H   UNL     1       0.048  12.281  21.483  0.00  0.00    +0.000 HD
ATOM     26  H   UNL     1       1.491  10.696  21.134  0.00  0.00    +0.000 HD
BRANCH  21  32
ATOM     27  C   UNL     1      -4.223  12.507  24.512  0.00  0.00    +0.000 C 
ATOM     28  C   UNL     1      -3.761  12.577  23.087  0.00  0.00    +0.000 A 
ATOM     29  C   UNL     1      -4.630  13.019  22.087  0.00  0.00    +0.000 A 
ATOM     30  C   UNL     1      -4.205  13.072  20.770  0.00  0.00    +0.000 A 
ATOM     31  C   UNL     1      -2.914  12.671  20.430  0.00  0.00    +0.000 A 
ATOM     32  C   UNL     1      -2.027  12.205  21.410  0.00  0.00    +0.000 A 
ATOM     33  C   UNL     1      -2.455  12.184  22.745  0.00  0.00    +0.000 A 
ENDBRANCH  21  32
ENDBRANCH   1  24
TORSDOF 3
ENDMDL
MODEL 2
REMARK VINA RESULT:      -9.0      1.512      2.337
REMARK  Name = 
REMARK  4 active torsions:
REMARK  status: ('A' for Active; 'I' for Inactive)
REMARK    1  A    between atoms: C_1  and  C_2
REMARK    2  A    between atoms: C_6  and  N_7
REMARK    3  A    between atoms: N_10  and  C_11
REMARK    4  A    between atoms: C_14  and  C_15
REMARK                            x       y       z     vdW  Elec       q    Type
REMARK                         _______ _______ _______ _____ _____    ______ ____
ROOT
ATOM      1  C   UNL     1       1.435   9.293  19.305  0.00  0.00    +0.000 A 
ATOM      2  C   UNL     1       1.733   8.918  17.994  0.00  0.00    +0.000 A 
ATOM      3  C   UNL     1       2.173   7.622  17.707  0.00  0.00    +0.000 A 
ATOM      4  C   UNL     1       2.366   6.671  18.723  0.00  0.00    +0.000 A 
ATOM      5  C   UNL     1       2.195   7.122  20.044  0.00  0.00    +0.000 A 
ATOM      6  C   UNL     1       1.707   8.402  20.337  0.00  0.00    +0.000 A 
ENDROOT
BRANCH   4   7
ATOM      7  C   UNL     1       2.739   5.275  18.404  0.00  0.00    +0.000 A 
ATOM      8  C   UNL     1       1.864   4.201  18.732  0.00  0.00    +0.000 A 
ATOM      9  C   UNL     1       2.164   2.871  18.440  0.00  0.00    +0.000 A 
ATOM     10  C   UNL     1       3.345   2.558  17.789  0.00  0.00    +0.000 A 
ATOM     11  F   UNL     1       3.635   1.289  17.480  0.00  0.00    +0.000 F 
ATOM     12  C   UNL     1       4.214   3.591  17.461  0.00  0.00    +0.000 A 
ATOM     13  N   UNL     1       5.411   3.554  16.807  0.00  0.00    +0.000 N 
ATOM     14  N   UNL     1       6.000   4.748  16.677  0.00  0.00    +0.000 NA
ATOM     15  C   UNL     1       5.159   5.584  17.281  0.00  0.00    +0.000 A 
ATOM     16  N   UNL     1       5.452   6.889  17.377  0.00  0.00    +0.000 N 
ATOM     17  C   UNL     1       3.973   4.933  17.765  0.00  0.00    +0.000 A 
ATOM     18  H   UNL     1       5.874   2.740  16.422  0.00  0.00    +0.000 HD
ATOM     19  H   UNL     1       6.364   7.177  17.043  0.00  0.00    +0.000 HD
ATOM     20  H   UNL     1       5.125   7.425  18.175  0.00  0.00    +0.000 HD
ENDBRANCH   4   7
BRANCH   1  24
ATOM     21  N   UNL     1      -0.893  11.911  20.264  0.00  0.00    +0.000 N 
ATOM     22  C   UNL     1      -0.484  10.608  20.040  0.00  0.00    +0.000 C 
ATOM     23  O   UNL     1      -1.174   9.614  20.237  0.00  0.00    +0.000 OA
ATOM     24  N   UNL     1       0.834  10.538  19.611  0.00  0.00    +0.000 N 
ATOM     25  H   UNL     1      -0.220  12.643  20.092  0.00  0.00    +0.000 HD
ATOM     26  H   UNL     1       1.448  11.259  19.956  0.00  0.00    +0.000 HD
BRANCH  21  32
ATOM     27  C   UNL     1      -3.793  12.620  24.196  0.00  0.00    +0.000 C 
ATOM     28  C   UNL     1      -3.592  12.647  22.710  0.00  0.00    +0.000 A 
ATOM     29  C   UNL     1      -4.651  12.982  21.863  0.00  0.00    +0.000 A 
ATOM     30  C   UNL     1      -4.468  12.995  20.491  0.00  0.00    +0.000 A 
ATOM     31  C   UNL     1      -3.231  12.661  19.943  0.00  0.00    +0.000 A 
ATOM     32  C   UNL     1      -2.155  12.302  20.767  0.00  0.00    +0.000 A 
ATOM     33  C   UNL     1      -2.341  12.321  22.156  0.00  0.00    +0.000 A 
ENDBRANCH  21  32
ENDBRANCH   1  24
TORSDOF 3
ENDMDL
MODEL 3
REMARK VINA RESULT:      -8.8      3.351      4.326
REMARK  Name = 
REMARK  4 active torsions:
REMARK  status: ('A' for Active; 'I' for Inactive)
REMARK    1  A    between atoms: C_1  and  C_2
REMARK    2  A    between atoms: C_6  and  N_7
REMARK    3  A    between atoms: N_10  and  C_11
REMARK    4  A    between atoms: C_14  and  C_15
REMARK                            x       y       z     vdW  Elec       q    Type
REMARK                         _______ _______ _______ _____ _____    ______ ____
ROOT
ATOM      1  C   UNL     1       1.343   9.459  19.110  0.00  0.00    +0.000 A 
ATOM      2  C   UNL     1       1.656   9.039  17.817  0.00  0.00    +0.000 A 
ATOM      3  C   UNL     1       2.099   7.734  17.579  0.00  0.00    +0.000 A 
ATOM      4  C   UNL     1       2.278   6.818  18.629  0.00  0.00    +0.000 A 
ATOM      5  C   UNL     1       2.091   7.313  19.931  0.00  0.00    +0.000 A 
ATOM      6  C   UNL     1       1.601   8.603  20.175  0.00  0.00    +0.000 A 
ENDROOT
BRANCH   4   7
ATOM      7  C   UNL     1       2.654   5.411  18.362  0.00  0.00    +0.000 A 
ATOM      8  C   UNL     1       1.764   4.352  18.695  0.00  0.00    +0.000 A 
ATOM      9  C   UNL     1       2.067   3.012  18.452  0.00  0.00    +0.000 A 
ATOM     10  C   UNL     1       3.264   2.676  17.844  0.00  0.00    +0.000 A 
ATOM     11  F   UNL     1       3.557   1.396  17.582  0.00  0.00    +0.000 F 
ATOM     12  C   UNL     1       4.147   3.695  17.513  0.00  0.00    +0.000 A 
ATOM     13  N   UNL     1       5.362   3.634  16.896  0.00  0.00    +0.000 N 
ATOM     14  N   UNL     1       5.961   4.821  16.747  0.00  0.00    +0.000 NA
ATOM     15  C   UNL     1       5.107   5.678  17.302  0.00  0.00    +0.000 A 
ATOM     16  N   UNL     1       5.403   6.985  17.368  0.00  0.00    +0.000 N 
ATOM     17  C   UNL     1       3.904   5.046  17.770  0.00  0.00    +0.000 A 
ATOM     18  H   UNL     1       5.833   2.807  16.548  0.00  0.00    +0.000 HD
ATOM     19  H   UNL     1       6.326   7.258  17.053  0.00  0.00    +0.000 HD
ATOM     20  H   UNL     1       5.055   7.544  18.140  0.00  0.00    +0.000 HD
ENDBRANCH   4   7
BRANCH   1  24
ATOM     21  N   UNL     1       0.612  13.011  19.322  0.00  0.00    +0.000 N 
ATOM     22  C   UNL     1       1.345  11.895  18.959  0.00  0.00    +0.000 C 
ATOM     23  O   UNL     1       2.386  11.920  18.312  0.00  0.00    +0.000 OA
ATOM     24  N   UNL     1       0.739  10.714  19.366  0.00  0.00    +0.000 N 
ATOM     25  H   UNL     1      -0.246  12.856  19.829  0.00  0.00    +0.000 HD
ATOM     26  H   UNL     1      -0.269  10.727  19.403  0.00  0.00    +0.000 HD
BRANCH  21  32
ATOM     27  C   UNL     1      -0.988  17.539  18.179  0.00  0.00    +0.000 C 
ATOM     28  C   UNL     1       0.144  16.586  18.422  0.00  0.00    +0.000 A 
ATOM     29  C   UNL     1       1.466  17.006  18.255  0.00  0.00    +0.000 A 
ATOM     30  C   UNL     1       2.510  16.121  18.468  0.00  0.00    +0.000 A 
ATOM     31  C   UNL     1       2.250  14.803  18.837  0.00  0.00    +0.000 A 
ATOM     32  C   UNL     1       0.934  14.348  18.994  0.00  0.00    +0.000 A 
ATOM     33  C   UNL     1      -0.116  15.258  18.805  0.00  0.00    +0.000 A 
ENDBRANCH  21  32
ENDBRANCH   1  24
TORSDOF 3
ENDMDL
MODEL 4
REMARK VINA RESULT:      -8.8      0.404      1.253
REMARK  Name = 
REMARK  4 active torsions:
REMARK  status: ('A' for Active; 'I' for Inactive)
REMARK    1  A    between atoms: C_1  and  C_2
REMARK    2  A    between atoms: C_6  and  N_7
REMARK    3  A    between atoms: N_10  and  C_11
REMARK    4  A    between atoms: C_14  and  C_15
REMARK                            x       y       z     vdW  Elec       q    Type
REMARK                         _______ _______ _______ _____ _____    ______ ____
ROOT
ATOM      1  C   UNL     1       1.542   9.306  19.520  0.00  0.00    +0.000 A 
ATOM      2  C   UNL     1       1.881   8.151  20.226  0.00  0.00    +0.000 A 
ATOM      3  C   UNL     1       2.537   7.093  19.589  0.00  0.00    +0.000 A 
ATOM      4  C   UNL     1       2.843   7.139  18.219  0.00  0.00    +0.000 A 
ATOM      5  C   UNL     1       2.363   8.252  17.507  0.00  0.00    +0.000 A 
ATOM      6  C   UNL     1       1.749   9.338  18.145  0.00  0.00    +0.000 A 
ENDROOT
BRANCH   4   7
ATOM      7  C   UNL     1       3.622   6.060  17.572  0.00  0.00    +0.000 A 
ATOM      8  C   UNL     1       4.676   6.373  16.669  0.00  0.00    +0.000 A 
ATOM      9  C   UNL     1       5.447   5.392  16.044  0.00  0.00    +0.000 A 
ATOM     10  C   UNL     1       5.210   4.055  16.314  0.00  0.00    +0.000 A 
ATOM     11  F   UNL     1       5.958   3.104  15.741  0.00  0.00    +0.000 F 
ATOM     12  C   UNL     1       4.185   3.728  17.191  0.00  0.00    +0.000 A 
ATOM     13  N   UNL     1       3.769   2.507  17.636  0.00  0.00    +0.000 N 
ATOM     14  N   UNL     1       2.726   2.555  18.472  0.00  0.00    +0.000 NA
ATOM     15  C   UNL     1       2.449   3.854  18.559  0.00  0.00    +0.000 A 
ATOM     16  N   UNL     1       1.415   4.279  19.300  0.00  0.00    +0.000 N 
ATOM     17  C   UNL     1       3.363   4.672  17.811  0.00  0.00    +0.000 A 
ATOM     18  H   UNL     1       4.164   1.603  17.405  0.00  0.00    +0.000 HD
ATOM     19  H   UNL     1       0.825   3.565  19.711  0.00  0.00    +0.000 HD
ATOM     20  H   UNL     1       0.910   5.118  19.030  0.00  0.00    +0.000 HD
ENDBRANCH   4   7
BRANCH   1  24
ATOM     21  N   UNL     1      -0.612  11.730  21.156  0.00  0.00    +0.000 N 
ATOM     22  C   UNL     1      -0.298  10.518  20.568  0.00  0.00    +0.000 C 
ATOM     23  O   UNL     1      -1.074   9.576  20.449  0.00  0.00    +0.000 OA
ATOM     24  N   UNL     1       1.028  10.457  20.165  0.00  0.00    +0.000 N 
ATOM     25  H   UNL     1       0.125  12.417  21.222  0.00  0.00    +0.000 HD
ATOM     26  H   UNL     1       1.682  10.988  20.721  0.00  0.00    +0.000 HD
BRANCH  21  32
ATOM     27  C   UNL     1      -5.106  13.675  20.530  0.00  0.00    +0.000 C 
ATOM     28  C   UNL     1      -4.081  13.038  21.419  0.00  0.00    +0.000 A 
ATOM     29  C   UNL     1      -4.343  12.857  22.779  0.00  0.00    +0.000 A 
ATOM     30  C   UNL     1      -3.391  12.279  23.601  0.00  0.00    +0.000 A 
ATOM     31  C   UNL     1      -2.160  11.885  23.082  0.00  0.00    +0.000 A 
ATOM     32  C   UNL     1      -1.861  12.070  21.725  0.00  0.00    +0.000 A 
ATOM     33  C   UNL     1      -2.841  12.628  20.894  0.00  0.00    +0.000 A 
ENDBRANCH  21  32
ENDBRANCH   1  24
TORSDOF 3
ENDMDL
MODEL 5
REMARK VINA RESULT:      -8.8      1.548      2.659
REMARK  Name = 
REMARK  4 active torsions:
REMARK  status: ('A' for Active; 'I' for Inactive)
REMARK    1  A    between atoms: C_1  and  C_2
REMARK    2  A    between atoms: C_6  and  N_7
REMARK    3  A    between atoms: N_10  and  C_11
REMARK    4  A    between atoms: C_14  and  C_15
REMARK                            x       y       z     vdW  Elec       q    Type
REMARK                         _______ _______ _______ _____ _____    ______ ____
ROOT
ATOM      1  C   UNL     1       1.457   9.240  19.271  0.00  0.00    +0.000 A 
ATOM      2  C   UNL     1       1.745   8.851  17.962  0.00  0.00    +0.000 A 
ATOM      3  C   UNL     1       2.186   7.553  17.686  0.00  0.00    +0.000 A 
ATOM      4  C   UNL     1       2.388   6.614  18.710  0.00  0.00    +0.000 A 
ATOM      5  C   UNL     1       2.226   7.078  20.027  0.00  0.00    +0.000 A 
ATOM      6  C   UNL     1       1.738   8.360  20.311  0.00  0.00    +0.000 A 
ENDROOT
BRANCH   4   7
ATOM      7  C   UNL     1       2.761   5.214  18.404  0.00  0.00    +0.000 A 
ATOM      8  C   UNL     1       1.887   4.144  18.742  0.00  0.00    +0.000 A 
ATOM      9  C   UNL     1       2.188   2.810  18.462  0.00  0.00    +0.000 A 
ATOM     10  C   UNL     1       3.368   2.493  17.811  0.00  0.00    +0.000 A 
ATOM     11  F   UNL     1       3.657   1.220  17.514  0.00  0.00    +0.000 F 
ATOM     12  C   UNL     1       4.235   3.523  17.473  0.00  0.00    +0.000 A 
ATOM     13  N   UNL     1       5.431   3.481  16.817  0.00  0.00    +0.000 N 
ATOM     14  N   UNL     1       6.019   4.673  16.674  0.00  0.00    +0.000 NA
ATOM     15  C   UNL     1       5.179   5.515  17.273  0.00  0.00    +0.000 A 
ATOM     16  N   UNL     1       5.471   6.821  17.356  0.00  0.00    +0.000 N 
ATOM     17  C   UNL     1       3.994   4.867  17.765  0.00  0.00    +0.000 A 
ATOM     18  H   UNL     1       5.894   2.663  16.438  0.00  0.00    +0.000 HD
ATOM     19  H   UNL     1       6.383   7.106  17.018  0.00  0.00    +0.000 HD
ATOM     20  H   UNL     1       5.145   7.363  18.150  0.00  0.00    +0.000 HD
ENDBRANCH   4   7
BRANCH   1  24
ATOM     21  N   UNL     1      -0.811  11.856  20.371  0.00  0.00    +0.000 N 
ATOM     22  C   UNL     1      -0.384  10.552  20.189  0.00  0.00    +0.000 C 
ATOM     23  O   UNL     1      -0.992   9.557  20.568  0.00  0.00    +0.000 OA
ATOM     24  N   UNL     1       0.855  10.487  19.568  0.00  0.00    +0.000 N 
ATOM     25  H   UNL     1      -0.204  12.592  20.041  0.00  0.00    +0.000 HD
ATOM     26  H   UNL     1       1.483  11.253  19.757  0.00  0.00    +0.000 HD
BRANCH  21  32
ATOM     27  C   UNL     1      -5.443  13.525  20.012  0.00  0.00    +0.000 C 
ATOM     28  C   UNL     1      -4.285  13.081  20.856  0.00  0.00    +0.000 A 
ATOM     29  C   UNL     1      -4.372  13.127  22.250  0.00  0.00    +0.000 A 
ATOM     30  C   UNL     1      -3.298  12.728  23.027  0.00  0.00    +0.000 A 
ATOM     31  C   UNL     1      -2.120  12.289  22.427  0.00  0.00    +0.000 A 
ATOM     32  C   UNL     1      -1.997  12.249  21.031  0.00  0.00    +0.000 A 
ATOM     33  C   UNL     1      -3.099  12.626  20.252  0.00  0.00    +0.000 A 
ENDBRANCH  21  32
ENDBRANCH   1  24
TORSDOF 3
ENDMDL
MODEL 6
REMARK VINA RESULT:      -8.8      1.574      2.054
REMARK  Name = 
REMARK  4 active torsions:
REMARK  status: ('A' for Active; 'I' for Inactive)
REMARK    1  A    between atoms: C_1  and  C_2
REMARK    2  A    between atoms: C_6  and  N_7
REMARK    3  A    between atoms: N_10  and  C_11
REMARK    4  A    between atoms: C_14  and  C_15
REMARK                            x       y       z     vdW  Elec       q    Type
REMARK                         _______ _______ _______ _____ _____    ______ ____
ROOT
ATOM      1  C   UNL     1       0.971   9.121  19.693  0.00  0.00    +0.000 A 
ATOM      2  C   UNL     1       1.347   9.301  18.361  0.00  0.00    +0.000 A 
ATOM      3  C   UNL     1       2.209   8.395  17.736  0.00  0.00    +0.000 A 
ATOM      4  C   UNL     1       2.751   7.301  18.430  0.00  0.00    +0.000 A 
ATOM      5  C   UNL     1       2.468   7.228  19.805  0.00  0.00    +0.000 A 
ATOM      6  C   UNL     1       1.567   8.102  20.428  0.00  0.00    +0.000 A 
ENDROOT
BRANCH   4   7
ATOM      7  C   UNL     1       3.585   6.293  17.738  0.00  0.00    +0.000 A 
ATOM      8  C   UNL     1       4.624   6.699  16.854  0.00  0.00    +0.000 A 
ATOM      9  C   UNL     1       5.445   5.787  16.190  0.00  0.00    +0.000 A 
ATOM     10  C   UNL     1       5.276   4.429  16.398  0.00  0.00    +0.000 A 
ATOM     11  F   UNL     1       6.072   3.545  15.786  0.00  0.00    +0.000 F 
ATOM     12  C   UNL     1       4.267   4.012  17.256  0.00  0.00    +0.000 A 
ATOM     13  N   UNL     1       3.913   2.752  17.644  0.00  0.00    +0.000 N 
ATOM     14  N   UNL     1       2.867   2.710  18.477  0.00  0.00    +0.000 NA
ATOM     15  C   UNL     1       2.525   3.988  18.621  0.00  0.00    +0.000 A 
ATOM     16  N   UNL     1       1.469   4.327  19.376  0.00  0.00    +0.000 N 
ATOM     17  C   UNL     1       3.397   4.884  17.914  0.00  0.00    +0.000 A 
ATOM     18  H   UNL     1       4.354   1.881  17.374  0.00  0.00    +0.000 HD
ATOM     19  H   UNL     1       0.916   3.566  19.752  0.00  0.00    +0.000 HD
ATOM     20  H   UNL     1       0.923   5.150  19.142  0.00  0.00    +0.000 HD
ENDBRANCH   4   7
BRANCH   1  24
ATOM     21  N   UNL     1      -0.791  11.711  21.533  0.00  0.00    +0.000 N 
ATOM     22  C   UNL     1       0.314  11.084  20.985  0.00  0.00    +0.000 C 
ATOM     23  O   UNL     1       1.461  11.515  21.040  0.00  0.00    +0.000 OA
ATOM     24  N   UNL     1      -0.023   9.921  20.307  0.00  0.00    +0.000 N 
ATOM     25  H   UNL     1      -1.689  11.270  21.393  0.00  0.00    +0.000 HD
ATOM     26  H   UNL     1      -0.935   9.912  19.876  0.00  0.00    +0.000 HD
BRANCH  21  32
ATOM     27  C   UNL     1      -2.800  14.574  25.017  0.00  0.00    +0.000 C 
ATOM     28  C   UNL     1      -1.777  14.364  23.941  0.00  0.00    +0.000 A 
ATOM     29  C   UNL     1      -0.895  15.392  23.597  0.00  0.00    +0.000 A 
ATOM     30  C   UNL     1       0.041  15.201  22.596  0.00  0.00    +0.000 A 
ATOM     31  C   UNL     1       0.103  13.987  21.913  0.00  0.00    +0.000 A 
ATOM     32  C   UNL     1      -0.780  12.944  22.223  0.00  0.00    +0.000 A 
ATOM     33  C   UNL     1      -1.705  13.136  23.259  0.00  0.00    +0.000 A 
ENDBRANCH  21  32
ENDBRANCH   1  24
TORSDOF 3
ENDMDL
MODEL 7
REMARK VINA RESULT:      -8.8      2.452      3.330
REMARK  Name = 
REMARK  4 active torsions:
REMARK  status: ('A' for Active; 'I' for Inactive)
REMARK    1  A    between atoms: C_1  and  C_2
REMARK    2  A    between atoms: C_6  and  N_7
REMARK    3  A    between atoms: N_10  and  C_11
REMARK    4  A    between atoms: C_14  and  C_15
REMARK                            x       y       z     vdW  Elec       q    Type
REMARK                         _______ _______ _______ _____ _____    ______ ____
ROOT
ATOM      1  C   UNL     1       1.098   9.366  18.916  0.00  0.00    +0.000 A 
ATOM      2  C   UNL     1       1.704   8.722  17.836  0.00  0.00    +0.000 A 
ATOM      3  C   UNL     1       2.364   7.502  18.014  0.00  0.00    +0.000 A 
ATOM      4  C   UNL     1       2.472   6.905  19.281  0.00  0.00    +0.000 A 
ATOM      5  C   UNL     1       1.976   7.646  20.368  0.00  0.00    +0.000 A 
ATOM      6  C   UNL     1       1.270   8.845  20.193  0.00  0.00    +0.000 A 
ENDROOT
BRANCH   4   7
ATOM      7  C   UNL     1       3.087   5.569  19.448  0.00  0.00    +0.000 A 
ATOM      8  C   UNL     1       2.438   4.568  20.225  0.00  0.00    +0.000 A 
ATOM      9  C   UNL     1       2.971   3.291  20.401  0.00  0.00    +0.000 A 
ATOM     10  C   UNL     1       4.166   2.953  19.790  0.00  0.00    +0.000 A 
ATOM     11  F   UNL     1       4.676   1.723  19.930  0.00  0.00    +0.000 F 
ATOM     12  C   UNL     1       4.816   3.916  19.028  0.00  0.00    +0.000 A 
ATOM     13  N   UNL     1       5.976   3.831  18.315  0.00  0.00    +0.000 N 
ATOM     14  N   UNL     1       6.328   4.969  17.707  0.00  0.00    +0.000 NA
ATOM     15  C   UNL     1       5.368   5.824  18.052  0.00  0.00    +0.000 A 
ATOM     16  N   UNL     1       5.416   7.101  17.644  0.00  0.00    +0.000 N 
ATOM     17  C   UNL     1       4.341   5.217  18.854  0.00  0.00    +0.000 A 
ATOM     18  H   UNL     1       6.569   3.018  18.202  0.00  0.00    +0.000 HD
ATOM     19  H   UNL     1       6.247   7.386  17.140  0.00  0.00    +0.000 HD
ATOM     20  H   UNL     1       5.022   7.833  18.226  0.00  0.00    +0.000 HD
ENDBRANCH   4   7
BRANCH   1  24
ATOM     21  N   UNL     1      -1.704  11.625  18.420  0.00  0.00    +0.000 N 
ATOM     22  C   UNL     1      -1.091  10.397  18.598  0.00  0.00    +0.000 C 
ATOM     23  O   UNL     1      -1.681   9.324  18.671  0.00  0.00    +0.000 OA
ATOM     24  N   UNL     1       0.284  10.512  18.744  0.00  0.00    +0.000 N 
ATOM     25  H   UNL     1      -1.110  12.441  18.408  0.00  0.00    +0.000 HD
ATOM     26  H   UNL     1       0.611  11.362  19.178  0.00  0.00    +0.000 HD
BRANCH  21  32
ATOM     27  C   UNL     1      -5.917  12.965  20.616  0.00  0.00    +0.000 C 
ATOM     28  C   UNL     1      -5.182  12.497  19.396  0.00  0.00    +0.000 A 
ATOM     29  C   UNL     1      -5.879  12.221  18.216  0.00  0.00    +0.000 A 
ATOM     30  C   UNL     1      -5.200  11.778  17.094  0.00  0.00    +0.000 A 
ATOM     31  C   UNL     1      -3.820  11.591  17.135  0.00  0.00    +0.000 A 
ATOM     32  C   UNL     1      -3.096  11.841  18.309  0.00  0.00    +0.000 A 
ATOM     33  C   UNL     1      -3.787  12.318  19.432  0.00  0.00    +0.000 A 
ENDBRANCH  21  32
ENDBRANCH   1  24
TORSDOF 3
ENDMDL
MODEL 8
REMARK VINA RESULT:      -8.7      1.847      2.972
REMARK  Name = 
REMARK  4 active torsions:
REMARK  status: ('A' for Active; 'I' for Inactive)
REMARK    1  A    between atoms: C_1  and  C_2
REMARK    2  A    between atoms: C_6  and  N_7
REMARK    3  A    between atoms: N_10  and  C_11
REMARK    4  A    between atoms: C_14  and  C_15
REMARK                            x       y       z     vdW  Elec       q    Type
REMARK                         _______ _______ _______ _____ _____    ______ ____
ROOT
ATOM      1  C   UNL     1       1.348   9.297  19.123  0.00  0.00    +0.000 A 
ATOM      2  C   UNL     1       1.717   8.903  17.837  0.00  0.00    +0.000 A 
ATOM      3  C   UNL     1       2.210   7.615  17.601  0.00  0.00    +0.000 A 
ATOM      4  C   UNL     1       2.385   6.694  18.647  0.00  0.00    +0.000 A 
ATOM      5  C   UNL     1       2.139   7.168  19.947  0.00  0.00    +0.000 A 
ATOM      6  C   UNL     1       1.599   8.439  20.188  0.00  0.00    +0.000 A 
ENDROOT
BRANCH   4   7
ATOM      7  C   UNL     1       2.815   5.304  18.379  0.00  0.00    +0.000 A 
ATOM      8  C   UNL     1       1.977   4.209  18.730  0.00  0.00    +0.000 A 
ATOM      9  C   UNL     1       2.333   2.882  18.486  0.00  0.00    +0.000 A 
ATOM     10  C   UNL     1       3.533   2.595  17.860  0.00  0.00    +0.000 A 
ATOM     11  F   UNL     1       3.875   1.327  17.597  0.00  0.00    +0.000 F 
ATOM     12  C   UNL     1       4.366   3.649  17.509  0.00  0.00    +0.000 A 
ATOM     13  N   UNL     1       5.572   3.637  16.872  0.00  0.00    +0.000 N 
ATOM     14  N   UNL     1       6.117   4.848  16.709  0.00  0.00    +0.000 NA
ATOM     15  C   UNL     1       5.237   5.670  17.276  0.00  0.00    +0.000 A 
ATOM     16  N   UNL     1       5.478   6.988  17.332  0.00  0.00    +0.000 N 
ATOM     17  C   UNL     1       4.071   4.990  17.766  0.00  0.00    +0.000 A 
ATOM     18  H   UNL     1       6.072   2.829  16.519  0.00  0.00    +0.000 HD
ATOM     19  H   UNL     1       6.384   7.300  17.001  0.00  0.00    +0.000 HD
ATOM     20  H   UNL     1       5.120   7.536  18.108  0.00  0.00    +0.000 HD
ENDBRANCH   4   7
BRANCH   1  24
ATOM     21  N   UNL     1      -1.136  11.900  19.629  0.00  0.00    +0.000 N 
ATOM     22  C   UNL     1      -0.691  10.611  19.394  0.00  0.00    +0.000 C 
ATOM     23  O   UNL     1      -1.418   9.632  19.267  0.00  0.00    +0.000 OA
ATOM     24  N   UNL     1       0.694  10.529  19.372  0.00  0.00    +0.000 N 
ATOM     25  H   UNL     1      -0.435  12.617  19.747  0.00  0.00    +0.000 HD
ATOM     26  H   UNL     1       1.184  11.185  19.962  0.00  0.00    +0.000 HD
BRANCH  21  32
ATOM     27  C   UNL     1      -5.705  11.935  17.761  0.00  0.00    +0.000 C 
ATOM     28  C   UNL     1      -4.745  12.315  18.848  0.00  0.00    +0.000 A 
ATOM     29  C   UNL     1      -5.176  13.090  19.928  0.00  0.00    +0.000 A 
ATOM     30  C   UNL     1      -4.285  13.450  20.925  0.00  0.00    +0.000 A 
ATOM     31  C   UNL     1      -2.951  13.053  20.854  0.00  0.00    +0.000 A 
ATOM     32  C   UNL     1      -2.486  12.291  19.774  0.00  0.00    +0.000 A 
ATOM     33  C   UNL     1      -3.401  11.905  18.784  0.00  0.00    +0.000 A 
ENDBRANCH  21  32
ENDBRANCH   1  24
TORSDOF 3
ENDMDL
MODEL 9
REMARK VINA RESULT:      -8.6      1.574      2.304
REMARK  Name = 
REMARK  4 active torsions:
REMARK  status: ('A' for Active; 'I' for Inactive)
REMARK    1  A    between atoms: C_1  and  C_2
REMARK    2  A    between atoms: C_6  and  N_7
REMARK    3  A    between atoms: N_10  and  C_11
REMARK    4  A    between atoms: C_14  and  C_15
REMARK                            x       y       z     vdW  Elec       q    Type
REMARK                         _______ _______ _______ _____ _____    ______ ____
ROOT
ATOM      1  C   UNL     1       0.873   9.091  19.480  0.00  0.00    +0.000 A 
ATOM      2  C   UNL     1       1.316   9.275  18.169  0.00  0.00    +0.000 A 
ATOM      3  C   UNL     1       2.259   8.409  17.607  0.00  0.00    +0.000 A 
ATOM      4  C   UNL     1       2.817   7.354  18.347  0.00  0.00    +0.000 A 
ATOM      5  C   UNL     1       2.459   7.281  19.704  0.00  0.00    +0.000 A 
ATOM      6  C   UNL     1       1.479   8.114  20.262  0.00  0.00    +0.000 A 
ENDROOT
BRANCH   4   7
ATOM      7  C   UNL     1       3.741   6.383  17.719  0.00  0.00    +0.000 A 
ATOM      8  C   UNL     1       4.866   6.836  16.974  0.00  0.00    +0.000 A 
ATOM      9  C   UNL     1       5.773   5.961  16.375  0.00  0.00    +0.000 A 
ATOM     10  C   UNL     1       5.605   4.594  16.515  0.00  0.00    +0.000 A 
ATOM     11  F   UNL     1       6.481   3.743  15.966  0.00  0.00    +0.000 F 
ATOM     12  C   UNL     1       4.514   4.131  17.238  0.00  0.00    +0.000 A 
ATOM     13  N   UNL     1       4.141   2.853  17.538  0.00  0.00    +0.000 N 
ATOM     14  N   UNL     1       3.009   2.766  18.245  0.00  0.00    +0.000 NA
ATOM     15  C   UNL     1       2.629   4.033  18.394  0.00  0.00    +0.000 A 
ATOM     16  N   UNL     1       1.490   4.329  19.036  0.00  0.00    +0.000 N 
ATOM     17  C   UNL     1       3.560   4.966  17.823  0.00  0.00    +0.000 A 
ATOM     18  H   UNL     1       4.625   1.998  17.289  0.00  0.00    +0.000 HD
ATOM     19  H   UNL     1       0.911   3.547  19.319  0.00  0.00    +0.000 HD
ATOM     20  H   UNL     1       0.958   5.152  18.771  0.00  0.00    +0.000 HD
ENDBRANCH   4   7
BRANCH   1  24
ATOM     21  N   UNL     1      -1.131  11.630  21.132  0.00  0.00    +0.000 N 
ATOM     22  C   UNL     1       0.034  11.062  20.648  0.00  0.00    +0.000 C 
ATOM     23  O   UNL     1       1.144  11.580  20.709  0.00  0.00    +0.000 OA
ATOM     24  N   UNL     1      -0.195   9.844  20.024  0.00  0.00    +0.000 N 
ATOM     25  H   UNL     1      -1.989  11.117  20.993  0.00  0.00    +0.000 HD
ATOM     26  H   UNL     1      -1.090   9.744  19.569  0.00  0.00    +0.000 HD
BRANCH  21  32
ATOM     27  C   UNL     1      -1.480  16.528  20.627  0.00  0.00    +0.000 C 
ATOM     28  C   UNL     1      -1.398  15.317  21.508  0.00  0.00    +0.000 A 
ATOM     29  C   UNL     1      -1.353  15.459  22.897  0.00  0.00    +0.000 A 
ATOM     30  C   UNL     1      -1.265  14.341  23.708  0.00  0.00    +0.000 A 
ATOM     31  C   UNL     1      -1.208  13.067  23.147  0.00  0.00    +0.000 A 
ATOM     32  C   UNL     1      -1.232  12.894  21.756  0.00  0.00    +0.000 A 
ATOM     33  C   UNL     1      -1.352  14.030  20.943  0.00  0.00    +0.000 A 
ENDBRANCH  21  32
ENDBRANCH   1  24
TORSDOF 3
ENDMDL
