MODEL 1
REMARK VINA RESULT:      -7.4      0.000      0.000
REMARK  Name = 
REMARK  15 active torsions:
REMARK  status: ('A' for Active; 'I' for Inactive)
REMARK    1  A    between atoms: C_1  and  C_2
REMARK    2  A    between atoms: C_2  and  C_3
REMARK    3  A    between atoms: C_3  and  C_4
REMARK    4  A    between atoms: C_4  and  C_5
REMARK    5  A    between atoms: C_4  and  C_6
REMARK    6  A    between atoms: C_6  and  O_7
REMARK    7  A    between atoms: O_7  and  C_8
REMARK    8  A    between atoms: C_11  and  CA_12
REMARK    9  A    between atoms: CA_12  and  C_13
REMARK   10  A    between atoms: CA_12  and  N_15
REMARK   11  A    between atoms: C_13  and  O_14
REMARK   12  A    between atoms: C_16  and  C_18
REMARK   13  A    between atoms: C_18  and  C_19
REMARK   14  A    between atoms: C_18  and  C_21
REMARK   15  A    between atoms: C_19  and  O_20
REMARK                            x       y       z     vdW  Elec       q    Type
REMARK                         _______ _______ _______ _____ _____    ______ ____
ROOT
ATOM      1  CA  UNL     1       3.253   3.542  17.762  0.00  0.00    +0.000 C 
ENDROOT
BRANCH   1   5
ATOM      2  C   UNL     1       2.035   7.062  19.985  0.00  0.00    +0.000 A 
ATOM      3  C   UNL     1       2.548   7.150  18.690  0.00  0.00    +0.000 A 
ATOM      4  C   UNL     1       2.897   6.002  17.983  0.00  0.00    +0.000 A 
ATOM      5  C   UNL     1       2.741   4.733  18.550  0.00  0.00    +0.000 A 
ATOM      6  C   UNL     1       2.171   4.638  19.830  0.00  0.00    +0.000 A 
ATOM      7  C   UNL     1       1.824   5.795  20.542  0.00  0.00    +0.000 A 
BRANCH   2   8
ATOM      8  O   UNL     1       1.730   8.137  20.779  0.00  0.00    +0.000 OA
BRANCH   8   9
ATOM      9  C   UNL     1       0.558   7.969  21.584  0.00  0.00    +0.000 C 
BRANCH   9  10
ATOM     10  C   UNL     1      -0.325   9.222  21.552  0.00  0.00    +0.000 C 
ATOM     11  C   UNL     1       0.103  10.084  20.360  0.00  0.00    +0.000 C 
BRANCH  10  12
ATOM     12  C   UNL     1      -0.224   9.984  22.885  0.00  0.00    +0.000 C 
BRANCH  12  14
ATOM     13  C   UNL     1      -0.972  12.383  22.742  0.00  0.00    +0.000 C 
ATOM     14  C   UNL     1      -1.380  10.963  23.097  0.00  0.00    +0.000 C 
ENDBRANCH  12  14
ENDBRANCH  10  12
ENDBRANCH   9  10
ENDBRANCH   8   9
ENDBRANCH   2   8
ENDBRANCH   1   5
BRANCH   1  15
ATOM     15  N   UNL     1       4.669   3.683  17.473  0.00  0.00    +0.000 N 
ATOM     16  C   UNL     1       5.089   4.008  16.204  0.00  0.00    +0.000 C 
ATOM     17  O   UNL     1       4.298   4.227  15.288  0.00  0.00    +0.000 OA
ATOM     18  H   UNL     1       5.338   3.320  18.138  0.00  0.00    +0.000 HD
BRANCH  16  19
ATOM     19  C   UNL     1       6.597   4.159  16.043  0.00  0.00    +0.000 C 
BRANCH  19  20
ATOM     20  C   UNL     1       7.139   5.216  16.999  0.00  0.00    +0.000 A 
ATOM     21  C   UNL     1       7.090   6.575  16.649  0.00  0.00    +0.000 A 
ATOM     22  C   UNL     1       7.597   7.549  17.513  0.00  0.00    +0.000 A 
ATOM     23  C   UNL     1       8.156   7.181  18.734  0.00  0.00    +0.000 A 
ATOM     24  C   UNL     1       8.207   5.838  19.096  0.00  0.00    +0.000 A 
ATOM     25  C   UNL     1       7.704   4.862  18.235  0.00  0.00    +0.000 A 
ENDBRANCH  19  20
BRANCH  19  26
ATOM     26  C   UNL     1       6.882   4.483  14.568  0.00  0.00    +0.000 C 
BRANCH  26  27
ATOM     27  O   UNL     1       6.428   3.444  13.702  0.00  0.00    +0.000 OA
ATOM     28  H   UNL     1       5.462   3.395  13.813  0.00  0.00    +0.000 HD
ENDBRANCH  26  27
ENDBRANCH  19  26
ENDBRANCH  16  19
ENDBRANCH   1  15
BRANCH   1  29
ATOM     29  C   UNL     1       2.895   2.178  18.391  0.00  0.00    +0.000 C 
BRANCH  29  30
ATOM     30  O   UNL     1       3.977   1.248  18.323  0.00  0.00    +0.000 OA
ATOM     31  H   UNL     1       3.586   0.381  18.126  0.00  0.00    +0.000 HD
ENDBRANCH  29  30
ENDBRANCH   1  29
TORSDOF 13
ENDMDL
MODEL 2
REMARK VINA RESULT:      -7.4      2.762      6.811
REMARK  Name = 
REMARK  15 active torsions:
REMARK  status: ('A' for Active; 'I' for Inactive)
REMARK    1  A    between atoms: C_1  and  C_2
REMARK    2  A    between atoms: C_2  and  C_3
REMARK    3  A    between atoms: C_3  and  C_4
REMARK    4  A    between atoms: C_4  and  C_5
REMARK    5  A    between atoms: C_4  and  C_6
REMARK    6  A    between atoms: C_6  and  O_7
REMARK    7  A    between atoms: O_7  and  C_8
REMARK    8  A    between atoms: C_11  and  CA_12
REMARK    9  A    between atoms: CA_12  and  C_13
REMARK   10  A    between atoms: CA_12  and  N_15
REMARK   11  A    between atoms: C_13  and  O_14
REMARK   12  A    between atoms: C_16  and  C_18
REMARK   13  A    between atoms: C_18  and  C_19
REMARK   14  A    between atoms: C_18  and  C_21
REMARK   15  A    between atoms: C_19  and  O_20
REMARK                            x       y       z     vdW  Elec       q    Type
REMARK                         _______ _______ _______ _____ _____    ______ ____
ROOT
ATOM      1  CA  UNL     1       6.058   4.334  16.506  0.00  0.00    +0.000 C 
ENDROOT
BRANCH   1   5
ATOM      2  C   UNL     1       8.173   7.611  18.404  0.00  0.00    +0.000 A 
ATOM      3  C   UNL     1       7.339   7.812  17.303  0.00  0.00    +0.000 A 
ATOM      4  C   UNL     1       6.642   6.749  16.735  0.00  0.00    +0.000 A 
ATOM      5  C   UNL     1       6.757   5.455  17.253  0.00  0.00    +0.000 A 
ATOM      6  C   UNL     1       7.549   5.260  18.395  0.00  0.00    +0.000 A 
ATOM      7  C   UNL     1       8.254   6.331  18.963  0.00  0.00    +0.000 A 
BRANCH   2   8
ATOM      8  O   UNL     1       8.949   8.581  18.984  0.00  0.00    +0.000 OA
BRANCH   8   9
ATOM      9  C   UNL     1       8.770   9.892  18.436  0.00  0.00    +0.000 C 
BRANCH   9  10
ATOM     10  C   UNL     1       9.872  10.848  18.906  0.00  0.00    +0.000 C 
ATOM     11  C   UNL     1       9.583  11.241  20.359  0.00  0.00    +0.000 C 
BRANCH  10  12
ATOM     12  C   UNL     1       9.951  12.074  17.980  0.00  0.00    +0.000 C 
BRANCH  12  14
ATOM     13  C   UNL     1       8.401  14.054  18.096  0.00  0.00    +0.000 C 
ATOM     14  C   UNL     1       8.574  12.626  17.607  0.00  0.00    +0.000 C 
ENDBRANCH  12  14
ENDBRANCH  10  12
ENDBRANCH   9  10
ENDBRANCH   8   9
ENDBRANCH   2   8
ENDBRANCH   1   5
BRANCH   1  15
ATOM     15  N   UNL     1       4.621   4.397  16.705  0.00  0.00    +0.000 N 
ATOM     16  C   UNL     1       4.048   3.809  17.810  0.00  0.00    +0.000 C 
ATOM     17  O   UNL     1       4.718   3.252  18.677  0.00  0.00    +0.000 OA
ATOM     18  H   UNL     1       4.035   4.666  15.928  0.00  0.00    +0.000 HD
BRANCH  16  19
ATOM     19  C   UNL     1       2.536   3.977  17.918  0.00  0.00    +0.000 C 
BRANCH  19  20
ATOM     20  C   UNL     1       2.187   5.143  18.836  0.00  0.00    +0.000 A 
ATOM     21  C   UNL     1       2.440   6.463  18.426  0.00  0.00    +0.000 A 
ATOM     22  C   UNL     1       2.137   7.537  19.266  0.00  0.00    +0.000 A 
ATOM     23  C   UNL     1       1.578   7.310  20.522  0.00  0.00    +0.000 A 
ATOM     24  C   UNL     1       1.319   6.007  20.939  0.00  0.00    +0.000 A 
ATOM     25  C   UNL     1       1.622   4.931  20.103  0.00  0.00    +0.000 A 
ENDBRANCH  19  20
BRANCH  19  26
ATOM     26  C   UNL     1       1.949   2.641  18.397  0.00  0.00    +0.000 C 
BRANCH  26  27
ATOM     27  O   UNL     1       2.741   1.533  17.972  0.00  0.00    +0.000 OA
ATOM     28  H   UNL     1       3.395   1.375  18.677  0.00  0.00    +0.000 HD
ENDBRANCH  26  27
ENDBRANCH  19  26
ENDBRANCH  16  19
ENDBRANCH   1  15
BRANCH   1  29
ATOM     29  C   UNL     1       6.460   4.231  15.019  0.00  0.00    +0.000 C 
BRANCH  29  30
ATOM     30  O   UNL     1       5.331   4.289  14.146  0.00  0.00    +0.000 OA
ATOM     31  H   UNL     1       4.642   4.788  14.615  0.00  0.00    +0.000 HD
ENDBRANCH  29  30
ENDBRANCH   1  29
TORSDOF 13
ENDMDL
MODEL 3
REMARK VINA RESULT:      -7.4      1.006      1.939
REMARK  Name = 
REMARK  15 active torsions:
REMARK  status: ('A' for Active; 'I' for Inactive)
REMARK    1  A    between atoms: C_1  and  C_2
REMARK    2  A    between atoms: C_2  and  C_3
REMARK    3  A    between atoms: C_3  and  C_4
REMARK    4  A    between atoms: C_4  and  C_5
REMARK    5  A    between atoms: C_4  and  C_6
REMARK    6  A    between atoms: C_6  and  O_7
REMARK    7  A    between atoms: O_7  and  C_8
REMARK    8  A    between atoms: C_11  and  CA_12
REMARK    9  A    between atoms: CA_12  and  C_13
REMARK   10  A    between atoms: CA_12  and  N_15
REMARK   11  A    between atoms: C_13  and  O_14
REMARK   12  A    between atoms: C_16  and  C_18
REMARK   13  A    between atoms: C_18  and  C_19
REMARK   14  A    between atoms: C_18  and  C_21
REMARK   15  A    between atoms: C_19  and  O_20
REMARK                            x       y       z     vdW  Elec       q    Type
REMARK                         _______ _______ _______ _____ _____    ______ ____
ROOT
ATOM      1  CA  UNL     1       3.869   3.060  18.522  0.00  0.00    +0.000 C 
ENDROOT
BRANCH   1   5
ATOM      2  C   UNL     1       1.647   6.245  20.454  0.00  0.00    +0.000 A 
ATOM      3  C   UNL     1       1.453   4.903  20.788  0.00  0.00    +0.000 A 
ATOM      4  C   UNL     1       2.206   3.902  20.180  0.00  0.00    +0.000 A 
ATOM      5  C   UNL     1       3.175   4.214  19.222  0.00  0.00    +0.000 A 
ATOM      6  C   UNL     1       3.413   5.565  18.926  0.00  0.00    +0.000 A 
ATOM      7  C   UNL     1       2.651   6.572  19.537  0.00  0.00    +0.000 A 
BRANCH   2   8
ATOM      8  O   UNL     1       0.907   7.288  20.949  0.00  0.00    +0.000 OA
BRANCH   8   9
ATOM      9  C   UNL     1       1.680   8.334  21.547  0.00  0.00    +0.000 C 
BRANCH   9  10
ATOM     10  C   UNL     1       0.862   9.622  21.687  0.00  0.00    +0.000 C 
ATOM     11  C   UNL     1      -0.071   9.474  22.894  0.00  0.00    +0.000 C 
BRANCH  10  12
ATOM     12  C   UNL     1       0.088   9.910  20.388  0.00  0.00    +0.000 C 
BRANCH  12  14
ATOM     13  C   UNL     1       1.002   9.561  18.069  0.00  0.00    +0.000 C 
ATOM     14  C   UNL     1       0.977  10.477  19.281  0.00  0.00    +0.000 C 
ENDBRANCH  12  14
ENDBRANCH  10  12
ENDBRANCH   9  10
ENDBRANCH   8   9
ENDBRANCH   2   8
ENDBRANCH   1   5
BRANCH   1  15
ATOM     15  N   UNL     1       5.141   3.483  17.964  0.00  0.00    +0.000 N 
ATOM     16  C   UNL     1       5.254   3.747  16.618  0.00  0.00    +0.000 C 
ATOM     17  O   UNL     1       4.293   3.676  15.854  0.00  0.00    +0.000 OA
ATOM     18  H   UNL     1       5.978   3.359  18.516  0.00  0.00    +0.000 HD
BRANCH  16  19
ATOM     19  C   UNL     1       6.633   4.216  16.167  0.00  0.00    +0.000 C 
BRANCH  19  20
ATOM     20  C   UNL     1       7.150   5.325  17.076  0.00  0.00    +0.000 A 
ATOM     21  C   UNL     1       7.072   6.667  16.667  0.00  0.00    +0.000 A 
ATOM     22  C   UNL     1       7.557   7.688  17.487  0.00  0.00    +0.000 A 
ATOM     23  C   UNL     1       8.123   7.386  18.724  0.00  0.00    +0.000 A 
ATOM     24  C   UNL     1       8.203   6.061  19.144  0.00  0.00    +0.000 A 
ATOM     25  C   UNL     1       7.722   5.038  18.326  0.00  0.00    +0.000 A 
ENDBRANCH  19  20
BRANCH  19  26
ATOM     26  C   UNL     1       6.523   4.649  14.697  0.00  0.00    +0.000 C 
BRANCH  26  27
ATOM     27  O   UNL     1       6.372   3.528  13.827  0.00  0.00    +0.000 OA
ATOM     28  H   UNL     1       6.385   3.881  12.918  0.00  0.00    +0.000 HD
ENDBRANCH  26  27
ENDBRANCH  19  26
ENDBRANCH  16  19
ENDBRANCH   1  15
BRANCH   1  29
ATOM     29  C   UNL     1       3.980   1.784  19.384  0.00  0.00    +0.000 C 
BRANCH  29  30
ATOM     30  O   UNL     1       4.306   0.630  18.608  0.00  0.00    +0.000 OA
ATOM     31  H   UNL     1       3.522   0.056  18.620  0.00  0.00    +0.000 HD
ENDBRANCH  29  30
ENDBRANCH   1  29
TORSDOF 13
ENDMDL
MODEL 4
REMARK VINA RESULT:      -7.3      0.993      1.870
REMARK  Name = 
REMARK  15 active torsions:
REMARK  status: ('A' for Active; 'I' for Inactive)
REMARK    1  A    between atoms: C_1  and  C_2
REMARK    2  A    between atoms: C_2  and  C_3
REMARK    3  A    between atoms: C_3  and  C_4
REMARK    4  A    between atoms: C_4  and  C_5
REMARK    5  A    between atoms: C_4  and  C_6
REMARK    6  A    between atoms: C_6  and  O_7
REMARK    7  A    between atoms: O_7  and  C_8
REMARK    8  A    between atoms: C_11  and  CA_12
REMARK    9  A    between atoms: CA_12  and  C_13
REMARK   10  A    between atoms: CA_12  and  N_15
REMARK   11  A    between atoms: C_13  and  O_14
REMARK   12  A    between atoms: C_16  and  C_18
REMARK   13  A    between atoms: C_18  and  C_19
REMARK   14  A    between atoms: C_18  and  C_21
REMARK   15  A    between atoms: C_19  and  O_20
REMARK                            x       y       z     vdW  Elec       q    Type
REMARK                         _______ _______ _______ _____ _____    ______ ____
ROOT
ATOM      1  CA  UNL     1       3.749   3.052  18.358  0.00  0.00    +0.000 C 
ENDROOT
BRANCH   1   5
ATOM      2  C   UNL     1       1.723   6.253  20.472  0.00  0.00    +0.000 A 
ATOM      3  C   UNL     1       1.446   4.909  20.728  0.00  0.00    +0.000 A 
ATOM      4  C   UNL     1       2.137   3.900  20.063  0.00  0.00    +0.000 A 
ATOM      5  C   UNL     1       3.126   4.205  19.123  0.00  0.00    +0.000 A 
ATOM      6  C   UNL     1       3.448   5.554  18.905  0.00  0.00    +0.000 A 
ATOM      7  C   UNL     1       2.748   6.569  19.573  0.00  0.00    +0.000 A 
BRANCH   2   8
ATOM      8  O   UNL     1       1.048   7.309  21.026  0.00  0.00    +0.000 OA
BRANCH   8   9
ATOM      9  C   UNL     1       1.498   8.597  20.590  0.00  0.00    +0.000 C 
BRANCH   9  10
ATOM     10  C   UNL     1       0.532   9.703  21.029  0.00  0.00    +0.000 C 
ATOM     11  C   UNL     1      -0.190   9.239  22.299  0.00  0.00    +0.000 C 
BRANCH  10  12
ATOM     12  C   UNL     1      -0.450  10.040  19.894  0.00  0.00    +0.000 C 
BRANCH  12  14
ATOM     13  C   UNL     1      -0.942  12.245  18.784  0.00  0.00    +0.000 C 
ATOM     14  C   UNL     1      -1.089  11.421  20.052  0.00  0.00    +0.000 C 
ENDBRANCH  12  14
ENDBRANCH  10  12
ENDBRANCH   9  10
ENDBRANCH   8   9
ENDBRANCH   2   8
ENDBRANCH   1   5
BRANCH   1  15
ATOM     15  N   UNL     1       5.053   3.422  17.836  0.00  0.00    +0.000 N 
ATOM     16  C   UNL     1       5.182   3.857  16.537  0.00  0.00    +0.000 C 
ATOM     17  O   UNL     1       4.213   3.986  15.790  0.00  0.00    +0.000 OA
ATOM     18  H   UNL     1       5.878   3.143  18.348  0.00  0.00    +0.000 HD
BRANCH  16  19
ATOM     19  C   UNL     1       6.597   4.246  16.125  0.00  0.00    +0.000 C 
BRANCH  19  20
ATOM     20  C   UNL     1       7.143   5.340  17.036  0.00  0.00    +0.000 A 
ATOM     21  C   UNL     1       7.617   5.018  18.319  0.00  0.00    +0.000 A 
ATOM     22  C   UNL     1       8.105   6.016  19.166  0.00  0.00    +0.000 A 
ATOM     23  C   UNL     1       8.128   7.344  18.747  0.00  0.00    +0.000 A 
ATOM     24  C   UNL     1       7.665   7.677  17.477  0.00  0.00    +0.000 A 
ATOM     25  C   UNL     1       7.174   6.683  16.628  0.00  0.00    +0.000 A 
ENDBRANCH  19  20
BRANCH  19  26
ATOM     26  C   UNL     1       6.558   4.663  14.647  0.00  0.00    +0.000 C 
BRANCH  26  27
ATOM     27  O   UNL     1       6.357   3.542  13.788  0.00  0.00    +0.000 OA
ATOM     28  H   UNL     1       6.249   2.766  14.368  0.00  0.00    +0.000 HD
ENDBRANCH  26  27
ENDBRANCH  19  26
ENDBRANCH  16  19
ENDBRANCH   1  15
BRANCH   1  29
ATOM     29  C   UNL     1       3.765   1.721  19.140  0.00  0.00    +0.000 C 
BRANCH  29  30
ATOM     30  O   UNL     1       4.228   0.629  18.344  0.00  0.00    +0.000 OA
ATOM     31  H   UNL     1       5.175   0.782  18.187  0.00  0.00    +0.000 HD
ENDBRANCH  29  30
ENDBRANCH   1  29
TORSDOF 13
ENDMDL
MODEL 5
REMARK VINA RESULT:      -7.2      2.913      6.907
REMARK  Name = 
REMARK  15 active torsions:
REMARK  status: ('A' for Active; 'I' for Inactive)
REMARK    1  A    between atoms: C_1  and  C_2
REMARK    2  A    between atoms: C_2  and  C_3
REMARK    3  A    between atoms: C_3  and  C_4
REMARK    4  A    between atoms: C_4  and  C_5
REMARK    5  A    between atoms: C_4  and  C_6
REMARK    6  A    between atoms: C_6  and  O_7
REMARK    7  A    between atoms: O_7  and  C_8
REMARK    8  A    between atoms: C_11  and  CA_12
REMARK    9  A    between atoms: CA_12  and  C_13
REMARK   10  A    between atoms: CA_12  and  N_15
REMARK   11  A    between atoms: C_13  and  O_14
REMARK   12  A    between atoms: C_16  and  C_18
REMARK   13  A    between atoms: C_18  and  C_19
REMARK   14  A    between atoms: C_18  and  C_21
REMARK   15  A    between atoms: C_19  and  O_20
REMARK                            x       y       z     vdW  Elec       q    Type
REMARK                         _______ _______ _______ _____ _____    ______ ____
ROOT
ATOM      1  CA  UNL     1       6.083   4.380  16.925  0.00  0.00    +0.000 C 
ENDROOT
BRANCH   1   5
ATOM      2  C   UNL     1       8.119   7.927  18.373  0.00  0.00    +0.000 A 
ATOM      3  C   UNL     1       7.162   7.989  17.358  0.00  0.00    +0.000 A 
ATOM      4  C   UNL     1       6.496   6.841  16.938  0.00  0.00    +0.000 A 
ATOM      5  C   UNL     1       6.765   5.599  17.520  0.00  0.00    +0.000 A 
ATOM      6  C   UNL     1       7.684   5.542  18.579  0.00  0.00    +0.000 A 
ATOM      7  C   UNL     1       8.358   6.698  19.000  0.00  0.00    +0.000 A 
BRANCH   2   8
ATOM      8  O   UNL     1       8.872   8.989  18.803  0.00  0.00    +0.000 OA
BRANCH   8   9
ATOM      9  C   UNL     1       8.683  10.193  18.053  0.00  0.00    +0.000 C 
BRANCH   9  10
ATOM     10  C   UNL     1       9.385  11.382  18.721  0.00  0.00    +0.000 C 
ATOM     11  C   UNL     1      10.753  11.570  18.058  0.00  0.00    +0.000 C 
BRANCH  10  12
ATOM     12  C   UNL     1       9.502  11.153  20.238  0.00  0.00    +0.000 C 
BRANCH  12  14
ATOM     13  C   UNL     1       9.717  13.182  21.711  0.00  0.00    +0.000 C 
ATOM     14  C   UNL     1      10.467  12.129  20.912  0.00  0.00    +0.000 C 
ENDBRANCH  12  14
ENDBRANCH  10  12
ENDBRANCH   9  10
ENDBRANCH   8   9
ENDBRANCH   2   8
ENDBRANCH   1   5
BRANCH   1  15
ATOM     15  N   UNL     1       4.659   4.396  17.206  0.00  0.00    +0.000 N 
ATOM     16  C   UNL     1       4.173   3.821  18.357  0.00  0.00    +0.000 C 
ATOM     17  O   UNL     1       4.913   3.314  19.199  0.00  0.00    +0.000 OA
ATOM     18  H   UNL     1       4.019   4.620  16.456  0.00  0.00    +0.000 HD
BRANCH  16  19
ATOM     19  C   UNL     1       2.664   3.936  18.549  0.00  0.00    +0.000 C 
BRANCH  19  20
ATOM     20  C   UNL     1       2.299   5.285  19.157  0.00  0.00    +0.000 A 
ATOM     21  C   UNL     1       2.502   6.467  18.425  0.00  0.00    +0.000 A 
ATOM     22  C   UNL     1       2.184   7.709  18.979  0.00  0.00    +0.000 A 
ATOM     23  C   UNL     1       1.660   7.789  20.267  0.00  0.00    +0.000 A 
ATOM     24  C   UNL     1       1.449   6.625  21.002  0.00  0.00    +0.000 A 
ATOM     25  C   UNL     1       1.768   5.383  20.453  0.00  0.00    +0.000 A 
ENDBRANCH  19  20
BRANCH  19  26
ATOM     26  C   UNL     1       2.209   2.748  19.410  0.00  0.00    +0.000 C 
BRANCH  26  27
ATOM     27  O   UNL     1       2.467   1.501  18.767  0.00  0.00    +0.000 OA
ATOM     28  H   UNL     1       3.198   1.659  18.142  0.00  0.00    +0.000 HD
ENDBRANCH  26  27
ENDBRANCH  19  26
ENDBRANCH  16  19
ENDBRANCH   1  15
BRANCH   1  29
ATOM     29  C   UNL     1       6.405   4.153  15.432  0.00  0.00    +0.000 C 
BRANCH  29  30
ATOM     30  O   UNL     1       7.629   4.775  15.040  0.00  0.00    +0.000 OA
ATOM     31  H   UNL     1       8.171   4.855  15.843  0.00  0.00    +0.000 HD
ENDBRANCH  29  30
ENDBRANCH   1  29
TORSDOF 13
ENDMDL
MODEL 6
REMARK VINA RESULT:      -7.2      1.211      1.606
REMARK  Name = 
REMARK  15 active torsions:
REMARK  status: ('A' for Active; 'I' for Inactive)
REMARK    1  A    between atoms: C_1  and  C_2
REMARK    2  A    between atoms: C_2  and  C_3
REMARK    3  A    between atoms: C_3  and  C_4
REMARK    4  A    between atoms: C_4  and  C_5
REMARK    5  A    between atoms: C_4  and  C_6
REMARK    6  A    between atoms: C_6  and  O_7
REMARK    7  A    between atoms: O_7  and  C_8
REMARK    8  A    between atoms: C_11  and  CA_12
REMARK    9  A    between atoms: CA_12  and  C_13
REMARK   10  A    between atoms: CA_12  and  N_15
REMARK   11  A    between atoms: C_13  and  O_14
REMARK   12  A    between atoms: C_16  and  C_18
REMARK   13  A    between atoms: C_18  and  C_19
REMARK   14  A    between atoms: C_18  and  C_21
REMARK   15  A    between atoms: C_19  and  O_20
REMARK                            x       y       z     vdW  Elec       q    Type
REMARK                         _______ _______ _______ _____ _____    ______ ____
ROOT
ATOM      1  CA  UNL     1       3.643   3.080  18.265  0.00  0.00    +0.000 C 
ENDROOT
BRANCH   1   5
ATOM      2  C   UNL     1       1.708   6.329  20.390  0.00  0.00    +0.000 A 
ATOM      3  C   UNL     1       1.319   5.000  20.564  0.00  0.00    +0.000 A 
ATOM      4  C   UNL     1       1.981   3.972  19.899  0.00  0.00    +0.000 A 
ATOM      5  C   UNL     1       3.052   4.242  19.042  0.00  0.00    +0.000 A 
ATOM      6  C   UNL     1       3.483   5.572  18.908  0.00  0.00    +0.000 A 
ATOM      7  C   UNL     1       2.812   6.607  19.577  0.00  0.00    +0.000 A 
BRANCH   2   8
ATOM      8  O   UNL     1       1.073   7.408  20.948  0.00  0.00    +0.000 OA
BRANCH   8   9
ATOM      9  C   UNL     1       1.504   8.678  20.445  0.00  0.00    +0.000 C 
BRANCH   9  10
ATOM     10  C   UNL     1       0.439   9.311  19.543  0.00  0.00    +0.000 C 
ATOM     11  C   UNL     1       1.066   9.582  18.171  0.00  0.00    +0.000 C 
BRANCH  10  12
ATOM     12  C   UNL     1      -0.119  10.591  20.188  0.00  0.00    +0.000 C 
BRANCH  12  14
ATOM     13  C   UNL     1       1.178  12.749  20.215  0.00  0.00    +0.000 C 
ATOM     14  C   UNL     1       0.956  11.412  20.902  0.00  0.00    +0.000 C 
ENDBRANCH  12  14
ENDBRANCH  10  12
ENDBRANCH   9  10
ENDBRANCH   8   9
ENDBRANCH   2   8
ENDBRANCH   1   5
BRANCH   1  15
ATOM     15  N   UNL     1       4.983   3.395  17.802  0.00  0.00    +0.000 N 
ATOM     16  C   UNL     1       5.183   3.864  16.524  0.00  0.00    +0.000 C 
ATOM     17  O   UNL     1       4.251   4.070  15.749  0.00  0.00    +0.000 OA
ATOM     18  H   UNL     1       5.772   3.054  18.334  0.00  0.00    +0.000 HD
BRANCH  16  19
ATOM     19  C   UNL     1       6.631   4.188  16.176  0.00  0.00    +0.000 C 
BRANCH  19  20
ATOM     20  C   UNL     1       7.164   5.302  17.070  0.00  0.00    +0.000 A 
ATOM     21  C   UNL     1       7.121   6.638  16.636  0.00  0.00    +0.000 A 
ATOM     22  C   UNL     1       7.620   7.663  17.442  0.00  0.00    +0.000 A 
ATOM     23  C   UNL     1       8.166   7.372  18.690  0.00  0.00    +0.000 A 
ATOM     24  C   UNL     1       8.211   6.054  19.135  0.00  0.00    +0.000 A 
ATOM     25  C   UNL     1       7.716   5.026  18.331  0.00  0.00    +0.000 A 
ENDBRANCH  19  20
BRANCH  19  26
ATOM     26  C   UNL     1       6.687   4.541  14.682  0.00  0.00    +0.000 C 
BRANCH  26  27
ATOM     27  O   UNL     1       6.375   3.416  13.862  0.00  0.00    +0.000 OA
ATOM     28  H   UNL     1       5.566   3.648  13.371  0.00  0.00    +0.000 HD
ENDBRANCH  26  27
ENDBRANCH  19  26
ENDBRANCH  16  19
ENDBRANCH   1  15
BRANCH   1  29
ATOM     29  C   UNL     1       3.559   1.729  19.007  0.00  0.00    +0.000 C 
BRANCH  29  30
ATOM     30  O   UNL     1       4.040   0.643  18.213  0.00  0.00    +0.000 OA
ATOM     31  H   UNL     1       3.928   0.906  17.284  0.00  0.00    +0.000 HD
ENDBRANCH  29  30
ENDBRANCH   1  29
TORSDOF 13
ENDMDL
MODEL 7
REMARK VINA RESULT:      -7.2      2.161      3.205
REMARK  Name = 
REMARK  15 active torsions:
REMARK  status: ('A' for Active; 'I' for Inactive)
REMARK    1  A    between atoms: C_1  and  C_2
REMARK    2  A    between atoms: C_2  and  C_3
REMARK    3  A    between atoms: C_3  and  C_4
REMARK    4  A    between atoms: C_4  and  C_5
REMARK    5  A    between atoms: C_4  and  C_6
REMARK    6  A    between atoms: C_6  and  O_7
REMARK    7  A    between atoms: O_7  and  C_8
REMARK    8  A    between atoms: C_11  and  CA_12
REMARK    9  A    between atoms: CA_12  and  C_13
REMARK   10  A    between atoms: CA_12  and  N_15
REMARK   11  A    between atoms: C_13  and  O_14
REMARK   12  A    between atoms: C_16  and  C_18
REMARK   13  A    between atoms: C_18  and  C_19
REMARK   14  A    between atoms: C_18  and  C_21
REMARK   15  A    between atoms: C_19  and  O_20
REMARK                            x       y       z     vdW  Elec       q    Type
REMARK                         _______ _______ _______ _____ _____    ______ ____
ROOT
ATOM      1  CA  UNL     1       2.826   5.184  18.759  0.00  0.00    +0.000 C 
ENDROOT
BRANCH   1   5
ATOM      2  C   UNL     1       1.298   9.154  19.608  0.00  0.00    +0.000 A 
ATOM      3  C   UNL     1       1.357   8.161  20.589  0.00  0.00    +0.000 A 
ATOM      4  C   UNL     1       1.887   6.906  20.300  0.00  0.00    +0.000 A 
ATOM      5  C   UNL     1       2.374   6.608  19.024  0.00  0.00    +0.000 A 
ATOM      6  C   UNL     1       2.370   7.621  18.053  0.00  0.00    +0.000 A 
ATOM      7  C   UNL     1       1.833   8.884  18.344  0.00  0.00    +0.000 A 
BRANCH   2   8
ATOM      8  O   UNL     1       0.733  10.391  19.782  0.00  0.00    +0.000 OA
BRANCH   8   9
ATOM      9  C   UNL     1      -0.691  10.419  19.637  0.00  0.00    +0.000 C 
BRANCH   9  10
ATOM     10  C   UNL     1      -1.099  10.823  18.215  0.00  0.00    +0.000 C 
ATOM     11  C   UNL     1      -1.232  12.349  18.165  0.00  0.00    +0.000 C 
BRANCH  10  12
ATOM     12  C   UNL     1      -2.402  10.114  17.809  0.00  0.00    +0.000 C 
BRANCH  12  14
ATOM     13  C   UNL     1      -3.615  10.790  15.709  0.00  0.00    +0.000 C 
ATOM     14  C   UNL     1      -2.522   9.914  16.297  0.00  0.00    +0.000 C 
ENDBRANCH  12  14
ENDBRANCH  10  12
ENDBRANCH   9  10
ENDBRANCH   8   9
ENDBRANCH   2   8
ENDBRANCH   1   5
BRANCH   1  15
ATOM     15  N   UNL     1       4.113   5.165  18.086  0.00  0.00    +0.000 N 
ATOM     16  C   UNL     1       4.464   4.099  17.290  0.00  0.00    +0.000 C 
ATOM     17  O   UNL     1       3.703   3.153  17.089  0.00  0.00    +0.000 OA
ATOM     18  H   UNL     1       4.825   5.816  18.384  0.00  0.00    +0.000 HD
BRANCH  16  19
ATOM     19  C   UNL     1       5.824   4.219  16.614  0.00  0.00    +0.000 C 
BRANCH  19  20
ATOM     20  C   UNL     1       6.665   5.301  17.282  0.00  0.00    +0.000 A 
ATOM     21  C   UNL     1       7.310   5.041  18.502  0.00  0.00    +0.000 A 
ATOM     22  C   UNL     1       8.071   6.031  19.129  0.00  0.00    +0.000 A 
ATOM     23  C   UNL     1       8.199   7.291  18.548  0.00  0.00    +0.000 A 
ATOM     24  C   UNL     1       7.568   7.561  17.336  0.00  0.00    +0.000 A 
ATOM     25  C   UNL     1       6.806   6.575  16.708  0.00  0.00    +0.000 A 
ENDBRANCH  19  20
BRANCH  19  26
ATOM     26  C   UNL     1       5.584   4.484  15.120  0.00  0.00    +0.000 C 
BRANCH  26  27
ATOM     27  O   UNL     1       6.289   3.554  14.299  0.00  0.00    +0.000 OA
ATOM     28  H   UNL     1       6.761   4.081  13.629  0.00  0.00    +0.000 HD
ENDBRANCH  26  27
ENDBRANCH  19  26
ENDBRANCH  16  19
ENDBRANCH   1  15
BRANCH   1  29
ATOM     29  C   UNL     1       2.781   4.274  20.005  0.00  0.00    +0.000 C 
BRANCH  29  30
ATOM     30  O   UNL     1       2.070   3.059  19.766  0.00  0.00    +0.000 OA
ATOM     31  H   UNL     1       2.508   2.623  19.016  0.00  0.00    +0.000 HD
ENDBRANCH  29  30
ENDBRANCH   1  29
TORSDOF 13
ENDMDL
MODEL 8
REMARK VINA RESULT:      -7.1      0.810      1.087
REMARK  Name = 
REMARK  15 active torsions:
REMARK  status: ('A' for Active; 'I' for Inactive)
REMARK    1  A    between atoms: C_1  and  C_2
REMARK    2  A    between atoms: C_2  and  C_3
REMARK    3  A    between atoms: C_3  and  C_4
REMARK    4  A    between atoms: C_4  and  C_5
REMARK    5  A    between atoms: C_4  and  C_6
REMARK    6  A    between atoms: C_6  and  O_7
REMARK    7  A    between atoms: O_7  and  C_8
REMARK    8  A    between atoms: C_11  and  CA_12
REMARK    9  A    between atoms: CA_12  and  C_13
REMARK   10  A    between atoms: CA_12  and  N_15
REMARK   11  A    between atoms: C_13  and  O_14
REMARK   12  A    between atoms: C_16  and  C_18
REMARK   13  A    between atoms: C_18  and  C_19
REMARK   14  A    between atoms: C_18  and  C_21
REMARK   15  A    between atoms: C_19  and  O_20
REMARK                            x       y       z     vdW  Elec       q    Type
REMARK                         _______ _______ _______ _____ _____    ______ ____
ROOT
ATOM      1  CA  UNL     1       3.376   3.381  18.023  0.00  0.00    +0.000 C 
ENDROOT
BRANCH   1   5
ATOM      2  C   UNL     1       2.017   6.890  20.181  0.00  0.00    +0.000 A 
ATOM      3  C   UNL     1       2.826   6.989  19.048  0.00  0.00    +0.000 A 
ATOM      4  C   UNL     1       3.218   5.849  18.351  0.00  0.00    +0.000 A 
ATOM      5  C   UNL     1       2.811   4.578  18.766  0.00  0.00    +0.000 A 
ATOM      6  C   UNL     1       1.950   4.478  19.870  0.00  0.00    +0.000 A 
ATOM      7  C   UNL     1       1.560   5.627  20.574  0.00  0.00    +0.000 A 
BRANCH   2   8
ATOM      8  O   UNL     1       1.640   7.948  20.967  0.00  0.00    +0.000 OA
BRANCH   8   9
ATOM      9  C   UNL     1       1.562   9.201  20.280  0.00  0.00    +0.000 C 
BRANCH   9  10
ATOM     10  C   UNL     1       0.192   9.389  19.618  0.00  0.00    +0.000 C 
ATOM     11  C   UNL     1       0.413   9.820  18.163  0.00  0.00    +0.000 C 
BRANCH  10  12
ATOM     12  C   UNL     1      -0.648  10.411  20.403  0.00  0.00    +0.000 C 
BRANCH  12  14
ATOM     13  C   UNL     1      -0.779  10.548  22.913  0.00  0.00    +0.000 C 
ATOM     14  C   UNL     1       0.043  10.889  21.682  0.00  0.00    +0.000 C 
ENDBRANCH  12  14
ENDBRANCH  10  12
ENDBRANCH   9  10
ENDBRANCH   8   9
ENDBRANCH   2   8
ENDBRANCH   1   5
BRANCH   1  15
ATOM     15  N   UNL     1       4.765   3.604  17.662  0.00  0.00    +0.000 N 
ATOM     16  C   UNL     1       5.101   3.928  16.368  0.00  0.00    +0.000 C 
ATOM     17  O   UNL     1       4.254   4.078  15.489  0.00  0.00    +0.000 OA
ATOM     18  H   UNL     1       5.486   3.298  18.299  0.00  0.00    +0.000 HD
BRANCH  16  19
ATOM     19  C   UNL     1       6.587   4.170  16.130  0.00  0.00    +0.000 C 
BRANCH  19  20
ATOM     20  C   UNL     1       7.114   5.253  17.064  0.00  0.00    +0.000 A 
ATOM     21  C   UNL     1       7.129   6.596  16.651  0.00  0.00    +0.000 A 
ATOM     22  C   UNL     1       7.623   7.593  17.495  0.00  0.00    +0.000 A 
ATOM     23  C   UNL     1       8.106   7.266  18.760  0.00  0.00    +0.000 A 
ATOM     24  C   UNL     1       8.093   5.940  19.184  0.00  0.00    +0.000 A 
ATOM     25  C   UNL     1       7.603   4.940  18.343  0.00  0.00    +0.000 A 
ENDBRANCH  19  20
BRANCH  19  26
ATOM     26  C   UNL     1       6.774   4.517  14.645  0.00  0.00    +0.000 C 
BRANCH  26  27
ATOM     27  O   UNL     1       6.396   3.433  13.798  0.00  0.00    +0.000 OA
ATOM     28  H   UNL     1       5.934   2.789  14.365  0.00  0.00    +0.000 HD
ENDBRANCH  26  27
ENDBRANCH  19  26
ENDBRANCH  16  19
ENDBRANCH   1  15
BRANCH   1  29
ATOM     29  C   UNL     1       3.145   2.035  18.744  0.00  0.00    +0.000 C 
BRANCH  29  30
ATOM     30  O   UNL     1       1.893   1.441  18.397  0.00  0.00    +0.000 OA
ATOM     31  H   UNL     1       1.889   0.552  18.790  0.00  0.00    +0.000 HD
ENDBRANCH  29  30
ENDBRANCH   1  29
TORSDOF 13
ENDMDL
MODEL 9
REMARK VINA RESULT:      -7.0      0.921      1.463
REMARK  Name = 
REMARK  15 active torsions:
REMARK  status: ('A' for Active; 'I' for Inactive)
REMARK    1  A    between atoms: C_1  and  C_2
REMARK    2  A    between atoms: C_2  and  C_3
REMARK    3  A    between atoms: C_3  and  C_4
REMARK    4  A    between atoms: C_4  and  C_5
REMARK    5  A    between atoms: C_4  and  C_6
REMARK    6  A    between atoms: C_6  and  O_7
REMARK    7  A    between atoms: O_7  and  C_8
REMARK    8  A    between atoms: C_11  and  CA_12
REMARK    9  A    between atoms: CA_12  and  C_13
REMARK   10  A    between atoms: CA_12  and  N_15
REMARK   11  A    between atoms: C_13  and  O_14
REMARK   12  A    between atoms: C_16  and  C_18
REMARK   13  A    between atoms: C_18  and  C_19
REMARK   14  A    between atoms: C_18  and  C_21
REMARK   15  A    between atoms: C_19  and  O_20
REMARK                            x       y       z     vdW  Elec       q    Type
REMARK                         _______ _______ _______ _____ _____    ______ ____
ROOT
ATOM      1  CA  UNL     1       3.570   3.835  18.617  0.00  0.00    +0.000 C 
ENDROOT
BRANCH   1   5
ATOM      2  C   UNL     1       1.636   7.285  20.399  0.00  0.00    +0.000 A 
ATOM      3  C   UNL     1       1.594   6.025  20.999  0.00  0.00    +0.000 A 
ATOM      4  C   UNL     1       2.255   4.942  20.426  0.00  0.00    +0.000 A 
ATOM      5  C   UNL     1       2.978   5.087  19.238  0.00  0.00    +0.000 A 
ATOM      6  C   UNL     1       3.070   6.364  18.663  0.00  0.00    +0.000 A 
ATOM      7  C   UNL     1       2.401   7.454  19.239  0.00  0.00    +0.000 A 
BRANCH   2   8
ATOM      8  O   UNL     1       0.962   8.389  20.853  0.00  0.00    +0.000 OA
BRANCH   8   9
ATOM      9  C   UNL     1       0.949   9.494  19.942  0.00  0.00    +0.000 C 
BRANCH   9  10
ATOM     10  C   UNL     1      -0.461  10.074  19.788  0.00  0.00    +0.000 C 
ATOM     11  C   UNL     1      -0.732  10.296  18.296  0.00  0.00    +0.000 C 
BRANCH  10  12
ATOM     12  C   UNL     1      -0.600  11.372  20.602  0.00  0.00    +0.000 C 
BRANCH  12  14
ATOM     13  C   UNL     1      -1.576  11.519  22.917  0.00  0.00    +0.000 C 
ATOM     14  C   UNL     1      -0.348  11.165  22.096  0.00  0.00    +0.000 C 
ENDBRANCH  12  14
ENDBRANCH  10  12
ENDBRANCH   9  10
ENDBRANCH   8   9
ENDBRANCH   2   8
ENDBRANCH   1   5
BRANCH   1  15
ATOM     15  N   UNL     1       4.891   4.101  18.075  0.00  0.00    +0.000 N 
ATOM     16  C   UNL     1       5.124   3.974  16.725  0.00  0.00    +0.000 C 
ATOM     17  O   UNL     1       4.233   3.674  15.931  0.00  0.00    +0.000 OA
ATOM     18  H   UNL     1       5.675   4.152  18.710  0.00  0.00    +0.000 HD
BRANCH  16  19
ATOM     19  C   UNL     1       6.542   4.316  16.280  0.00  0.00    +0.000 C 
BRANCH  19  20
ATOM     20  C   UNL     1       7.121   5.435  17.139  0.00  0.00    +0.000 A 
ATOM     21  C   UNL     1       7.094   6.763  16.679  0.00  0.00    +0.000 A 
ATOM     22  C   UNL     1       7.635   7.792  17.452  0.00  0.00    +0.000 A 
ATOM     23  C   UNL     1       8.207   7.513  18.692  0.00  0.00    +0.000 A 
ATOM     24  C   UNL     1       8.237   6.203  19.161  0.00  0.00    +0.000 A 
ATOM     25  C   UNL     1       7.699   5.171  18.391  0.00  0.00    +0.000 A 
ENDBRANCH  19  20
BRANCH  19  26
ATOM     26  C   UNL     1       6.493   4.671  14.787  0.00  0.00    +0.000 C 
BRANCH  26  27
ATOM     27  O   UNL     1       6.392   3.505  13.970  0.00  0.00    +0.000 OA
ATOM     28  H   UNL     1       7.295   3.152  13.880  0.00  0.00    +0.000 HD
ENDBRANCH  26  27
ENDBRANCH  19  26
ENDBRANCH  16  19
ENDBRANCH   1  15
BRANCH   1  29
ATOM     29  C   UNL     1       3.534   2.603  19.545  0.00  0.00    +0.000 C 
BRANCH  29  30
ATOM     30  O   UNL     1       4.829   2.037  19.749  0.00  0.00    +0.000 OA
ATOM     31  H   UNL     1       4.827   1.170  19.310  0.00  0.00    +0.000 HD
ENDBRANCH  29  30
ENDBRANCH   1  29
TORSDOF 13
ENDMDL
