MODEL 1
REMARK VINA RESULT:      -8.6      0.000      0.000
REMARK  Name = 
REMARK  7 active torsions:
REMARK  status: ('A' for Active; 'I' for Inactive)
REMARK    1  A    between atoms: C_1  and  N_2
REMARK    2  A    between atoms: N_2  and  C_3
REMARK    3  A    between atoms: C_11  and  C_12
REMARK    4  A    between atoms: C_15  and  O_16
REMARK    5  A    between atoms: O_16  and  C_17
REMARK    6  A    between atoms: CA_27  and  C_28
REMARK    7  A    between atoms: C_28  and  OXT_30
REMARK                            x       y       z     vdW  Elec       q    Type
REMARK                         _______ _______ _______ _____ _____    ______ ____
ROOT
ATOM      1  C   UNL     1       2.046  14.311  19.098  0.00  0.00    +0.000 C 
ATOM      2  N   UNL     1       0.593  14.116  19.051  0.00  0.00    +0.000 N 
ATOM      3  C   UNL     1       0.112  12.834  18.698  0.00  0.00    +0.000 A 
ATOM      4  C   UNL     1       0.879  11.681  18.890  0.00  0.00    +0.000 A 
ATOM      5  C   UNL     1       0.384  10.398  18.595  0.00  0.00    +0.000 A 
ATOM      6  C   UNL     1      -0.901  10.314  18.066  0.00  0.00    +0.000 A 
ATOM      7  CA  UNL     1      -1.600  11.487  17.870  0.00  0.00    +0.000 A 
ATOM      8  N   UNL     1      -1.133  12.727  18.176  0.00  0.00    +0.000 NA
ENDROOT
BRANCH   2   9
ATOM      9  C   UNL     1      -0.211  15.273  19.170  0.00  0.00    +0.000 A 
ATOM     10  C   UNL     1      -1.108  15.464  20.233  0.00  0.00    +0.000 A 
ATOM     11  C   UNL     1      -1.896  16.616  20.324  0.00  0.00    +0.000 A 
ATOM     12  C   UNL     1      -1.796  17.607  19.352  0.00  0.00    +0.000 A 
ATOM     13  C   UNL     1      -0.913  17.447  18.292  0.00  0.00    +0.000 A 
ATOM     14  C   UNL     1      -0.132  16.291  18.202  0.00  0.00    +0.000 A 
ENDBRANCH   2   9
BRANCH   5  15
ATOM     15  C   UNL     1       1.198   9.194  18.847  0.00  0.00    +0.000 A 
ATOM     16  C   UNL     1       1.219   8.574  20.111  0.00  0.00    +0.000 A 
ATOM     17  C   UNL     1       1.971   7.418  20.340  0.00  0.00    +0.000 A 
ATOM     18  C   UNL     1       2.706   6.851  19.304  0.00  0.00    +0.000 A 
ATOM     19  C   UNL     1       2.752   7.484  18.063  0.00  0.00    +0.000 A 
ATOM     20  C   UNL     1       1.986   8.628  17.831  0.00  0.00    +0.000 A 
BRANCH  18  21
ATOM     21  O   UNL     1       3.388   5.695  19.601  0.00  0.00    +0.000 OA
BRANCH  21  22
ATOM     22  C   UNL     1       4.414   5.291  18.775  0.00  0.00    +0.000 A 
ATOM     23  C   UNL     1       5.706   5.577  19.225  0.00  0.00    +0.000 A 
ATOM     24  C   UNL     1       6.809   5.222  18.447  0.00  0.00    +0.000 A 
ATOM     25  C   UNL     1       6.611   4.582  17.228  0.00  0.00    +0.000 A 
ATOM     26  F   UNL     1       7.667   4.263  16.470  0.00  0.00    +0.000 F 
ATOM     27  C   UNL     1       5.333   4.264  16.785  0.00  0.00    +0.000 A 
ATOM     28  C   UNL     1       4.232   4.592  17.574  0.00  0.00    +0.000 A 
ENDBRANCH  21  22
ENDBRANCH  18  21
ENDBRANCH   5  15
BRANCH   7  29
ATOM     29  C   UNL     1      -2.972  11.450  17.286  0.00  0.00    +0.000 C 
ATOM     30  O   UNL     1      -4.002  11.367  17.931  0.00  0.00    +0.000 OA
BRANCH  29  31
ATOM     31  OXT UNL     1      -2.913  11.521  15.934  0.00  0.00    +0.000 OA
ATOM     32  HXT UNL     1      -2.153  10.971  15.618  0.00  0.00    +0.000 HD
ENDBRANCH  29  31
ENDBRANCH   7  29
TORSDOF 6
ENDMDL
MODEL 2
REMARK VINA RESULT:      -8.4      2.031      2.491
REMARK  Name = 
REMARK  7 active torsions:
REMARK  status: ('A' for Active; 'I' for Inactive)
REMARK    1  A    between atoms: C_1  and  N_2
REMARK    2  A    between atoms: N_2  and  C_3
REMARK    3  A    between atoms: C_11  and  C_12
REMARK    4  A    between atoms: C_15  and  O_16
REMARK    5  A    between atoms: O_16  and  C_17
REMARK    6  A    between atoms: CA_27  and  C_28
REMARK    7  A    between atoms: C_28  and  OXT_30
REMARK                            x       y       z     vdW  Elec       q    Type
REMARK                         _______ _______ _______ _____ _____    ______ ____
ROOT
ATOM      1  C   UNL     1       1.895  14.616  18.839  0.00  0.00    +0.000 C 
ATOM      2  N   UNL     1       0.444  14.447  18.974  0.00  0.00    +0.000 N 
ATOM      3  C   UNL     1      -0.093  13.159  18.747  0.00  0.00    +0.000 A 
ATOM      4  C   UNL     1       0.676  12.003  18.906  0.00  0.00    +0.000 A 
ATOM      5  C   UNL     1       0.132  10.716  18.737  0.00  0.00    +0.000 A 
ATOM      6  C   UNL     1      -1.209  10.632  18.370  0.00  0.00    +0.000 A 
ATOM      7  CA  UNL     1      -1.910  11.807  18.197  0.00  0.00    +0.000 A 
ATOM      8  N   UNL     1      -1.393  13.051  18.382  0.00  0.00    +0.000 NA
ENDROOT
BRANCH   2   9
ATOM      9  C   UNL     1      -0.324  15.625  19.127  0.00  0.00    +0.000 A 
ATOM     10  C   UNL     1      -1.121  15.864  20.258  0.00  0.00    +0.000 A 
ATOM     11  C   UNL     1      -1.876  17.036  20.382  0.00  0.00    +0.000 A 
ATOM     12  C   UNL     1      -1.842  17.997  19.376  0.00  0.00    +0.000 A 
ATOM     13  C   UNL     1      -1.058  17.787  18.249  0.00  0.00    +0.000 A 
ATOM     14  C   UNL     1      -0.310  16.613  18.126  0.00  0.00    +0.000 A 
ENDBRANCH   2   9
BRANCH   5  15
ATOM     15  C   UNL     1       0.953   9.510  18.953  0.00  0.00    +0.000 A 
ATOM     16  C   UNL     1       1.036   8.895  20.217  0.00  0.00    +0.000 A 
ATOM     17  C   UNL     1       1.794   7.737  20.413  0.00  0.00    +0.000 A 
ATOM     18  C   UNL     1       2.474   7.163  19.343  0.00  0.00    +0.000 A 
ATOM     19  C   UNL     1       2.459   7.792  18.099  0.00  0.00    +0.000 A 
ATOM     20  C   UNL     1       1.687   8.937  17.902  0.00  0.00    +0.000 A 
BRANCH  18  21
ATOM     21  O   UNL     1       3.167   6.006  19.610  0.00  0.00    +0.000 OA
BRANCH  21  22
ATOM     22  C   UNL     1       2.585   4.793  19.314  0.00  0.00    +0.000 A 
ATOM     23  C   UNL     1       1.705   4.289  20.276  0.00  0.00    +0.000 A 
ATOM     24  C   UNL     1       1.081   3.058  20.072  0.00  0.00    +0.000 A 
ATOM     25  C   UNL     1       1.339   2.343  18.907  0.00  0.00    +0.000 A 
ATOM     26  F   UNL     1       0.759   1.151  18.721  0.00  0.00    +0.000 F 
ATOM     27  C   UNL     1       2.186   2.849  17.928  0.00  0.00    +0.000 A 
ATOM     28  C   UNL     1       2.788   4.092  18.118  0.00  0.00    +0.000 A 
ENDBRANCH  21  22
ENDBRANCH  18  21
ENDBRANCH   5  15
BRANCH   7  29
ATOM     29  C   UNL     1      -3.342  11.768  17.783  0.00  0.00    +0.000 C 
ATOM     30  O   UNL     1      -3.754  11.288  16.743  0.00  0.00    +0.000 OA
BRANCH  29  31
ATOM     31  OXT UNL     1      -4.124  12.346  18.728  0.00  0.00    +0.000 OA
ATOM     32  HXT UNL     1      -4.281  13.290  18.479  0.00  0.00    +0.000 HD
ENDBRANCH  29  31
ENDBRANCH   7  29
TORSDOF 6
ENDMDL
MODEL 3
REMARK VINA RESULT:      -8.3      0.372      1.272
REMARK  Name = 
REMARK  7 active torsions:
REMARK  status: ('A' for Active; 'I' for Inactive)
REMARK    1  A    between atoms: C_1  and  N_2
REMARK    2  A    between atoms: N_2  and  C_3
REMARK    3  A    between atoms: C_11  and  C_12
REMARK    4  A    between atoms: C_15  and  O_16
REMARK    5  A    between atoms: O_16  and  C_17
REMARK    6  A    between atoms: CA_27  and  C_28
REMARK    7  A    between atoms: C_28  and  OXT_30
REMARK                            x       y       z     vdW  Elec       q    Type
REMARK                         _______ _______ _______ _____ _____    ______ ____
ROOT
ATOM      1  C   UNL     1       2.202  14.329  18.706  0.00  0.00    +0.000 C 
ATOM      2  N   UNL     1       0.754  14.139  18.843  0.00  0.00    +0.000 N 
ATOM      3  C   UNL     1       0.232  12.848  18.595  0.00  0.00    +0.000 A 
ATOM      4  C   UNL     1       1.017  11.699  18.730  0.00  0.00    +0.000 A 
ATOM      5  C   UNL     1       0.489  10.409  18.541  0.00  0.00    +0.000 A 
ATOM      6  C   UNL     1      -0.852  10.314  18.176  0.00  0.00    +0.000 A 
ATOM      7  CA  UNL     1      -1.569  11.483  18.027  0.00  0.00    +0.000 A 
ATOM      8  N   UNL     1      -1.067  12.730  18.232  0.00  0.00    +0.000 NA
ENDROOT
BRANCH   2   9
ATOM      9  C   UNL     1      -0.028  15.303  19.020  0.00  0.00    +0.000 A 
ATOM     10  C   UNL     1      -0.133  16.299  18.035  0.00  0.00    +0.000 A 
ATOM     11  C   UNL     1      -0.910  17.444  18.238  0.00  0.00    +0.000 A 
ATOM     12  C   UNL     1      -1.606  17.614  19.430  0.00  0.00    +0.000 A 
ATOM     13  C   UNL     1      -1.524  16.642  20.420  0.00  0.00    +0.000 A 
ATOM     14  C   UNL     1      -0.742  15.501  20.216  0.00  0.00    +0.000 A 
ENDBRANCH   2   9
BRANCH   5  15
ATOM     15  C   UNL     1       1.326   9.210  18.733  0.00  0.00    +0.000 A 
ATOM     16  C   UNL     1       1.300   8.480  19.937  0.00  0.00    +0.000 A 
ATOM     17  C   UNL     1       2.075   7.330  20.107  0.00  0.00    +0.000 A 
ATOM     18  C   UNL     1       2.883   6.878  19.068  0.00  0.00    +0.000 A 
ATOM     19  C   UNL     1       2.975   7.620  17.891  0.00  0.00    +0.000 A 
ATOM     20  C   UNL     1       2.186   8.759  17.718  0.00  0.00    +0.000 A 
BRANCH  18  21
ATOM     21  O   UNL     1       3.585   5.719  19.300  0.00  0.00    +0.000 OA
BRANCH  21  22
ATOM     22  C   UNL     1       4.598   5.365  18.437  0.00  0.00    +0.000 A 
ATOM     23  C   UNL     1       4.206   4.660  17.296  0.00  0.00    +0.000 A 
ATOM     24  C   UNL     1       5.164   4.242  16.371  0.00  0.00    +0.000 A 
ATOM     25  C   UNL     1       6.505   4.535  16.594  0.00  0.00    +0.000 A 
ATOM     26  F   UNL     1       7.428   4.114  15.720  0.00  0.00    +0.000 F 
ATOM     27  C   UNL     1       6.904   5.264  17.709  0.00  0.00    +0.000 A 
ATOM     28  C   UNL     1       5.945   5.706  18.618  0.00  0.00    +0.000 A 
ENDBRANCH  21  22
ENDBRANCH  18  21
ENDBRANCH   5  15
BRANCH   7  29
ATOM     29  C   UNL     1      -3.002  11.433  17.617  0.00  0.00    +0.000 C 
ATOM     30  O   UNL     1      -3.944  11.353  18.384  0.00  0.00    +0.000 OA
BRANCH  29  31
ATOM     31  OXT UNL     1      -3.109  11.486  16.267  0.00  0.00    +0.000 OA
ATOM     32  HXT UNL     1      -2.381  12.053  15.911  0.00  0.00    +0.000 HD
ENDBRANCH  29  31
ENDBRANCH   7  29
TORSDOF 6
ENDMDL
MODEL 4
REMARK VINA RESULT:      -8.2      0.423      1.096
REMARK  Name = 
REMARK  7 active torsions:
REMARK  status: ('A' for Active; 'I' for Inactive)
REMARK    1  A    between atoms: C_1  and  N_2
REMARK    2  A    between atoms: N_2  and  C_3
REMARK    3  A    between atoms: C_11  and  C_12
REMARK    4  A    between atoms: C_15  and  O_16
REMARK    5  A    between atoms: O_16  and  C_17
REMARK    6  A    between atoms: CA_27  and  C_28
REMARK    7  A    between atoms: C_28  and  OXT_30
REMARK                            x       y       z     vdW  Elec       q    Type
REMARK                         _______ _______ _______ _____ _____    ______ ____
ROOT
ATOM      1  C   UNL     1       1.969  14.144  19.600  0.00  0.00    +0.000 C 
ATOM      2  N   UNL     1       0.540  13.950  19.335  0.00  0.00    +0.000 N 
ATOM      3  C   UNL     1       0.128  12.694  18.833  0.00  0.00    +0.000 A 
ATOM      4  C   UNL     1       0.872  11.532  19.057  0.00  0.00    +0.000 A 
ATOM      5  C   UNL     1       0.438  10.271  18.611  0.00  0.00    +0.000 A 
ATOM      6  C   UNL     1      -0.759  10.220  17.901  0.00  0.00    +0.000 A 
ATOM      7  CA  UNL     1      -1.435  11.403  17.684  0.00  0.00    +0.000 A 
ATOM      8  N   UNL     1      -1.030  12.620  18.134  0.00  0.00    +0.000 NA
ENDROOT
BRANCH   2   9
ATOM      9  C   UNL     1      -0.285  15.096  19.413  0.00  0.00    +0.000 A 
ATOM     10  C   UNL     1      -1.250  15.264  20.419  0.00  0.00    +0.000 A 
ATOM     11  C   UNL     1      -2.057  16.405  20.470  0.00  0.00    +0.000 A 
ATOM     12  C   UNL     1      -1.909  17.408  19.518  0.00  0.00    +0.000 A 
ATOM     13  C   UNL     1      -0.958  17.270  18.514  0.00  0.00    +0.000 A 
ATOM     14  C   UNL     1      -0.157  16.125  18.463  0.00  0.00    +0.000 A 
ENDBRANCH   2   9
BRANCH   5  15
ATOM     15  C   UNL     1       1.221   9.053  18.897  0.00  0.00    +0.000 A 
ATOM     16  C   UNL     1       1.983   8.418  17.897  0.00  0.00    +0.000 A 
ATOM     17  C   UNL     1       2.744   7.280  18.177  0.00  0.00    +0.000 A 
ATOM     18  C   UNL     1       2.769   6.762  19.468  0.00  0.00    +0.000 A 
ATOM     19  C   UNL     1       1.971   7.335  20.458  0.00  0.00    +0.000 A 
ATOM     20  C   UNL     1       1.226   8.482  20.180  0.00  0.00    +0.000 A 
BRANCH  18  21
ATOM     21  O   UNL     1       3.571   5.663  19.670  0.00  0.00    +0.000 OA
BRANCH  21  22
ATOM     22  C   UNL     1       4.380   5.227  18.644  0.00  0.00    +0.000 A 
ATOM     23  C   UNL     1       5.736   5.546  18.761  0.00  0.00    +0.000 A 
ATOM     24  C   UNL     1       6.631   5.162  17.762  0.00  0.00    +0.000 A 
ATOM     25  C   UNL     1       6.164   4.461  16.656  0.00  0.00    +0.000 A 
ATOM     26  F   UNL     1       7.017   4.113  15.685  0.00  0.00    +0.000 F 
ATOM     27  C   UNL     1       4.824   4.109  16.544  0.00  0.00    +0.000 A 
ATOM     28  C   UNL     1       3.934   4.468  17.555  0.00  0.00    +0.000 A 
ENDBRANCH  21  22
ENDBRANCH  18  21
ENDBRANCH   5  15
BRANCH   7  29
ATOM     29  C   UNL     1      -2.710  11.402  16.911  0.00  0.00    +0.000 C 
ATOM     30  O   UNL     1      -2.863  10.887  15.818  0.00  0.00    +0.000 OA
BRANCH  29  31
ATOM     31  OXT UNL     1      -3.679  12.059  17.595  0.00  0.00    +0.000 OA
ATOM     32  HXT UNL     1      -4.398  11.419  17.824  0.00  0.00    +0.000 HD
ENDBRANCH  29  31
ENDBRANCH   7  29
TORSDOF 6
ENDMDL
MODEL 5
REMARK VINA RESULT:      -8.2      2.754      3.444
REMARK  Name = 
REMARK  7 active torsions:
REMARK  status: ('A' for Active; 'I' for Inactive)
REMARK    1  A    between atoms: C_1  and  N_2
REMARK    2  A    between atoms: N_2  and  C_3
REMARK    3  A    between atoms: C_11  and  C_12
REMARK    4  A    between atoms: C_15  and  O_16
REMARK    5  A    between atoms: O_16  and  C_17
REMARK    6  A    between atoms: CA_27  and  C_28
REMARK    7  A    between atoms: C_28  and  OXT_30
REMARK                            x       y       z     vdW  Elec       q    Type
REMARK                         _______ _______ _______ _____ _____    ______ ____
ROOT
ATOM      1  C   UNL     1      -0.652  13.251  22.359  0.00  0.00    +0.000 C 
ATOM      2  N   UNL     1      -1.883  12.917  21.634  0.00  0.00    +0.000 N 
ATOM      3  C   UNL     1      -1.769  12.105  20.483  0.00  0.00    +0.000 A 
ATOM      4  C   UNL     1      -0.697  11.226  20.305  0.00  0.00    +0.000 A 
ATOM      5  C   UNL     1      -0.608  10.373  19.190  0.00  0.00    +0.000 A 
ATOM      6  C   UNL     1      -1.621  10.456  18.239  0.00  0.00    +0.000 A 
ATOM      7  CA  UNL     1      -2.639  11.363  18.452  0.00  0.00    +0.000 A 
ATOM      8  N   UNL     1      -2.739  12.172  19.540  0.00  0.00    +0.000 NA
ENDROOT
BRANCH   2   9
ATOM      9  C   UNL     1      -3.059  13.595  22.029  0.00  0.00    +0.000 A 
ATOM     10  C   UNL     1      -3.323  14.925  21.663  0.00  0.00    +0.000 A 
ATOM     11  C   UNL     1      -4.493  15.575  22.071  0.00  0.00    +0.000 A 
ATOM     12  C   UNL     1      -5.429  14.902  22.850  0.00  0.00    +0.000 A 
ATOM     13  C   UNL     1      -5.196  13.584  23.223  0.00  0.00    +0.000 A 
ATOM     14  C   UNL     1      -4.023  12.940  22.817  0.00  0.00    +0.000 A 
ENDBRANCH   2   9
BRANCH   5  15
ATOM     15  C   UNL     1       0.513   9.424  19.048  0.00  0.00    +0.000 A 
ATOM     16  C   UNL     1       0.943   8.629  20.127  0.00  0.00    +0.000 A 
ATOM     17  C   UNL     1       1.988   7.712  19.982  0.00  0.00    +0.000 A 
ATOM     18  C   UNL     1       2.614   7.562  18.748  0.00  0.00    +0.000 A 
ATOM     19  C   UNL     1       2.248   8.385  17.684  0.00  0.00    +0.000 A 
ATOM     20  C   UNL     1       1.193   9.287  17.826  0.00  0.00    +0.000 A 
BRANCH  18  21
ATOM     21  O   UNL     1       3.607   6.614  18.678  0.00  0.00    +0.000 OA
BRANCH  21  22
ATOM     22  C   UNL     1       3.271   5.282  18.787  0.00  0.00    +0.000 A 
ATOM     23  C   UNL     1       2.251   4.841  17.939  0.00  0.00    +0.000 A 
ATOM     24  C   UNL     1       1.829   3.512  17.989  0.00  0.00    +0.000 A 
ATOM     25  C   UNL     1       2.432   2.635  18.885  0.00  0.00    +0.000 A 
ATOM     26  F   UNL     1       2.011   1.366  18.951  0.00  0.00    +0.000 F 
ATOM     27  C   UNL     1       3.469   3.053  19.710  0.00  0.00    +0.000 A 
ATOM     28  C   UNL     1       3.910   4.374  19.640  0.00  0.00    +0.000 A 
ENDBRANCH  21  22
ENDBRANCH  18  21
ENDBRANCH   5  15
BRANCH   7  29
ATOM     29  C   UNL     1      -3.735  11.504  17.451  0.00  0.00    +0.000 C 
ATOM     30  O   UNL     1      -4.918  11.602  17.721  0.00  0.00    +0.000 OA
BRANCH  29  31
ATOM     31  OXT UNL     1      -3.229  11.506  16.193  0.00  0.00    +0.000 OA
ATOM     32  HXT UNL     1      -2.777  12.371  16.032  0.00  0.00    +0.000 HD
ENDBRANCH  29  31
ENDBRANCH   7  29
TORSDOF 6
ENDMDL
MODEL 6
REMARK VINA RESULT:      -8.1      1.527      2.149
REMARK  Name = 
REMARK  7 active torsions:
REMARK  status: ('A' for Active; 'I' for Inactive)
REMARK    1  A    between atoms: C_1  and  N_2
REMARK    2  A    between atoms: N_2  and  C_3
REMARK    3  A    between atoms: C_11  and  C_12
REMARK    4  A    between atoms: C_15  and  O_16
REMARK    5  A    between atoms: O_16  and  C_17
REMARK    6  A    between atoms: CA_27  and  C_28
REMARK    7  A    between atoms: C_28  and  OXT_30
REMARK                            x       y       z     vdW  Elec       q    Type
REMARK                         _______ _______ _______ _____ _____    ______ ____
ROOT
ATOM      1  C   UNL     1       1.932  14.552  18.798  0.00  0.00    +0.000 C 
ATOM      2  N   UNL     1       0.478  14.389  18.909  0.00  0.00    +0.000 N 
ATOM      3  C   UNL     1      -0.058  13.099  18.695  0.00  0.00    +0.000 A 
ATOM      4  C   UNL     1       0.704  11.943  18.890  0.00  0.00    +0.000 A 
ATOM      5  C   UNL     1       0.160  10.655  18.735  0.00  0.00    +0.000 A 
ATOM      6  C   UNL     1      -1.174  10.567  18.343  0.00  0.00    +0.000 A 
ATOM      7  CA  UNL     1      -1.868  11.741  18.136  0.00  0.00    +0.000 A 
ATOM      8  N   UNL     1      -1.351  12.987  18.307  0.00  0.00    +0.000 NA
ENDROOT
BRANCH   2   9
ATOM      9  C   UNL     1      -0.289  15.571  19.025  0.00  0.00    +0.000 A 
ATOM     10  C   UNL     1      -1.130  15.820  20.121  0.00  0.00    +0.000 A 
ATOM     11  C   UNL     1      -1.883  16.996  20.209  0.00  0.00    +0.000 A 
ATOM     12  C   UNL     1      -1.804  17.952  19.202  0.00  0.00    +0.000 A 
ATOM     13  C   UNL     1      -0.976  17.733  18.108  0.00  0.00    +0.000 A 
ATOM     14  C   UNL     1      -0.229  16.555  18.021  0.00  0.00    +0.000 A 
ENDBRANCH   2   9
BRANCH   5  15
ATOM     15  C   UNL     1       0.973   9.451  18.989  0.00  0.00    +0.000 A 
ATOM     16  C   UNL     1       1.730   8.847  17.966  0.00  0.00    +0.000 A 
ATOM     17  C   UNL     1       2.520   7.722  18.216  0.00  0.00    +0.000 A 
ATOM     18  C   UNL     1       2.580   7.186  19.499  0.00  0.00    +0.000 A 
ATOM     19  C   UNL     1       1.789   7.728  20.511  0.00  0.00    +0.000 A 
ATOM     20  C   UNL     1       1.014   8.862  20.263  0.00  0.00    +0.000 A 
BRANCH  18  21
ATOM     21  O   UNL     1       3.409   6.102  19.670  0.00  0.00    +0.000 OA
BRANCH  21  22
ATOM     22  C   UNL     1       3.082   4.908  19.067  0.00  0.00    +0.000 A 
ATOM     23  C   UNL     1       4.083   4.329  18.281  0.00  0.00    +0.000 A 
ATOM     24  C   UNL     1       3.839   3.127  17.616  0.00  0.00    +0.000 A 
ATOM     25  C   UNL     1       2.598   2.512  17.744  0.00  0.00    +0.000 A 
ATOM     26  F   UNL     1       2.354   1.372  17.087  0.00  0.00    +0.000 F 
ATOM     27  C   UNL     1       1.606   3.061  18.548  0.00  0.00    +0.000 A 
ATOM     28  C   UNL     1       1.859   4.247  19.236  0.00  0.00    +0.000 A 
ENDBRANCH  21  22
ENDBRANCH  18  21
ENDBRANCH   5  15
BRANCH   7  29
ATOM     29  C   UNL     1      -3.292  11.698  17.695  0.00  0.00    +0.000 C 
ATOM     30  O   UNL     1      -3.677  11.271  16.621  0.00  0.00    +0.000 OA
BRANCH  29  31
ATOM     31  OXT UNL     1      -4.101  12.203  18.658  0.00  0.00    +0.000 OA
ATOM     32  HXT UNL     1      -3.588  12.274  19.501  0.00  0.00    +0.000 HD
ENDBRANCH  29  31
ENDBRANCH   7  29
TORSDOF 6
ENDMDL
MODEL 7
REMARK VINA RESULT:      -8.1      2.537      3.161
REMARK  Name = 
REMARK  7 active torsions:
REMARK  status: ('A' for Active; 'I' for Inactive)
REMARK    1  A    between atoms: C_1  and  N_2
REMARK    2  A    between atoms: N_2  and  C_3
REMARK    3  A    between atoms: C_11  and  C_12
REMARK    4  A    between atoms: C_15  and  O_16
REMARK    5  A    between atoms: O_16  and  C_17
REMARK    6  A    between atoms: CA_27  and  C_28
REMARK    7  A    between atoms: C_28  and  OXT_30
REMARK                            x       y       z     vdW  Elec       q    Type
REMARK                         _______ _______ _______ _____ _____    ______ ____
ROOT
ATOM      1  C   UNL     1      -1.088  13.512  22.092  0.00  0.00    +0.000 C 
ATOM      2  N   UNL     1      -2.264  13.129  21.306  0.00  0.00    +0.000 N 
ATOM      3  C   UNL     1      -2.069  12.260  20.208  0.00  0.00    +0.000 A 
ATOM      4  C   UNL     1      -0.980  11.385  20.147  0.00  0.00    +0.000 A 
ATOM      5  C   UNL     1      -0.811  10.477  19.085  0.00  0.00    +0.000 A 
ATOM      6  C   UNL     1      -1.759  10.501  18.066  0.00  0.00    +0.000 A 
ATOM      7  CA  UNL     1      -2.795  11.407  18.164  0.00  0.00    +0.000 A 
ATOM      8  N   UNL     1      -2.974  12.269  19.200  0.00  0.00    +0.000 NA
ENDROOT
BRANCH   2   9
ATOM      9  C   UNL     1      -3.470  13.813  21.586  0.00  0.00    +0.000 A 
ATOM     10  C   UNL     1      -4.560  13.195  22.218  0.00  0.00    +0.000 A 
ATOM     11  C   UNL     1      -5.743  13.894  22.479  0.00  0.00    +0.000 A 
ATOM     12  C   UNL     1      -5.857  15.232  22.117  0.00  0.00    +0.000 A 
ATOM     13  C   UNL     1      -4.792  15.871  21.494  0.00  0.00    +0.000 A 
ATOM     14  C   UNL     1      -3.613  15.167  21.230  0.00  0.00    +0.000 A 
ENDBRANCH   2   9
BRANCH   5  15
ATOM     15  C   UNL     1       0.323   9.534  19.066  0.00  0.00    +0.000 A 
ATOM     16  C   UNL     1       0.753   8.878  20.236  0.00  0.00    +0.000 A 
ATOM     17  C   UNL     1       1.811   7.966  20.210  0.00  0.00    +0.000 A 
ATOM     18  C   UNL     1       2.452   7.680  19.008  0.00  0.00    +0.000 A 
ATOM     19  C   UNL     1       2.087   8.366  17.851  0.00  0.00    +0.000 A 
ATOM     20  C   UNL     1       1.019   9.264  17.876  0.00  0.00    +0.000 A 
BRANCH  18  21
ATOM     21  O   UNL     1       3.458   6.745  19.060  0.00  0.00    +0.000 OA
BRANCH  21  22
ATOM     22  C   UNL     1       3.241   5.496  18.520  0.00  0.00    +0.000 A 
ATOM     23  C   UNL     1       2.082   4.842  18.947  0.00  0.00    +0.000 A 
ATOM     24  C   UNL     1       1.787   3.565  18.467  0.00  0.00    +0.000 A 
ATOM     25  C   UNL     1       2.651   2.955  17.564  0.00  0.00    +0.000 A 
ATOM     26  F   UNL     1       2.381   1.720  17.122  0.00  0.00    +0.000 F 
ATOM     27  C   UNL     1       3.789   3.609  17.107  0.00  0.00    +0.000 A 
ATOM     28  C   UNL     1       4.070   4.896  17.564  0.00  0.00    +0.000 A 
ENDBRANCH  21  22
ENDBRANCH  18  21
ENDBRANCH   5  15
BRANCH   7  29
ATOM     29  C   UNL     1      -3.823  11.485  17.087  0.00  0.00    +0.000 C 
ATOM     30  O   UNL     1      -5.027  11.504  17.271  0.00  0.00    +0.000 OA
BRANCH  29  31
ATOM     31  OXT UNL     1      -3.229  11.530  15.869  0.00  0.00    +0.000 OA
ATOM     32  HXT UNL     1      -3.897  11.820  15.199  0.00  0.00    +0.000 HD
ENDBRANCH  29  31
ENDBRANCH   7  29
TORSDOF 6
ENDMDL
MODEL 8
REMARK VINA RESULT:      -8.1      0.972      1.299
REMARK  Name = 
REMARK  7 active torsions:
REMARK  status: ('A' for Active; 'I' for Inactive)
REMARK    1  A    between atoms: C_1  and  N_2
REMARK    2  A    between atoms: N_2  and  C_3
REMARK    3  A    between atoms: C_11  and  C_12
REMARK    4  A    between atoms: C_15  and  O_16
REMARK    5  A    between atoms: O_16  and  C_17
REMARK    6  A    between atoms: CA_27  and  C_28
REMARK    7  A    between atoms: C_28  and  OXT_30
REMARK                            x       y       z     vdW  Elec       q    Type
REMARK                         _______ _______ _______ _____ _____    ______ ____
ROOT
ATOM      1  C   UNL     1       2.973  14.117  18.456  0.00  0.00    +0.000 C 
ATOM      2  N   UNL     1       1.579  14.162  18.910  0.00  0.00    +0.000 N 
ATOM      3  C   UNL     1       0.829  12.965  18.857  0.00  0.00    +0.000 A 
ATOM      4  C   UNL     1       1.444  11.710  18.891  0.00  0.00    +0.000 A 
ATOM      5  C   UNL     1       0.701  10.515  18.896  0.00  0.00    +0.000 A 
ATOM      6  C   UNL     1      -0.686  10.624  18.833  0.00  0.00    +0.000 A 
ATOM      7  CA  UNL     1      -1.236  11.888  18.770  0.00  0.00    +0.000 A 
ATOM      8  N   UNL     1      -0.521  13.044  18.788  0.00  0.00    +0.000 NA
ENDROOT
BRANCH   2   9
ATOM      9  C   UNL     1       1.037  15.440  19.179  0.00  0.00    +0.000 A 
ATOM     10  C   UNL     1       0.770  16.376  18.166  0.00  0.00    +0.000 A 
ATOM     11  C   UNL     1       0.239  17.636  18.460  0.00  0.00    +0.000 A 
ATOM     12  C   UNL     1      -0.044  17.984  19.777  0.00  0.00    +0.000 A 
ATOM     13  C   UNL     1       0.206  17.076  20.799  0.00  0.00    +0.000 A 
ATOM     14  C   UNL     1       0.742  15.820  20.501  0.00  0.00    +0.000 A 
ENDBRANCH   2   9
BRANCH   5  15
ATOM     15  C   UNL     1       1.372   9.204  18.977  0.00  0.00    +0.000 A 
ATOM     16  C   UNL     1       1.384   8.457  20.171  0.00  0.00    +0.000 A 
ATOM     17  C   UNL     1       1.998   7.204  20.237  0.00  0.00    +0.000 A 
ATOM     18  C   UNL     1       2.601   6.665  19.105  0.00  0.00    +0.000 A 
ATOM     19  C   UNL     1       2.658   7.415  17.930  0.00  0.00    +0.000 A 
ATOM     20  C   UNL     1       2.029   8.658  17.862  0.00  0.00    +0.000 A 
BRANCH  18  21
ATOM     21  O   UNL     1       3.150   5.412  19.243  0.00  0.00    +0.000 OA
BRANCH  21  22
ATOM     22  C   UNL     1       4.282   5.094  18.525  0.00  0.00    +0.000 A 
ATOM     23  C   UNL     1       5.498   5.425  19.128  0.00  0.00    +0.000 A 
ATOM     24  C   UNL     1       6.699   5.158  18.470  0.00  0.00    +0.000 A 
ATOM     25  C   UNL     1       6.673   4.559  17.215  0.00  0.00    +0.000 A 
ATOM     26  F   UNL     1       7.823   4.324  16.571  0.00  0.00    +0.000 F 
ATOM     27  C   UNL     1       5.471   4.195  16.618  0.00  0.00    +0.000 A 
ATOM     28  C   UNL     1       4.273   4.436  17.288  0.00  0.00    +0.000 A 
ENDBRANCH  21  22
ENDBRANCH  18  21
ENDBRANCH   5  15
BRANCH   7  29
ATOM     29  C   UNL     1      -2.715  12.055  18.679  0.00  0.00    +0.000 C 
ATOM     30  O   UNL     1      -3.452  12.269  19.624  0.00  0.00    +0.000 OA
BRANCH  29  31
ATOM     31  OXT UNL     1      -3.126  11.933  17.392  0.00  0.00    +0.000 OA
ATOM     32  HXT UNL     1      -3.852  12.584  17.227  0.00  0.00    +0.000 HD
ENDBRANCH  29  31
ENDBRANCH   7  29
TORSDOF 6
ENDMDL
MODEL 9
REMARK VINA RESULT:      -8.1      2.612      3.424
REMARK  Name = 
REMARK  7 active torsions:
REMARK  status: ('A' for Active; 'I' for Inactive)
REMARK    1  A    between atoms: C_1  and  N_2
REMARK    2  A    between atoms: N_2  and  C_3
REMARK    3  A    between atoms: C_11  and  C_12
REMARK    4  A    between atoms: C_15  and  O_16
REMARK    5  A    between atoms: O_16  and  C_17
REMARK    6  A    between atoms: CA_27  and  C_28
REMARK    7  A    between atoms: C_28  and  OXT_30
REMARK                            x       y       z     vdW  Elec       q    Type
REMARK                         _______ _______ _______ _____ _____    ______ ____
ROOT
ATOM      1  C   UNL     1      -1.014  10.367  23.245  0.00  0.00    +0.000 C 
ATOM      2  N   UNL     1      -1.087  11.272  22.093  0.00  0.00    +0.000 N 
ATOM      3  C   UNL     1      -0.182  11.058  21.028  0.00  0.00    +0.000 A 
ATOM      4  C   UNL     1       0.385   9.803  20.786  0.00  0.00    +0.000 A 
ATOM      5  C   UNL     1       1.240   9.570  19.694  0.00  0.00    +0.000 A 
ATOM      6  C   UNL     1       1.535  10.652  18.869  0.00  0.00    +0.000 A 
ATOM      7  CA  UNL     1       0.970  11.873  19.174  0.00  0.00    +0.000 A 
ATOM      8  N   UNL     1       0.125  12.096  20.215  0.00  0.00    +0.000 NA
ENDROOT
BRANCH   2   9
ATOM      9  C   UNL     1      -1.921  12.407  22.225  0.00  0.00    +0.000 A 
ATOM     10  C   UNL     1      -1.667  13.426  23.157  0.00  0.00    +0.000 A 
ATOM     11  C   UNL     1      -2.512  14.536  23.271  0.00  0.00    +0.000 A 
ATOM     12  C   UNL     1      -3.627  14.651  22.447  0.00  0.00    +0.000 A 
ATOM     13  C   UNL     1      -3.899  13.659  21.513  0.00  0.00    +0.000 A 
ATOM     14  C   UNL     1      -3.056  12.550  21.406  0.00  0.00    +0.000 A 
ENDBRANCH   2   9
BRANCH   5  15
ATOM     15  C   UNL     1       1.792   8.226  19.435  0.00  0.00    +0.000 A 
ATOM     16  C   UNL     1       2.466   7.927  18.235  0.00  0.00    +0.000 A 
ATOM     17  C   UNL     1       3.010   6.661  18.004  0.00  0.00    +0.000 A 
ATOM     18  C   UNL     1       2.902   5.671  18.975  0.00  0.00    +0.000 A 
ATOM     19  C   UNL     1       2.183   5.924  20.142  0.00  0.00    +0.000 A 
ATOM     20  C   UNL     1       1.656   7.194  20.379  0.00  0.00    +0.000 A 
BRANCH  18  21
ATOM     21  O   UNL     1       3.496   4.465  18.686  0.00  0.00    +0.000 OA
BRANCH  21  22
ATOM     22  C   UNL     1       4.546   4.431  17.795  0.00  0.00    +0.000 A 
ATOM     23  C   UNL     1       5.807   4.707  18.330  0.00  0.00    +0.000 A 
ATOM     24  C   UNL     1       6.929   4.713  17.501  0.00  0.00    +0.000 A 
ATOM     25  C   UNL     1       6.781   4.442  16.145  0.00  0.00    +0.000 A 
ATOM     26  F   UNL     1       7.854   4.472  15.345  0.00  0.00    +0.000 F 
ATOM     27  C   UNL     1       5.538   4.134  15.607  0.00  0.00    +0.000 A 
ATOM     28  C   UNL     1       4.420   4.100  16.440  0.00  0.00    +0.000 A 
ENDBRANCH  21  22
ENDBRANCH  18  21
ENDBRANCH   5  15
BRANCH   7  29
ATOM     29  C   UNL     1       1.272  13.066  18.332  0.00  0.00    +0.000 C 
ATOM     30  O   UNL     1       0.748  14.158  18.456  0.00  0.00    +0.000 OA
BRANCH  29  31
ATOM     31  OXT UNL     1       2.214  12.765  17.405  0.00  0.00    +0.000 OA
ATOM     32  HXT UNL     1       3.041  12.483  17.869  0.00  0.00    +0.000 HD
ENDBRANCH  29  31
ENDBRANCH   7  29
TORSDOF 6
ENDMDL
