MODEL 1
REMARK VINA RESULT:      -7.4      0.000      0.000
REMARK  Name = 
REMARK  11 active torsions:
REMARK  status: ('A' for Active; 'I' for Inactive)
REMARK    1  A    between atoms: C_1  and  C_2
REMARK    2  A    between atoms: C_2  and  C_3
REMARK    3  A    between atoms: C_2  and  C_4
REMARK    4  A    between atoms: C_7  and  O_8
REMARK    5  A    between atoms: O_8  and  C_9
REMARK    6  A    between atoms: C_9  and  C_10
REMARK    7  A    between atoms: C_9  and  C_11
REMARK    8  A    between atoms: C_9  and  C_17
REMARK    9  A    between atoms: C_11  and  O_12
REMARK   10  A    between atoms: O_12  and  P_13
REMARK   11  A    between atoms: C_17  and  C_18
REMARK                            x       y       z     vdW  Elec       q    Type
REMARK                         _______ _______ _______ _____ _____    ______ ____
ROOT
ATOM      1  C   UNL     1       4.467   5.828  17.055  0.00  0.00    +0.000 C 
ATOM      2  C   UNL     1       5.041   6.176  15.673  0.00  0.00    +0.000 C 
ENDROOT
BRANCH   1   3
ATOM      3  O   UNL     1       3.084   6.271  17.159  0.00  0.00    +0.000 OA
BRANCH   3   7
ATOM      4  C   UNL     1       1.426   8.944  19.948  0.00  0.00    +0.000 A 
ATOM      5  C   UNL     1       1.669   9.302  18.620  0.00  0.00    +0.000 A 
ATOM      6  C   UNL     1       2.247   8.384  17.724  0.00  0.00    +0.000 A 
ATOM      7  C   UNL     1       2.631   7.106  18.144  0.00  0.00    +0.000 A 
ATOM      8  C   UNL     1       2.462   6.788  19.488  0.00  0.00    +0.000 A 
ATOM      9  C   UNL     1       1.836   7.672  20.366  0.00  0.00    +0.000 A 
BRANCH   4  11
ATOM     10  C   UNL     1      -0.615  10.341  20.251  0.00  0.00    +0.000 C 
ATOM     11  C   UNL     1       0.695   9.880  20.896  0.00  0.00    +0.000 C 
ATOM     12  C   UNL     1       0.397   9.271  22.276  0.00  0.00    +0.000 C 
ENDBRANCH   4  11
ENDBRANCH   3   7
ENDBRANCH   1   3
BRANCH   1  13
ATOM     13  C   UNL     1       5.323   6.320  18.256  0.00  0.00    +0.000 C 
BRANCH  13  14
ATOM     14  O   UNL     1       6.719   6.470  17.963  0.00  0.00    +0.000 OA
BRANCH  14  15
ATOM     15  P   UNL     1       7.821   5.716  19.064  0.00  0.00    +0.000 P 
ATOM     16  O   UNL     1       6.696   5.307  20.058  0.00  0.00    +0.000 OA
ATOM     17  O   UNL     1       7.931   4.426  18.205  0.00  0.00    +0.000 OA
ATOM     18  O   UNL     1       8.921   4.963  20.166  0.00  0.00    +0.000 OA
ENDBRANCH  14  15
ENDBRANCH  13  14
ENDBRANCH   1  13
BRANCH   1  19
ATOM     19  C   UNL     1       4.456   4.269  17.222  0.00  0.00    +0.000 C 
BRANCH  19  20
ATOM     20  C   UNL     1       3.638   3.650  18.334  0.00  0.00    +0.000 A 
ATOM     21  C   UNL     1       4.257   3.247  19.526  0.00  0.00    +0.000 A 
ATOM     22  C   UNL     1       3.495   2.806  20.610  0.00  0.00    +0.000 A 
ATOM     23  C   UNL     1       2.106   2.767  20.509  0.00  0.00    +0.000 A 
ATOM     24 CL   UNL     1       1.163   2.272  21.861  0.00  0.00    +0.000 Cl
ATOM     25  C   UNL     1       1.474   3.147  19.328  0.00  0.00    +0.000 A 
ATOM     26  C   UNL     1       2.237   3.589  18.246  0.00  0.00    +0.000 A 
ENDBRANCH  19  20
ENDBRANCH   1  19
TORSDOF 8
ENDMDL
MODEL 2
REMARK VINA RESULT:      -6.9      3.551      5.603
REMARK  Name = 
REMARK  11 active torsions:
REMARK  status: ('A' for Active; 'I' for Inactive)
REMARK    1  A    between atoms: C_1  and  C_2
REMARK    2  A    between atoms: C_2  and  C_3
REMARK    3  A    between atoms: C_2  and  C_4
REMARK    4  A    between atoms: C_7  and  O_8
REMARK    5  A    between atoms: O_8  and  C_9
REMARK    6  A    between atoms: C_9  and  C_10
REMARK    7  A    between atoms: C_9  and  C_11
REMARK    8  A    between atoms: C_9  and  C_17
REMARK    9  A    between atoms: C_11  and  O_12
REMARK   10  A    between atoms: O_12  and  P_13
REMARK   11  A    between atoms: C_17  and  C_18
REMARK                            x       y       z     vdW  Elec       q    Type
REMARK                         _______ _______ _______ _____ _____    ______ ____
ROOT
ATOM      1  C   UNL     1       6.757   6.411  17.851  0.00  0.00    +0.000 C 
ATOM      2  C   UNL     1       5.590   6.973  17.024  0.00  0.00    +0.000 C 
ENDROOT
BRANCH   1   3
ATOM      3  O   UNL     1       6.267   5.821  19.087  0.00  0.00    +0.000 OA
BRANCH   3   7
ATOM      4  C   UNL     1       2.523   4.040  19.787  0.00  0.00    +0.000 A 
ATOM      5  C   UNL     1       3.676   3.291  19.544  0.00  0.00    +0.000 A 
ATOM      6  C   UNL     1       4.905   3.926  19.292  0.00  0.00    +0.000 A 
ATOM      7  C   UNL     1       5.003   5.320  19.237  0.00  0.00    +0.000 A 
ATOM      8  C   UNL     1       3.833   6.057  19.397  0.00  0.00    +0.000 A 
ATOM      9  C   UNL     1       2.623   5.435  19.706  0.00  0.00    +0.000 A 
BRANCH   4  11
ATOM     10  C   UNL     1       0.742   2.467  19.038  0.00  0.00    +0.000 C 
ATOM     11  C   UNL     1       1.216   3.373  20.179  0.00  0.00    +0.000 C 
ATOM     12  C   UNL     1       1.289   2.558  21.480  0.00  0.00    +0.000 C 
ENDBRANCH   4  11
ENDBRANCH   3   7
ENDBRANCH   1   3
BRANCH   1  13
ATOM     13  C   UNL     1       7.913   7.418  18.109  0.00  0.00    +0.000 C 
BRANCH  13  14
ATOM     14  O   UNL     1       7.661   8.744  17.624  0.00  0.00    +0.000 OA
BRANCH  14  15
ATOM     15  P   UNL     1       8.901   9.916  17.912  0.00  0.00    +0.000 P 
ATOM     16  O   UNL     1       7.920  11.119  17.804  0.00  0.00    +0.000 OA
ATOM     17  O   UNL     1       8.893   9.673  19.447  0.00  0.00    +0.000 OA
ATOM     18  O   UNL     1      10.140  11.089  18.199  0.00  0.00    +0.000 OA
ENDBRANCH  14  15
ENDBRANCH  13  14
ENDBRANCH   1  13
BRANCH   1  19
ATOM     19  C   UNL     1       7.444   5.258  17.040  0.00  0.00    +0.000 C 
BRANCH  19  20
ATOM     20  C   UNL     1       6.833   4.809  15.731  0.00  0.00    +0.000 A 
ATOM     21  C   UNL     1       7.459   5.120  14.516  0.00  0.00    +0.000 A 
ATOM     22  C   UNL     1       6.982   4.593  13.313  0.00  0.00    +0.000 A 
ATOM     23  C   UNL     1       5.874   3.749  13.320  0.00  0.00    +0.000 A 
ATOM     24 CL   UNL     1       5.315   3.059  11.845  0.00  0.00    +0.000 Cl
ATOM     25  C   UNL     1       5.228   3.443  14.514  0.00  0.00    +0.000 A 
ATOM     26  C   UNL     1       5.707   3.969  15.715  0.00  0.00    +0.000 A 
ENDBRANCH  19  20
ENDBRANCH   1  19
TORSDOF 8
ENDMDL
MODEL 3
REMARK VINA RESULT:      -6.9      1.143      1.533
REMARK  Name = 
REMARK  11 active torsions:
REMARK  status: ('A' for Active; 'I' for Inactive)
REMARK    1  A    between atoms: C_1  and  C_2
REMARK    2  A    between atoms: C_2  and  C_3
REMARK    3  A    between atoms: C_2  and  C_4
REMARK    4  A    between atoms: C_7  and  O_8
REMARK    5  A    between atoms: O_8  and  C_9
REMARK    6  A    between atoms: C_9  and  C_10
REMARK    7  A    between atoms: C_9  and  C_11
REMARK    8  A    between atoms: C_9  and  C_17
REMARK    9  A    between atoms: C_11  and  O_12
REMARK   10  A    between atoms: O_12  and  P_13
REMARK   11  A    between atoms: C_17  and  C_18
REMARK                            x       y       z     vdW  Elec       q    Type
REMARK                         _______ _______ _______ _____ _____    ______ ____
ROOT
ATOM      1  C   UNL     1       4.357   4.967  17.269  0.00  0.00    +0.000 C 
ATOM      2  C   UNL     1       4.896   5.108  15.837  0.00  0.00    +0.000 C 
ENDROOT
BRANCH   1   3
ATOM      3  O   UNL     1       3.007   5.501  17.361  0.00  0.00    +0.000 OA
BRANCH   3   7
ATOM      4  C   UNL     1       1.611   8.562  19.884  0.00  0.00    +0.000 A 
ATOM      5  C   UNL     1       1.908   8.778  18.537  0.00  0.00    +0.000 A 
ATOM      6  C   UNL     1       2.395   7.732  17.732  0.00  0.00    +0.000 A 
ATOM      7  C   UNL     1       2.633   6.460  18.264  0.00  0.00    +0.000 A 
ATOM      8  C   UNL     1       2.414   6.276  19.626  0.00  0.00    +0.000 A 
ATOM      9  C   UNL     1       1.876   7.293  20.414  0.00  0.00    +0.000 A 
BRANCH   4  11
ATOM     10  C   UNL     1       0.750  10.900  19.885  0.00  0.00    +0.000 C 
ATOM     11  C   UNL     1       0.973   9.646  20.736  0.00  0.00    +0.000 C 
ATOM     12  C   UNL     1      -0.354   9.232  21.392  0.00  0.00    +0.000 C 
ENDBRANCH   4  11
ENDBRANCH   3   7
ENDBRANCH   1   3
BRANCH   1  13
ATOM     13  C   UNL     1       5.286   5.550  18.372  0.00  0.00    +0.000 C 
BRANCH  13  14
ATOM     14  O   UNL     1       6.660   5.676  17.981  0.00  0.00    +0.000 OA
BRANCH  14  15
ATOM     15  P   UNL     1       7.228   7.282  17.676  0.00  0.00    +0.000 P 
ATOM     16  O   UNL     1       8.397   7.163  18.696  0.00  0.00    +0.000 OA
ATOM     17  O   UNL     1       7.949   6.869  16.362  0.00  0.00    +0.000 OA
ATOM     18  O   UNL     1       7.797   8.887  17.373  0.00  0.00    +0.000 OA
ENDBRANCH  14  15
ENDBRANCH  13  14
ENDBRANCH   1  13
BRANCH   1  19
ATOM     19  C   UNL     1       4.267   3.444  17.630  0.00  0.00    +0.000 C 
BRANCH  19  20
ATOM     20  C   UNL     1       3.425   3.012  18.811  0.00  0.00    +0.000 A 
ATOM     21  C   UNL     1       3.993   2.936  20.091  0.00  0.00    +0.000 A 
ATOM     22  C   UNL     1       3.196   2.676  21.208  0.00  0.00    +0.000 A 
ATOM     23  C   UNL     1       1.824   2.493  21.052  0.00  0.00    +0.000 A 
ATOM     24 CL   UNL     1       0.833   2.223  22.434  0.00  0.00    +0.000 Cl
ATOM     25  C   UNL     1       1.245   2.548  19.787  0.00  0.00    +0.000 A 
ATOM     26  C   UNL     1       2.043   2.809  18.671  0.00  0.00    +0.000 A 
ENDBRANCH  19  20
ENDBRANCH   1  19
TORSDOF 8
ENDMDL
MODEL 4
REMARK VINA RESULT:      -6.8      1.654      2.431
REMARK  Name = 
REMARK  11 active torsions:
REMARK  status: ('A' for Active; 'I' for Inactive)
REMARK    1  A    between atoms: C_1  and  C_2
REMARK    2  A    between atoms: C_2  and  C_3
REMARK    3  A    between atoms: C_2  and  C_4
REMARK    4  A    between atoms: C_7  and  O_8
REMARK    5  A    between atoms: O_8  and  C_9
REMARK    6  A    between atoms: C_9  and  C_10
REMARK    7  A    between atoms: C_9  and  C_11
REMARK    8  A    between atoms: C_9  and  C_17
REMARK    9  A    between atoms: C_11  and  O_12
REMARK   10  A    between atoms: O_12  and  P_13
REMARK   11  A    between atoms: C_17  and  C_18
REMARK                            x       y       z     vdW  Elec       q    Type
REMARK                         _______ _______ _______ _____ _____    ______ ____
ROOT
ATOM      1  C   UNL     1       4.150   6.180  17.805  0.00  0.00    +0.000 C 
ATOM      2  C   UNL     1       3.858   7.175  16.671  0.00  0.00    +0.000 C 
ENDROOT
BRANCH   1   3
ATOM      3  O   UNL     1       3.620   6.675  19.067  0.00  0.00    +0.000 OA
BRANCH   3   7
ATOM      4  C   UNL     1       0.581   9.517  19.676  0.00  0.00    +0.000 A 
ATOM      5  C   UNL     1       0.906   8.550  20.630  0.00  0.00    +0.000 A 
ATOM      6  C   UNL     1       1.914   7.603  20.377  0.00  0.00    +0.000 A 
ATOM      7  C   UNL     1       2.592   7.574  19.154  0.00  0.00    +0.000 A 
ATOM      8  C   UNL     1       2.204   8.487  18.178  0.00  0.00    +0.000 A 
ATOM      9  C   UNL     1       1.246   9.466  18.444  0.00  0.00    +0.000 A 
BRANCH   4  11
ATOM     10  C   UNL     1       0.325  11.939  20.202  0.00  0.00    +0.000 C 
ATOM     11  C   UNL     1      -0.419  10.619  19.977  0.00  0.00    +0.000 C 
ATOM     12  C   UNL     1      -1.487  10.816  18.888  0.00  0.00    +0.000 C 
ENDBRANCH   4  11
ENDBRANCH   3   7
ENDBRANCH   1   3
BRANCH   1  13
ATOM     13  C   UNL     1       5.641   5.758  17.930  0.00  0.00    +0.000 C 
BRANCH  13  14
ATOM     14  O   UNL     1       6.001   4.621  17.134  0.00  0.00    +0.000 OA
BRANCH  14  15
ATOM     15  P   UNL     1       6.979   4.936  15.742  0.00  0.00    +0.000 P 
ATOM     16  O   UNL     1       5.754   5.235  14.831  0.00  0.00    +0.000 OA
ATOM     17  O   UNL     1       7.343   6.370  16.216  0.00  0.00    +0.000 OA
ATOM     18  O   UNL     1       7.957   5.250  14.350  0.00  0.00    +0.000 OA
ENDBRANCH  14  15
ENDBRANCH  13  14
ENDBRANCH   1  13
BRANCH   1  19
ATOM     19  C   UNL     1       3.408   4.832  17.501  0.00  0.00    +0.000 C 
BRANCH  19  20
ATOM     20  C   UNL     1       2.797   4.051  18.643  0.00  0.00    +0.000 A 
ATOM     21  C   UNL     1       3.618   3.353  19.539  0.00  0.00    +0.000 A 
ATOM     22  C   UNL     1       3.078   2.746  20.676  0.00  0.00    +0.000 A 
ATOM     23  C   UNL     1       1.710   2.835  20.922  0.00  0.00    +0.000 A 
ATOM     24 CL   UNL     1       1.050   2.130  22.348  0.00  0.00    +0.000 Cl
ATOM     25  C   UNL     1       0.875   3.508  20.035  0.00  0.00    +0.000 A 
ATOM     26  C   UNL     1       1.418   4.116  18.900  0.00  0.00    +0.000 A 
ENDBRANCH  19  20
ENDBRANCH   1  19
TORSDOF 8
ENDMDL
MODEL 5
REMARK VINA RESULT:      -6.7      3.607      4.994
REMARK  Name = 
REMARK  11 active torsions:
REMARK  status: ('A' for Active; 'I' for Inactive)
REMARK    1  A    between atoms: C_1  and  C_2
REMARK    2  A    between atoms: C_2  and  C_3
REMARK    3  A    between atoms: C_2  and  C_4
REMARK    4  A    between atoms: C_7  and  O_8
REMARK    5  A    between atoms: O_8  and  C_9
REMARK    6  A    between atoms: C_9  and  C_10
REMARK    7  A    between atoms: C_9  and  C_11
REMARK    8  A    between atoms: C_9  and  C_17
REMARK    9  A    between atoms: C_11  and  O_12
REMARK   10  A    between atoms: O_12  and  P_13
REMARK   11  A    between atoms: C_17  and  C_18
REMARK                            x       y       z     vdW  Elec       q    Type
REMARK                         _______ _______ _______ _____ _____    ______ ____
ROOT
ATOM      1  C   UNL     1       3.894   4.740  18.368  0.00  0.00    +0.000 C 
ATOM      2  C   UNL     1       5.041   4.704  19.389  0.00  0.00    +0.000 C 
ENDROOT
BRANCH   1   3
ATOM      3  O   UNL     1       3.808   6.052  17.743  0.00  0.00    +0.000 OA
BRANCH   3   7
ATOM      4  C   UNL     1       1.361   9.087  19.319  0.00  0.00    +0.000 A 
ATOM      5  C   UNL     1       1.788   7.997  20.080  0.00  0.00    +0.000 A 
ATOM      6  C   UNL     1       2.587   6.991  19.509  0.00  0.00    +0.000 A 
ATOM      7  C   UNL     1       2.944   7.030  18.157  0.00  0.00    +0.000 A 
ATOM      8  C   UNL     1       2.445   8.075  17.385  0.00  0.00    +0.000 A 
ATOM      9  C   UNL     1       1.701   9.105  17.960  0.00  0.00    +0.000 A 
BRANCH   4  11
ATOM     10  C   UNL     1      -0.720  10.451  19.200  0.00  0.00    +0.000 C 
ATOM     11  C   UNL     1       0.599  10.240  19.949  0.00  0.00    +0.000 C 
ATOM     12  C   UNL     1       0.311  10.061  21.448  0.00  0.00    +0.000 C 
ENDBRANCH   4  11
ENDBRANCH   3   7
ENDBRANCH   1   3
BRANCH   1  13
ATOM     13  C   UNL     1       2.519   4.271  18.921  0.00  0.00    +0.000 C 
BRANCH  13  14
ATOM     14  O   UNL     1       2.510   2.928  19.421  0.00  0.00    +0.000 OA
BRANCH  14  15
ATOM     15  P   UNL     1       1.835   2.698  20.997  0.00  0.00    +0.000 P 
ATOM     16  O   UNL     1       3.206   2.332  21.635  0.00  0.00    +0.000 OA
ATOM     17  O   UNL     1       1.779   4.224  21.289  0.00  0.00    +0.000 OA
ATOM     18  O   UNL     1       1.160   2.468  22.574  0.00  0.00    +0.000 OA
ENDBRANCH  14  15
ENDBRANCH  13  14
ENDBRANCH   1  13
BRANCH   1  19
ATOM     19  C   UNL     1       4.201   3.714  17.222  0.00  0.00    +0.000 C 
BRANCH  19  20
ATOM     20  C   UNL     1       5.252   4.053  16.188  0.00  0.00    +0.000 A 
ATOM     21  C   UNL     1       4.964   3.926  14.821  0.00  0.00    +0.000 A 
ATOM     22  C   UNL     1       5.874   4.368  13.858  0.00  0.00    +0.000 A 
ATOM     23  C   UNL     1       7.079   4.942  14.257  0.00  0.00    +0.000 A 
ATOM     24 CL   UNL     1       8.179   5.533  13.072  0.00  0.00    +0.000 Cl
ATOM     25  C   UNL     1       7.390   5.060  15.609  0.00  0.00    +0.000 A 
ATOM     26  C   UNL     1       6.479   4.619  16.570  0.00  0.00    +0.000 A 
ENDBRANCH  19  20
ENDBRANCH   1  19
TORSDOF 8
ENDMDL
MODEL 6
REMARK VINA RESULT:      -6.6      3.879      5.696
REMARK  Name = 
REMARK  11 active torsions:
REMARK  status: ('A' for Active; 'I' for Inactive)
REMARK    1  A    between atoms: C_1  and  C_2
REMARK    2  A    between atoms: C_2  and  C_3
REMARK    3  A    between atoms: C_2  and  C_4
REMARK    4  A    between atoms: C_7  and  O_8
REMARK    5  A    between atoms: O_8  and  C_9
REMARK    6  A    between atoms: C_9  and  C_10
REMARK    7  A    between atoms: C_9  and  C_11
REMARK    8  A    between atoms: C_9  and  C_17
REMARK    9  A    between atoms: C_11  and  O_12
REMARK   10  A    between atoms: O_12  and  P_13
REMARK   11  A    between atoms: C_17  and  C_18
REMARK                            x       y       z     vdW  Elec       q    Type
REMARK                         _______ _______ _______ _____ _____    ______ ____
ROOT
ATOM      1  C   UNL     1       5.906   4.943  16.200  0.00  0.00    +0.000 C 
ATOM      2  C   UNL     1       4.897   6.098  16.112  0.00  0.00    +0.000 C 
ENDROOT
BRANCH   1   3
ATOM      3  O   UNL     1       6.841   5.165  17.293  0.00  0.00    +0.000 OA
BRANCH   3   7
ATOM      4  C   UNL     1       8.558   8.806  18.507  0.00  0.00    +0.000 A 
ATOM      5  C   UNL     1       8.650   7.642  19.272  0.00  0.00    +0.000 A 
ATOM      6  C   UNL     1       8.041   6.449  18.841  0.00  0.00    +0.000 A 
ATOM      7  C   UNL     1       7.296   6.403  17.658  0.00  0.00    +0.000 A 
ATOM      8  C   UNL     1       7.139   7.588  16.945  0.00  0.00    +0.000 A 
ATOM      9  C   UNL     1       7.789   8.758  17.337  0.00  0.00    +0.000 A 
BRANCH   4  11
ATOM     10  C   UNL     1       8.811  11.241  18.045  0.00  0.00    +0.000 C 
ATOM     11  C   UNL     1       9.307  10.069  18.897  0.00  0.00    +0.000 C 
ATOM     12  C   UNL     1       9.191  10.435  20.385  0.00  0.00    +0.000 C 
ENDBRANCH   4  11
ENDBRANCH   3   7
ENDBRANCH   1   3
BRANCH   1  13
ATOM     13  C   UNL     1       6.639   4.619  14.868  0.00  0.00    +0.000 C 
BRANCH  13  14
ATOM     14  O   UNL     1       5.774   4.506  13.730  0.00  0.00    +0.000 OA
BRANCH  14  15
ATOM     15  P   UNL     1       6.155   3.255  12.597  0.00  0.00    +0.000 P 
ATOM     16  O   UNL     1       4.818   3.423  11.819  0.00  0.00    +0.000 OA
ATOM     17  O   UNL     1       7.090   4.176  11.765  0.00  0.00    +0.000 OA
ATOM     18  O   UNL     1       6.534   2.005  11.463  0.00  0.00    +0.000 OA
ENDBRANCH  14  15
ENDBRANCH  13  14
ENDBRANCH   1  13
BRANCH   1  19
ATOM     19  C   UNL     1       5.134   3.618  16.528  0.00  0.00    +0.000 C 
BRANCH  19  20
ATOM     20  C   UNL     1       4.060   3.633  17.595  0.00  0.00    +0.000 A 
ATOM     21  C   UNL     1       2.709   3.525  17.237  0.00  0.00    +0.000 A 
ATOM     22  C   UNL     1       1.722   3.396  18.217  0.00  0.00    +0.000 A 
ATOM     23  C   UNL     1       2.082   3.374  19.563  0.00  0.00    +0.000 A 
ATOM     24 CL   UNL     1       0.872   3.165  20.769  0.00  0.00    +0.000 Cl
ATOM     25  C   UNL     1       3.416   3.497  19.938  0.00  0.00    +0.000 A 
ATOM     26  C   UNL     1       4.402   3.624  18.957  0.00  0.00    +0.000 A 
ENDBRANCH  19  20
ENDBRANCH   1  19
TORSDOF 8
ENDMDL
MODEL 7
REMARK VINA RESULT:      -6.6      3.483      4.801
REMARK  Name = 
REMARK  11 active torsions:
REMARK  status: ('A' for Active; 'I' for Inactive)
REMARK    1  A    between atoms: C_1  and  C_2
REMARK    2  A    between atoms: C_2  and  C_3
REMARK    3  A    between atoms: C_2  and  C_4
REMARK    4  A    between atoms: C_7  and  O_8
REMARK    5  A    between atoms: O_8  and  C_9
REMARK    6  A    between atoms: C_9  and  C_10
REMARK    7  A    between atoms: C_9  and  C_11
REMARK    8  A    between atoms: C_9  and  C_17
REMARK    9  A    between atoms: C_11  and  O_12
REMARK   10  A    between atoms: O_12  and  P_13
REMARK   11  A    between atoms: C_17  and  C_18
REMARK                            x       y       z     vdW  Elec       q    Type
REMARK                         _______ _______ _______ _____ _____    ______ ____
ROOT
ATOM      1  C   UNL     1       4.119   5.449  18.348  0.00  0.00    +0.000 C 
ATOM      2  C   UNL     1       5.179   6.513  18.026  0.00  0.00    +0.000 C 
ENDROOT
BRANCH   1   3
ATOM      3  O   UNL     1       2.783   5.962  18.080  0.00  0.00    +0.000 OA
BRANCH   3   7
ATOM      4  C   UNL     1       1.096   9.596  19.352  0.00  0.00    +0.000 A 
ATOM      5  C   UNL     1       1.459   9.363  18.024  0.00  0.00    +0.000 A 
ATOM      6  C   UNL     1       2.042   8.140  17.644  0.00  0.00    +0.000 A 
ATOM      7  C   UNL     1       2.312   7.142  18.586  0.00  0.00    +0.000 A 
ATOM      8  C   UNL     1       2.024   7.417  19.920  0.00  0.00    +0.000 A 
ATOM      9  C   UNL     1       1.392   8.603  20.294  0.00  0.00    +0.000 A 
BRANCH   4  11
ATOM     10  C   UNL     1      -0.432  10.601  21.045  0.00  0.00    +0.000 C 
ATOM     11  C   UNL     1       0.357  10.861  19.758  0.00  0.00    +0.000 C 
ATOM     12  C   UNL     1       1.266  12.085  19.957  0.00  0.00    +0.000 C 
ENDBRANCH   4  11
ENDBRANCH   3   7
ENDBRANCH   1   3
BRANCH   1  13
ATOM     13  C   UNL     1       4.227   4.835  19.772  0.00  0.00    +0.000 C 
BRANCH  13  14
ATOM     14  O   UNL     1       3.903   3.440  19.840  0.00  0.00    +0.000 OA
BRANCH  14  15
ATOM     15  P   UNL     1       2.513   3.019  20.782  0.00  0.00    +0.000 P 
ATOM     16  O   UNL     1       2.417   4.425  21.441  0.00  0.00    +0.000 OA
ATOM     17  O   UNL     1       1.541   3.196  19.582  0.00  0.00    +0.000 OA
ATOM     18  O   UNL     1       1.124   2.600  21.724  0.00  0.00    +0.000 OA
ENDBRANCH  14  15
ENDBRANCH  13  14
ENDBRANCH   1  13
BRANCH   1  19
ATOM     19  C   UNL     1       4.330   4.219  17.398  0.00  0.00    +0.000 C 
BRANCH  19  20
ATOM     20  C   UNL     1       5.285   4.341  16.232  0.00  0.00    +0.000 A 
ATOM     21  C   UNL     1       4.800   4.316  14.917  0.00  0.00    +0.000 A 
ATOM     22  C   UNL     1       5.652   4.568  13.838  0.00  0.00    +0.000 A 
ATOM     23  C   UNL     1       6.997   4.848  14.071  0.00  0.00    +0.000 A 
ATOM     24 CL   UNL     1       8.037   5.208  12.747  0.00  0.00    +0.000 Cl
ATOM     25  C   UNL     1       7.501   4.860  15.368  0.00  0.00    +0.000 A 
ATOM     26  C   UNL     1       6.647   4.610  16.445  0.00  0.00    +0.000 A 
ENDBRANCH  19  20
ENDBRANCH   1  19
TORSDOF 8
ENDMDL
MODEL 8
REMARK VINA RESULT:      -6.6      3.491      4.778
REMARK  Name = 
REMARK  11 active torsions:
REMARK  status: ('A' for Active; 'I' for Inactive)
REMARK    1  A    between atoms: C_1  and  C_2
REMARK    2  A    between atoms: C_2  and  C_3
REMARK    3  A    between atoms: C_2  and  C_4
REMARK    4  A    between atoms: C_7  and  O_8
REMARK    5  A    between atoms: O_8  and  C_9
REMARK    6  A    between atoms: C_9  and  C_10
REMARK    7  A    between atoms: C_9  and  C_11
REMARK    8  A    between atoms: C_9  and  C_17
REMARK    9  A    between atoms: C_11  and  O_12
REMARK   10  A    between atoms: O_12  and  P_13
REMARK   11  A    between atoms: C_17  and  C_18
REMARK                            x       y       z     vdW  Elec       q    Type
REMARK                         _______ _______ _______ _____ _____    ______ ____
ROOT
ATOM      1  C   UNL     1       4.579   5.382  18.291  0.00  0.00    +0.000 C 
ATOM      2  C   UNL     1       5.681   6.435  18.101  0.00  0.00    +0.000 C 
ENDROOT
BRANCH   1   3
ATOM      3  O   UNL     1       3.292   5.905  17.855  0.00  0.00    +0.000 OA
BRANCH   3   7
ATOM      4  C   UNL     1       1.321   9.380  19.164  0.00  0.00    +0.000 A 
ATOM      5  C   UNL     1       1.870   9.266  17.885  0.00  0.00    +0.000 A 
ATOM      6  C   UNL     1       2.542   8.094  17.495  0.00  0.00    +0.000 A 
ATOM      7  C   UNL     1       2.715   7.027  18.383  0.00  0.00    +0.000 A 
ATOM      8  C   UNL     1       2.239   7.183  19.681  0.00  0.00    +0.000 A 
ATOM      9  C   UNL     1       1.520   8.318  20.056  0.00  0.00    +0.000 A 
BRANCH   4  11
ATOM     10  C   UNL     1       1.042  11.839  18.871  0.00  0.00    +0.000 C 
ATOM     11  C   UNL     1       0.490  10.588  19.563  0.00  0.00    +0.000 C 
ATOM     12  C   UNL     1      -1.009  10.452  19.250  0.00  0.00    +0.000 C 
ENDBRANCH   4  11
ENDBRANCH   3   7
ENDBRANCH   1   3
BRANCH   1  13
ATOM     13  C   UNL     1       4.502   4.775  19.721  0.00  0.00    +0.000 C 
BRANCH  13  14
ATOM     14  O   UNL     1       4.080   3.405  19.758  0.00  0.00    +0.000 OA
BRANCH  14  15
ATOM     15  P   UNL     1       2.594   3.082  20.585  0.00  0.00    +0.000 P 
ATOM     16  O   UNL     1       2.545   4.489  21.245  0.00  0.00    +0.000 OA
ATOM     17  O   UNL     1       1.734   3.329  19.314  0.00  0.00    +0.000 OA
ATOM     18  O   UNL     1       1.109   2.759  21.412  0.00  0.00    +0.000 OA
ENDBRANCH  14  15
ENDBRANCH  13  14
ENDBRANCH   1  13
BRANCH   1  19
ATOM     19  C   UNL     1       4.896   4.145  17.381  0.00  0.00    +0.000 C 
BRANCH  19  20
ATOM     20  C   UNL     1       5.512   4.370  16.017  0.00  0.00    +0.000 A 
ATOM     21  C   UNL     1       6.868   4.707  15.903  0.00  0.00    +0.000 A 
ATOM     22  C   UNL     1       7.480   4.779  14.649  0.00  0.00    +0.000 A 
ATOM     23  C   UNL     1       6.738   4.513  13.501  0.00  0.00    +0.000 A 
ATOM     24 CL   UNL     1       7.503   4.552  11.959  0.00  0.00    +0.000 Cl
ATOM     25  C   UNL     1       5.386   4.194  13.593  0.00  0.00    +0.000 A 
ATOM     26  C   UNL     1       4.776   4.121  14.847  0.00  0.00    +0.000 A 
ENDBRANCH  19  20
ENDBRANCH   1  19
TORSDOF 8
ENDMDL
MODEL 9
REMARK VINA RESULT:      -6.6      3.511      5.011
REMARK  Name = 
REMARK  11 active torsions:
REMARK  status: ('A' for Active; 'I' for Inactive)
REMARK    1  A    between atoms: C_1  and  C_2
REMARK    2  A    between atoms: C_2  and  C_3
REMARK    3  A    between atoms: C_2  and  C_4
REMARK    4  A    between atoms: C_7  and  O_8
REMARK    5  A    between atoms: O_8  and  C_9
REMARK    6  A    between atoms: C_9  and  C_10
REMARK    7  A    between atoms: C_9  and  C_11
REMARK    8  A    between atoms: C_9  and  C_17
REMARK    9  A    between atoms: C_11  and  O_12
REMARK   10  A    between atoms: O_12  and  P_13
REMARK   11  A    between atoms: C_17  and  C_18
REMARK                            x       y       z     vdW  Elec       q    Type
REMARK                         _______ _______ _______ _____ _____    ______ ____
ROOT
ATOM      1  C   UNL     1       4.465   4.630  18.118  0.00  0.00    +0.000 C 
ATOM      2  C   UNL     1       4.730   4.991  19.588  0.00  0.00    +0.000 C 
ENDROOT
BRANCH   1   3
ATOM      3  O   UNL     1       3.509   5.557  17.530  0.00  0.00    +0.000 OA
BRANCH   3   7
ATOM      4  C   UNL     1       1.596   8.841  19.328  0.00  0.00    +0.000 A 
ATOM      5  C   UNL     1       2.147   8.903  18.046  0.00  0.00    +0.000 A 
ATOM      6  C   UNL     1       2.799   7.788  17.490  0.00  0.00    +0.000 A 
ATOM      7  C   UNL     1       2.951   6.601  18.215  0.00  0.00    +0.000 A 
ATOM      8  C   UNL     1       2.473   6.576  19.521  0.00  0.00    +0.000 A 
ATOM      9  C   UNL     1       1.774   7.658  20.056  0.00  0.00    +0.000 A 
BRANCH   4  11
ATOM     10  C   UNL     1      -0.343  10.353  18.926  0.00  0.00    +0.000 C 
ATOM     11  C   UNL     1       0.786   9.994  19.896  0.00  0.00    +0.000 C 
ATOM     12  C   UNL     1       0.194   9.721  21.289  0.00  0.00    +0.000 C 
ENDBRANCH   4  11
ENDBRANCH   3   7
ENDBRANCH   1   3
BRANCH   1  13
ATOM     13  C   UNL     1       4.058   3.149  17.878  0.00  0.00    +0.000 C 
BRANCH  13  14
ATOM     14  O   UNL     1       3.678   2.441  19.065  0.00  0.00    +0.000 OA
BRANCH  14  15
ATOM     15  P   UNL     1       2.188   2.920  19.803  0.00  0.00    +0.000 P 
ATOM     16  O   UNL     1       1.462   1.599  19.416  0.00  0.00    +0.000 OA
ATOM     17  O   UNL     1       2.684   2.568  21.233  0.00  0.00    +0.000 OA
ATOM     18  O   UNL     1       0.698   3.398  20.539  0.00  0.00    +0.000 OA
ENDBRANCH  14  15
ENDBRANCH  13  14
ENDBRANCH   1  13
BRANCH   1  19
ATOM     19  C   UNL     1       5.800   4.783  17.309  0.00  0.00    +0.000 C 
BRANCH  19  20
ATOM     20  C   UNL     1       6.708   5.958  17.597  0.00  0.00    +0.000 A 
ATOM     21  C   UNL     1       6.495   7.188  16.957  0.00  0.00    +0.000 A 
ATOM     22  C   UNL     1       7.236   8.315  17.318  0.00  0.00    +0.000 A 
ATOM     23  C   UNL     1       8.196   8.219  18.322  0.00  0.00    +0.000 A 
ATOM     24 CL   UNL     1       9.075   9.619  18.803  0.00  0.00    +0.000 Cl
ATOM     25  C   UNL     1       8.434   7.003  18.957  0.00  0.00    +0.000 A 
ATOM     26  C   UNL     1       7.691   5.877  18.596  0.00  0.00    +0.000 A 
ENDBRANCH  19  20
ENDBRANCH   1  19
TORSDOF 8
ENDMDL
