MODEL 1
REMARK VINA RESULT:      -7.1      0.000      0.000
REMARK  Name = 
REMARK  4 active torsions:
REMARK  status: ('A' for Active; 'I' for Inactive)
REMARK    1  A    between atoms: C_1  and  C_2
REMARK    2  A    between atoms: N_4  and  C_5
REMARK    3  A    between atoms: C_11  and  C_12
REMARK    4  A    between atoms: C_13  and  C_14
REMARK                            x       y       z     vdW  Elec       q    Type
REMARK                         _______ _______ _______ _____ _____    ______ ____
ROOT
ATOM      1  C   UNL     1       0.471   9.287  22.850  0.00  0.00    +0.000 C 
ATOM      2  C   UNL     1       0.853   9.056  21.433  0.00  0.00    +0.000 A 
ATOM      3  N   UNL     1       1.362   7.871  21.071  0.00  0.00    +0.000 NA
ATOM      4  N   UNL     1       1.758   8.038  19.782  0.00  0.00    +0.000 N 
ATOM      5  C   UNL     1       1.303   9.248  19.263  0.00  0.00    +0.000 A 
ATOM      6  C   UNL     1       1.338   9.631  17.825  0.00  0.00    +0.000 C 
ATOM      7  C   UNL     1       0.755   9.944  20.335  0.00  0.00    +0.000 A 
ENDROOT
BRANCH   7   8
ATOM      8  C   UNL     1       0.189  11.284  20.235  0.00  0.00    +0.000 A 
ATOM      9  C   UNL     1      -1.167  11.489  20.149  0.00  0.00    +0.000 A 
ATOM     10  C   UNL     1      -1.553  12.799  20.055  0.00  0.00    +0.000 A 
ATOM     11  N   UNL     1      -0.687  13.825  20.015  0.00  0.00    +0.000 NA
ATOM     12  C   UNL     1       0.624  13.549  20.093  0.00  0.00    +0.000 A 
ATOM     13  N   UNL     1       1.530  14.589  20.078  0.00  0.00    +0.000 N 
ATOM     14  C   UNL     1       1.139  15.866  19.502  0.00  0.00    +0.000 C 
ATOM     15  C   UNL     1       1.880  16.174  18.200  0.00  0.00    +0.000 C 
ATOM     16  C   UNL     1       3.361  16.444  18.441  0.00  0.00    +0.000 C 
ATOM     17  O   UNL     1       4.201  15.296  18.399  0.00  0.00    +0.000 OA
ATOM     18  C   UNL     1       3.708  14.099  19.007  0.00  0.00    +0.000 C 
ATOM     19  C   UNL     1       2.944  14.304  20.321  0.00  0.00    +0.000 C 
ATOM     20  N   UNL     1       1.081  12.295  20.214  0.00  0.00    +0.000 NA
ENDBRANCH   7   8
BRANCH   4  21
ATOM     21  C   UNL     1       2.500   7.008  19.135  0.00  0.00    +0.000 A 
ATOM     22  C   UNL     1       2.273   5.670  19.486  0.00  0.00    +0.000 A 
ATOM     23  C   UNL     1       2.911   4.643  18.779  0.00  0.00    +0.000 A 
ATOM     24  C   UNL     1       3.801   4.948  17.751  0.00  0.00    +0.000 A 
ATOM     25  C   UNL     1       4.087   6.274  17.448  0.00  0.00    +0.000 A 
ATOM     26  C   UNL     1       3.447   7.304  18.144  0.00  0.00    +0.000 A 
ENDBRANCH   4  21
TORSDOF 2
ENDMDL
MODEL 2
REMARK VINA RESULT:      -7.1      0.371      1.013
REMARK  Name = 
REMARK  4 active torsions:
REMARK  status: ('A' for Active; 'I' for Inactive)
REMARK    1  A    between atoms: C_1  and  C_2
REMARK    2  A    between atoms: N_4  and  C_5
REMARK    3  A    between atoms: C_11  and  C_12
REMARK    4  A    between atoms: C_13  and  C_14
REMARK                            x       y       z     vdW  Elec       q    Type
REMARK                         _______ _______ _______ _____ _____    ______ ____
ROOT
ATOM      1  C   UNL     1       0.447   9.328  22.888  0.00  0.00    +0.000 C 
ATOM      2  C   UNL     1       0.799   9.130  21.459  0.00  0.00    +0.000 A 
ATOM      3  N   UNL     1       1.339   7.968  21.066  0.00  0.00    +0.000 NA
ATOM      4  N   UNL     1       1.694   8.167  19.768  0.00  0.00    +0.000 N 
ATOM      5  C   UNL     1       1.185   9.368  19.280  0.00  0.00    +0.000 A 
ATOM      6  C   UNL     1       1.168   9.772  17.848  0.00  0.00    +0.000 C 
ATOM      7  C   UNL     1       0.642  10.029  20.376  0.00  0.00    +0.000 A 
ENDROOT
BRANCH   7   8
ATOM      8  C   UNL     1       0.029  11.351  20.312  0.00  0.00    +0.000 A 
ATOM      9  C   UNL     1      -1.325  11.509  20.147  0.00  0.00    +0.000 A 
ATOM     10  C   UNL     1      -1.759  12.807  20.098  0.00  0.00    +0.000 A 
ATOM     11  N   UNL     1      -0.935  13.865  20.172  0.00  0.00    +0.000 NA
ATOM     12  C   UNL     1       0.379  13.635  20.322  0.00  0.00    +0.000 A 
ATOM     13  N   UNL     1       1.240  14.708  20.424  0.00  0.00    +0.000 N 
ATOM     14  C   UNL     1       0.834  15.999  19.893  0.00  0.00    +0.000 C 
ATOM     15  C   UNL     1       1.645  16.408  18.662  0.00  0.00    +0.000 C 
ATOM     16  C   UNL     1       3.095  16.719  19.016  0.00  0.00    +0.000 C 
ATOM     17  O   UNL     1       3.983  15.609  18.967  0.00  0.00    +0.000 OA
ATOM     18  C   UNL     1       3.500  14.361  19.475  0.00  0.00    +0.000 C 
ATOM     19  C   UNL     1       2.646  14.462  20.745  0.00  0.00    +0.000 C 
ATOM     20  N   UNL     1       0.878  12.394  20.405  0.00  0.00    +0.000 NA
ENDBRANCH   7   8
BRANCH   4  21
ATOM     21  C   UNL     1       2.453   7.172  19.087  0.00  0.00    +0.000 A 
ATOM     22  C   UNL     1       3.271   7.544  18.011  0.00  0.00    +0.000 A 
ATOM     23  C   UNL     1       4.107   6.596  17.408  0.00  0.00    +0.000 A 
ATOM     24  C   UNL     1       4.102   5.275  17.850  0.00  0.00    +0.000 A 
ATOM     25  C   UNL     1       3.239   4.884  18.867  0.00  0.00    +0.000 A 
ATOM     26  C   UNL     1       2.407   5.827  19.479  0.00  0.00    +0.000 A 
ENDBRANCH   4  21
TORSDOF 2
ENDMDL
MODEL 3
REMARK VINA RESULT:      -7.1      3.084      4.415
REMARK  Name = 
REMARK  4 active torsions:
REMARK  status: ('A' for Active; 'I' for Inactive)
REMARK    1  A    between atoms: C_1  and  C_2
REMARK    2  A    between atoms: N_4  and  C_5
REMARK    3  A    between atoms: C_11  and  C_12
REMARK    4  A    between atoms: C_13  and  C_14
REMARK                            x       y       z     vdW  Elec       q    Type
REMARK                         _______ _______ _______ _____ _____    ______ ____
ROOT
ATOM      1  C   UNL     1       1.754  10.432  17.950  0.00  0.00    +0.000 C 
ATOM      2  C   UNL     1       1.928   9.073  18.525  0.00  0.00    +0.000 A 
ATOM      3  N   UNL     1       2.536   8.122  17.804  0.00  0.00    +0.000 NA
ATOM      4  N   UNL     1       2.384   6.981  18.526  0.00  0.00    +0.000 N 
ATOM      5  C   UNL     1       1.878   7.248  19.797  0.00  0.00    +0.000 A 
ATOM      6  C   UNL     1       1.827   6.273  20.920  0.00  0.00    +0.000 C 
ATOM      7  C   UNL     1       1.530   8.594  19.797  0.00  0.00    +0.000 A 
ENDROOT
BRANCH   7   8
ATOM      8  C   UNL     1       0.926   9.282  20.932  0.00  0.00    +0.000 A 
ATOM      9  C   UNL     1       1.120   8.851  22.222  0.00  0.00    +0.000 A 
ATOM     10  C   UNL     1       0.486   9.590  23.185  0.00  0.00    +0.000 A 
ATOM     11  N   UNL     1      -0.299  10.645  22.910  0.00  0.00    +0.000 NA
ATOM     12  C   UNL     1      -0.452  11.003  21.625  0.00  0.00    +0.000 A 
ATOM     13  N   UNL     1      -1.236  12.097  21.322  0.00  0.00    +0.000 N 
ATOM     14  C   UNL     1      -2.245  12.534  22.273  0.00  0.00    +0.000 C 
ATOM     15  C   UNL     1      -3.669  12.299  21.765  0.00  0.00    +0.000 C 
ATOM     16  C   UNL     1      -4.009  13.210  20.590  0.00  0.00    +0.000 C 
ATOM     17  O   UNL     1      -3.693  12.686  19.306  0.00  0.00    +0.000 OA
ATOM     18  C   UNL     1      -2.456  11.980  19.172  0.00  0.00    +0.000 C 
ATOM     19  C   UNL     1      -1.276  12.582  19.943  0.00  0.00    +0.000 C 
ATOM     20  N   UNL     1       0.156  10.346  20.627  0.00  0.00    +0.000 NA
ENDBRANCH   7   8
BRANCH   4  21
ATOM     21  C   UNL     1       2.777   5.734  17.962  0.00  0.00    +0.000 A 
ATOM     22  C   UNL     1       4.091   5.568  17.503  0.00  0.00    +0.000 A 
ATOM     23  C   UNL     1       4.522   4.313  17.052  0.00  0.00    +0.000 A 
ATOM     24  C   UNL     1       3.637   3.238  17.023  0.00  0.00    +0.000 A 
ATOM     25  C   UNL     1       2.312   3.415  17.406  0.00  0.00    +0.000 A 
ATOM     26  C   UNL     1       1.878   4.662  17.865  0.00  0.00    +0.000 A 
ENDBRANCH   4  21
TORSDOF 2
ENDMDL
MODEL 4
REMARK VINA RESULT:      -7.0      0.979      1.010
REMARK  Name = 
REMARK  4 active torsions:
REMARK  status: ('A' for Active; 'I' for Inactive)
REMARK    1  A    between atoms: C_1  and  C_2
REMARK    2  A    between atoms: N_4  and  C_5
REMARK    3  A    between atoms: C_11  and  C_12
REMARK    4  A    between atoms: C_13  and  C_14
REMARK                            x       y       z     vdW  Elec       q    Type
REMARK                         _______ _______ _______ _____ _____    ______ ____
ROOT
ATOM      1  C   UNL     1       0.096   9.653  22.446  0.00  0.00    +0.000 C 
ATOM      2  C   UNL     1       0.677   9.100  21.196  0.00  0.00    +0.000 A 
ATOM      3  N   UNL     1       1.198   7.866  21.200  0.00  0.00    +0.000 NA
ATOM      4  N   UNL     1       1.786   7.729  19.982  0.00  0.00    +0.000 N 
ATOM      5  C   UNL     1       1.451   8.782  19.135  0.00  0.00    +0.000 A 
ATOM      6  C   UNL     1       1.712   8.820  17.669  0.00  0.00    +0.000 C 
ATOM      7  C   UNL     1       0.772   9.707  19.921  0.00  0.00    +0.000 A 
ENDROOT
BRANCH   7   8
ATOM      8  C   UNL     1       0.269  10.984  19.429  0.00  0.00    +0.000 A 
ATOM      9  C   UNL     1      -0.811  11.057  18.584  0.00  0.00    +0.000 A 
ATOM     10  C   UNL     1      -1.167  12.322  18.200  0.00  0.00    +0.000 A 
ATOM     11  N   UNL     1      -0.503  13.425  18.583  0.00  0.00    +0.000 NA
ATOM     12  C   UNL     1       0.550  13.278  19.402  0.00  0.00    +0.000 A 
ATOM     13  N   UNL     1       1.232  14.400  19.826  0.00  0.00    +0.000 N 
ATOM     14  C   UNL     1       1.146  15.623  19.044  0.00  0.00    +0.000 C 
ATOM     15  C   UNL     1       2.470  15.978  18.364  0.00  0.00    +0.000 C 
ATOM     16  C   UNL     1       3.533  16.393  19.375  0.00  0.00    +0.000 C 
ATOM     17  O   UNL     1       4.327  15.331  19.889  0.00  0.00    +0.000 OA
ATOM     18  C   UNL     1       3.661  14.103  20.196  0.00  0.00    +0.000 C 
ATOM     19  C   UNL     1       2.277  14.256  20.838  0.00  0.00    +0.000 C 
ATOM     20  N   UNL     1       0.945  12.076  19.843  0.00  0.00    +0.000 NA
ENDBRANCH   7   8
BRANCH   4  21
ATOM     21  C   UNL     1       2.583   6.579  19.711  0.00  0.00    +0.000 A 
ATOM     22  C   UNL     1       2.289   5.369  20.354  0.00  0.00    +0.000 A 
ATOM     23  C   UNL     1       2.991   4.206  20.011  0.00  0.00    +0.000 A 
ATOM     24  C   UNL     1       4.008   4.256  19.060  0.00  0.00    +0.000 A 
ATOM     25  C   UNL     1       4.354   5.468  18.474  0.00  0.00    +0.000 A 
ATOM     26  C   UNL     1       3.652   6.631  18.805  0.00  0.00    +0.000 A 
ENDBRANCH   4  21
TORSDOF 2
ENDMDL
MODEL 5
REMARK VINA RESULT:      -7.0      2.171      3.425
REMARK  Name = 
REMARK  4 active torsions:
REMARK  status: ('A' for Active; 'I' for Inactive)
REMARK    1  A    between atoms: C_1  and  C_2
REMARK    2  A    between atoms: N_4  and  C_5
REMARK    3  A    between atoms: C_11  and  C_12
REMARK    4  A    between atoms: C_13  and  C_14
REMARK                            x       y       z     vdW  Elec       q    Type
REMARK                         _______ _______ _______ _____ _____    ______ ____
ROOT
ATOM      1  C   UNL     1       1.818  10.381  17.859  0.00  0.00    +0.000 C 
ATOM      2  C   UNL     1       1.974   9.043  18.485  0.00  0.00    +0.000 A 
ATOM      3  N   UNL     1       2.615   8.073  17.818  0.00  0.00    +0.000 NA
ATOM      4  N   UNL     1       2.440   6.954  18.570  0.00  0.00    +0.000 N 
ATOM      5  C   UNL     1       1.883   7.258  19.811  0.00  0.00    +0.000 A 
ATOM      6  C   UNL     1       1.792   6.320  20.962  0.00  0.00    +0.000 C 
ATOM      7  C   UNL     1       1.529   8.602  19.754  0.00  0.00    +0.000 A 
ENDROOT
BRANCH   7   8
ATOM      8  C   UNL     1       0.878   9.322  20.842  0.00  0.00    +0.000 A 
ATOM      9  C   UNL     1       0.299   8.662  21.898  0.00  0.00    +0.000 A 
ATOM     10  C   UNL     1      -0.281   9.468  22.842  0.00  0.00    +0.000 A 
ATOM     11  N   UNL     1      -0.321  10.807  22.747  0.00  0.00    +0.000 NA
ATOM     12  C   UNL     1       0.255  11.384  21.681  0.00  0.00    +0.000 A 
ATOM     13  N   UNL     1       0.245  12.759  21.575  0.00  0.00    +0.000 N 
ATOM     14  C   UNL     1      -0.761  13.521  22.297  0.00  0.00    +0.000 C 
ATOM     15  C   UNL     1      -1.781  14.178  21.364  0.00  0.00    +0.000 C 
ATOM     16  C   UNL     1      -1.155  15.296  20.538  0.00  0.00    +0.000 C 
ATOM     17  O   UNL     1      -0.596  14.890  19.294  0.00  0.00    +0.000 OA
ATOM     18  C   UNL     1       0.128  13.656  19.271  0.00  0.00    +0.000 C 
ATOM     19  C   UNL     1       1.007  13.395  20.500  0.00  0.00    +0.000 C 
ATOM     20  N   UNL     1       0.866  10.666  20.728  0.00  0.00    +0.000 NA
ENDBRANCH   7   8
BRANCH   4  21
ATOM     21  C   UNL     1       2.861   5.692  18.062  0.00  0.00    +0.000 A 
ATOM     22  C   UNL     1       4.223   5.464  17.822  0.00  0.00    +0.000 A 
ATOM     23  C   UNL     1       4.662   4.192  17.432  0.00  0.00    +0.000 A 
ATOM     24  C   UNL     1       3.743   3.161  17.245  0.00  0.00    +0.000 A 
ATOM     25  C   UNL     1       2.384   3.401  17.409  0.00  0.00    +0.000 A 
ATOM     26  C   UNL     1       1.940   4.666  17.807  0.00  0.00    +0.000 A 
ENDBRANCH   4  21
TORSDOF 2
ENDMDL
MODEL 6
REMARK VINA RESULT:      -6.9      1.042      1.450
REMARK  Name = 
REMARK  4 active torsions:
REMARK  status: ('A' for Active; 'I' for Inactive)
REMARK    1  A    between atoms: C_1  and  C_2
REMARK    2  A    between atoms: N_4  and  C_5
REMARK    3  A    between atoms: C_11  and  C_12
REMARK    4  A    between atoms: C_13  and  C_14
REMARK                            x       y       z     vdW  Elec       q    Type
REMARK                         _______ _______ _______ _____ _____    ______ ____
ROOT
ATOM      1  C   UNL     1       0.041   9.954  22.601  0.00  0.00    +0.000 C 
ATOM      2  C   UNL     1       0.578   9.341  21.358  0.00  0.00    +0.000 A 
ATOM      3  N   UNL     1       1.025   8.078  21.383  0.00  0.00    +0.000 NA
ATOM      4  N   UNL     1       1.593   7.882  20.164  0.00  0.00    +0.000 N 
ATOM      5  C   UNL     1       1.314   8.936  19.298  0.00  0.00    +0.000 A 
ATOM      6  C   UNL     1       1.564   8.928  17.830  0.00  0.00    +0.000 C 
ATOM      7  C   UNL     1       0.697   9.915  20.069  0.00  0.00    +0.000 A 
ENDROOT
BRANCH   7   8
ATOM      8  C   UNL     1       0.266  11.210  19.555  0.00  0.00    +0.000 A 
ATOM      9  C   UNL     1      -0.766  11.321  18.656  0.00  0.00    +0.000 A 
ATOM     10  C   UNL     1      -1.056  12.598  18.256  0.00  0.00    +0.000 A 
ATOM     11  N   UNL     1      -0.373  13.677  18.675  0.00  0.00    +0.000 NA
ATOM     12  C   UNL     1       0.631  13.492  19.546  0.00  0.00    +0.000 A 
ATOM     13  N   UNL     1       1.329  14.589  20.006  0.00  0.00    +0.000 N 
ATOM     14  C   UNL     1       1.328  15.814  19.223  0.00  0.00    +0.000 C 
ATOM     15  C   UNL     1       2.697  16.121  18.613  0.00  0.00    +0.000 C 
ATOM     16  C   UNL     1       3.721  16.498  19.678  0.00  0.00    +0.000 C 
ATOM     17  O   UNL     1       4.449  15.408  20.230  0.00  0.00    +0.000 OA
ATOM     18  C   UNL     1       3.724  14.204  20.500  0.00  0.00    +0.000 C 
ATOM     19  C   UNL     1       2.316  14.407  21.071  0.00  0.00    +0.000 C 
ATOM     20  N   UNL     1       0.959  12.277  20.005  0.00  0.00    +0.000 NA
ENDBRANCH   7   8
BRANCH   4  21
ATOM     21  C   UNL     1       2.319   6.683  19.912  0.00  0.00    +0.000 A 
ATOM     22  C   UNL     1       3.475   6.729  19.121  0.00  0.00    +0.000 A 
ATOM     23  C   UNL     1       4.260   5.579  18.960  0.00  0.00    +0.000 A 
ATOM     24  C   UNL     1       3.874   4.379  19.554  0.00  0.00    +0.000 A 
ATOM     25  C   UNL     1       2.689   4.310  20.278  0.00  0.00    +0.000 A 
ATOM     26  C   UNL     1       1.906   5.455  20.449  0.00  0.00    +0.000 A 
ENDBRANCH   4  21
TORSDOF 2
ENDMDL
MODEL 7
REMARK VINA RESULT:      -6.8      3.565      5.543
REMARK  Name = 
REMARK  4 active torsions:
REMARK  status: ('A' for Active; 'I' for Inactive)
REMARK    1  A    between atoms: C_1  and  C_2
REMARK    2  A    between atoms: N_4  and  C_5
REMARK    3  A    between atoms: C_11  and  C_12
REMARK    4  A    between atoms: C_13  and  C_14
REMARK                            x       y       z     vdW  Elec       q    Type
REMARK                         _______ _______ _______ _____ _____    ______ ____
ROOT
ATOM      1  C   UNL     1       0.630  13.072  18.556  0.00  0.00    +0.000 C 
ATOM      2  C   UNL     1       0.640  11.729  19.191  0.00  0.00    +0.000 A 
ATOM      3  N   UNL     1       1.575  10.838  18.837  0.00  0.00    +0.000 NA
ATOM      4  N   UNL     1       1.212   9.683  19.455  0.00  0.00    +0.000 N 
ATOM      5  C   UNL     1       0.182   9.897  20.367  0.00  0.00    +0.000 A 
ATOM      6  C   UNL     1      -0.280   8.914  21.385  0.00  0.00    +0.000 C 
ATOM      7  C   UNL     1      -0.236  11.209  20.174  0.00  0.00    +0.000 A 
ENDROOT
BRANCH   7   8
ATOM      8  C   UNL     1      -1.328  11.836  20.909  0.00  0.00    +0.000 A 
ATOM      9  C   UNL     1      -1.190  12.215  22.222  0.00  0.00    +0.000 A 
ATOM     10  C   UNL     1      -2.301  12.784  22.785  0.00  0.00    +0.000 A 
ATOM     11  N   UNL     1      -3.463  12.943  22.130  0.00  0.00    +0.000 NA
ATOM     12  C   UNL     1      -3.529  12.540  20.852  0.00  0.00    +0.000 A 
ATOM     13  N   UNL     1      -4.706  12.714  20.154  0.00  0.00    +0.000 N 
ATOM     14  C   UNL     1      -5.954  12.853  20.886  0.00  0.00    +0.000 C 
ATOM     15  C   UNL     1      -6.882  11.651  20.699  0.00  0.00    +0.000 C 
ATOM     16  C   UNL     1      -7.425  11.571  19.277  0.00  0.00    +0.000 C 
ATOM     17  O   UNL     1      -6.627  10.827  18.364  0.00  0.00    +0.000 OA
ATOM     18  C   UNL     1      -5.209  10.989  18.450  0.00  0.00    +0.000 C 
ATOM     19  C   UNL     1      -4.732  12.422  18.721  0.00  0.00    +0.000 C 
ATOM     20  N   UNL     1      -2.478  11.997  20.222  0.00  0.00    +0.000 NA
ENDBRANCH   7   8
BRANCH   4  21
ATOM     21  C   UNL     1       1.910   8.477  19.158  0.00  0.00    +0.000 A 
ATOM     22  C   UNL     1       1.950   7.450  20.111  0.00  0.00    +0.000 A 
ATOM     23  C   UNL     1       2.533   6.218  19.789  0.00  0.00    +0.000 A 
ATOM     24  C   UNL     1       3.108   6.022  18.534  0.00  0.00    +0.000 A 
ATOM     25  C   UNL     1       3.137   7.061  17.611  0.00  0.00    +0.000 A 
ATOM     26  C   UNL     1       2.549   8.291  17.924  0.00  0.00    +0.000 A 
ENDBRANCH   4  21
TORSDOF 2
ENDMDL
MODEL 8
REMARK VINA RESULT:      -6.8      3.799      8.174
REMARK  Name = 
REMARK  4 active torsions:
REMARK  status: ('A' for Active; 'I' for Inactive)
REMARK    1  A    between atoms: C_1  and  C_2
REMARK    2  A    between atoms: N_4  and  C_5
REMARK    3  A    between atoms: C_11  and  C_12
REMARK    4  A    between atoms: C_13  and  C_14
REMARK                            x       y       z     vdW  Elec       q    Type
REMARK                         _______ _______ _______ _____ _____    ______ ____
ROOT
ATOM      1  C   UNL     1       1.753   9.174  22.909  0.00  0.00    +0.000 C 
ATOM      2  C   UNL     1       0.753   9.934  22.116  0.00  0.00    +0.000 A 
ATOM      3  N   UNL     1      -0.099  10.756  22.741  0.00  0.00    +0.000 NA
ATOM      4  N   UNL     1      -0.973  11.156  21.779  0.00  0.00    +0.000 N 
ATOM      5  C   UNL     1      -0.545  10.765  20.512  0.00  0.00    +0.000 A 
ATOM      6  C   UNL     1      -1.122  11.247  19.227  0.00  0.00    +0.000 C 
ATOM      7  C   UNL     1       0.547   9.929  20.715  0.00  0.00    +0.000 A 
ENDROOT
BRANCH   7   8
ATOM      8  C   UNL     1       1.281   9.268  19.643  0.00  0.00    +0.000 A 
ATOM      9  C   UNL     1       1.606   9.924  18.481  0.00  0.00    +0.000 A 
ATOM     10  C   UNL     1       2.291   9.175  17.561  0.00  0.00    +0.000 A 
ATOM     11  N   UNL     1       2.604   7.882  17.745  0.00  0.00    +0.000 NA
ATOM     12  C   UNL     1       2.245   7.303  18.900  0.00  0.00    +0.000 A 
ATOM     13  N   UNL     1       2.577   5.982  19.120  0.00  0.00    +0.000 N 
ATOM     14  C   UNL     1       2.846   5.117  17.982  0.00  0.00    +0.000 C 
ATOM     15  C   UNL     1       1.769   4.048  17.790  0.00  0.00    +0.000 C 
ATOM     16  C   UNL     1       1.791   3.014  18.910  0.00  0.00    +0.000 C 
ATOM     17  O   UNL     1       0.980   3.324  20.038  0.00  0.00    +0.000 OA
ATOM     18  C   UNL     1       0.969   4.684  20.483  0.00  0.00    +0.000 C 
ATOM     19  C   UNL     1       2.326   5.395  20.436  0.00  0.00    +0.000 C 
ATOM     20  N   UNL     1       1.596   7.975  19.862  0.00  0.00    +0.000 NA
ENDBRANCH   7   8
BRANCH   4  21
ATOM     21  C   UNL     1      -2.120  11.918  22.142  0.00  0.00    +0.000 A 
ATOM     22  C   UNL     1      -2.761  12.704  21.175  0.00  0.00    +0.000 A 
ATOM     23  C   UNL     1      -3.954  13.367  21.490  0.00  0.00    +0.000 A 
ATOM     24  C   UNL     1      -4.487  13.277  22.775  0.00  0.00    +0.000 A 
ATOM     25  C   UNL     1      -3.816  12.559  23.759  0.00  0.00    +0.000 A 
ATOM     26  C   UNL     1      -2.629  11.889  23.448  0.00  0.00    +0.000 A 
ENDBRANCH   4  21
TORSDOF 2
ENDMDL
MODEL 9
REMARK VINA RESULT:      -6.8      3.665      8.386
REMARK  Name = 
REMARK  4 active torsions:
REMARK  status: ('A' for Active; 'I' for Inactive)
REMARK    1  A    between atoms: C_1  and  C_2
REMARK    2  A    between atoms: N_4  and  C_5
REMARK    3  A    between atoms: C_11  and  C_12
REMARK    4  A    between atoms: C_13  and  C_14
REMARK                            x       y       z     vdW  Elec       q    Type
REMARK                         _______ _______ _______ _____ _____    ______ ____
ROOT
ATOM      1  C   UNL     1      -1.078   9.769  17.409  0.00  0.00    +0.000 C 
ATOM      2  C   UNL     1      -0.555  10.012  18.778  0.00  0.00    +0.000 A 
ATOM      3  N   UNL     1      -1.277  10.740  19.641  0.00  0.00    +0.000 NA
ATOM      4  N   UNL     1      -0.465  10.917  20.717  0.00  0.00    +0.000 N 
ATOM      5  C   UNL     1       0.677  10.123  20.628  0.00  0.00    +0.000 A 
ATOM      6  C   UNL     1       1.642   9.883  21.735  0.00  0.00    +0.000 C 
ATOM      7  C   UNL     1       0.659   9.566  19.354  0.00  0.00    +0.000 A 
ENDROOT
BRANCH   7   8
ATOM      8  C   UNL     1       1.699   8.688  18.831  0.00  0.00    +0.000 A 
ATOM      9  C   UNL     1       2.489   9.058  17.771  0.00  0.00    +0.000 A 
ATOM     10  C   UNL     1       3.419   8.130  17.384  0.00  0.00    +0.000 A 
ATOM     11  N   UNL     1       3.547   6.925  17.965  0.00  0.00    +0.000 NA
ATOM     12  C   UNL     1       2.734   6.627  18.990  0.00  0.00    +0.000 A 
ATOM     13  N   UNL     1       2.864   5.405  19.616  0.00  0.00    +0.000 N 
ATOM     14  C   UNL     1       3.486   4.302  18.901  0.00  0.00    +0.000 C 
ATOM     15  C   UNL     1       2.492   3.191  18.556  0.00  0.00    +0.000 C 
ATOM     16  C   UNL     1       2.012   2.453  19.801  0.00  0.00    +0.000 C 
ATOM     17  O   UNL     1       0.857   3.002  20.423  0.00  0.00    +0.000 OA
ATOM     18  C   UNL     1       0.771   4.427  20.506  0.00  0.00    +0.000 C 
ATOM     19  C   UNL     1       2.089   5.141  20.829  0.00  0.00    +0.000 C 
ATOM     20  N   UNL     1       1.816   7.492  19.444  0.00  0.00    +0.000 NA
ENDBRANCH   7   8
BRANCH   4  21
ATOM     21  C   UNL     1      -0.867  11.795  21.764  0.00  0.00    +0.000 A 
ATOM     22  C   UNL     1      -0.260  13.053  21.881  0.00  0.00    +0.000 A 
ATOM     23  C   UNL     1      -0.724  13.969  22.834  0.00  0.00    +0.000 A 
ATOM     24  C   UNL     1      -1.765  13.620  23.692  0.00  0.00    +0.000 A 
ATOM     25  C   UNL     1      -2.321  12.347  23.630  0.00  0.00    +0.000 A 
ATOM     26  C   UNL     1      -1.867  11.431  22.676  0.00  0.00    +0.000 A 
ENDBRANCH   4  21
TORSDOF 2
ENDMDL
