MODEL 1
REMARK VINA RESULT:      -9.0      0.000      0.000
REMARK  Name = 
REMARK  5 active torsions:
REMARK  status: ('A' for Active; 'I' for Inactive)
REMARK    1  A    between atoms: C_1  and  C_2
REMARK    2  A    between atoms: C_7  and  C_8
REMARK    3  A    between atoms: C_7  and  N_15
REMARK    4  A    between atoms: C_12  and  N_13
REMARK    5  A    between atoms: N_18  and  C_19
REMARK                            x       y       z     vdW  Elec       q    Type
REMARK                         _______ _______ _______ _____ _____    ______ ____
ROOT
ATOM      1  C   UNL     1       1.399   1.946  19.477  0.00  0.00    +0.000 C 
ATOM      2  C   UNL     1       1.036   3.436  19.568  0.00  0.00    +0.000 C 
ATOM      3  C   UNL     1       2.015   4.213  20.460  0.00  0.00    +0.000 C 
ATOM      4  C   UNL     1       3.200   4.430  19.565  0.00  0.00    +0.000 C 
ATOM      5  C   UNL     1       2.695   4.423  18.144  0.00  0.00    +0.000 C 
ATOM      6  C   UNL     1       1.219   4.137  18.215  0.00  0.00    +0.000 C 
ATOM      7  C   UNL     1       3.482   5.628  18.664  0.00  0.00    +0.000 C 
ENDROOT
BRANCH   7   8
ATOM      8  C   UNL     1       2.786   6.970  18.893  0.00  0.00    +0.000 A 
ATOM      9  C   UNL     1       2.514   7.828  17.813  0.00  0.00    +0.000 A 
ATOM     10  C   UNL     1       1.742   8.979  17.975  0.00  0.00    +0.000 A 
ATOM     11  C   UNL     1       1.233   9.306  19.231  0.00  0.00    +0.000 A 
ATOM     12  C   UNL     1       1.455   8.469  20.322  0.00  0.00    +0.000 A 
ATOM     13  C   UNL     1       2.249   7.332  20.144  0.00  0.00    +0.000 A 
BRANCH  12  14
ATOM     14  N   UNL     1       1.076   8.863  21.611  0.00  0.00    +0.000 N 
ATOM     15  H   UNL     1       1.477   9.749  21.903  0.00  0.00    +0.000 HD
ATOM     16  H   UNL     1       0.079   8.806  21.787  0.00  0.00    +0.000 HD
ENDBRANCH  12  14
ENDBRANCH   7   8
BRANCH   7  17
ATOM     17  N   UNL     1       4.908   5.858  18.225  0.00  0.00    +0.000 NA
ATOM     18  C   UNL     1       5.754   4.690  17.934  0.00  0.00    +0.000 C 
ATOM     19  C   UNL     1       5.428   4.007  16.599  0.00  0.00    +0.000 C 
ATOM     20  N   UNL     1       5.432   4.982  15.498  0.00  0.00    +0.000 N 
ATOM     21  C   UNL     1       4.787   6.288  15.715  0.00  0.00    +0.000 C 
ATOM     22  C   UNL     1       5.073   6.836  17.132  0.00  0.00    +0.000 C 
BRANCH  20  23
ATOM     23  C   UNL     1       6.145   4.726  14.345  0.00  0.00    +0.000 A 
ATOM     24  C   UNL     1       7.333   5.411  14.040  0.00  0.00    +0.000 A 
ATOM     25  C   UNL     1       8.027   5.161  12.850  0.00  0.00    +0.000 A 
ATOM     26  C   UNL     1       7.540   4.220  11.950  0.00  0.00    +0.000 A 
ATOM     27  C   UNL     1       6.377   3.516  12.234  0.00  0.00    +0.000 A 
ATOM     28  C   UNL     1       5.698   3.767  13.423  0.00  0.00    +0.000 A 
ENDBRANCH  20  23
ENDBRANCH   7  17
TORSDOF 4
ENDMDL
MODEL 2
REMARK VINA RESULT:      -8.8      1.394      3.602
REMARK  Name = 
REMARK  5 active torsions:
REMARK  status: ('A' for Active; 'I' for Inactive)
REMARK    1  A    between atoms: C_1  and  C_2
REMARK    2  A    between atoms: C_7  and  C_8
REMARK    3  A    between atoms: C_7  and  N_15
REMARK    4  A    between atoms: C_12  and  N_13
REMARK    5  A    between atoms: N_18  and  C_19
REMARK                            x       y       z     vdW  Elec       q    Type
REMARK                         _______ _______ _______ _____ _____    ______ ____
ROOT
ATOM      1  C   UNL     1       1.858   9.905  18.409  0.00  0.00    +0.000 C 
ATOM      2  C   UNL     1       1.248   8.551  18.804  0.00  0.00    +0.000 C 
ATOM      3  C   UNL     1       1.443   7.492  17.709  0.00  0.00    +0.000 C 
ATOM      4  C   UNL     1       2.862   7.048  17.908  0.00  0.00    +0.000 C 
ATOM      5  C   UNL     1       3.207   7.283  19.357  0.00  0.00    +0.000 C 
ATOM      6  C   UNL     1       1.999   7.925  19.986  0.00  0.00    +0.000 C 
ATOM      7  C   UNL     1       3.367   5.885  18.756  0.00  0.00    +0.000 C 
ENDROOT
BRANCH   7   8
ATOM      8  C   UNL     1       2.434   4.748  19.173  0.00  0.00    +0.000 A 
ATOM      9  C   UNL     1       1.608   4.117  18.228  0.00  0.00    +0.000 A 
ATOM     10  C   UNL     1       0.869   2.978  18.552  0.00  0.00    +0.000 A 
ATOM     11  C   UNL     1       0.931   2.451  19.841  0.00  0.00    +0.000 A 
ATOM     12  C   UNL     1       1.758   3.030  20.801  0.00  0.00    +0.000 A 
ATOM     13  C   UNL     1       2.473   4.183  20.463  0.00  0.00    +0.000 A 
BRANCH  12  14
ATOM     14  N   UNL     1       1.712   2.600  22.133  0.00  0.00    +0.000 N 
ATOM     15  H   UNL     1       2.172   3.229  22.783  0.00  0.00    +0.000 HD
ATOM     16  H   UNL     1       0.790   2.316  22.447  0.00  0.00    +0.000 HD
ENDBRANCH  12  14
ENDBRANCH   7   8
BRANCH   7  17
ATOM     17  N   UNL     1       4.740   5.336  18.450  0.00  0.00    +0.000 NA
ATOM     18  C   UNL     1       4.846   4.006  17.829  0.00  0.00    +0.000 C 
ATOM     19  C   UNL     1       4.480   3.989  16.338  0.00  0.00    +0.000 C 
ATOM     20  N   UNL     1       5.244   5.008  15.601  0.00  0.00    +0.000 N 
ATOM     21  C   UNL     1       5.392   6.345  16.202  0.00  0.00    +0.000 C 
ATOM     22  C   UNL     1       5.634   6.260  17.726  0.00  0.00    +0.000 C 
BRANCH  20  23
ATOM     23  C   UNL     1       5.918   4.670  14.445  0.00  0.00    +0.000 A 
ATOM     24  C   UNL     1       7.168   5.227  14.127  0.00  0.00    +0.000 A 
ATOM     25  C   UNL     1       7.824   4.897  12.935  0.00  0.00    +0.000 A 
ATOM     26  C   UNL     1       7.236   4.005  12.046  0.00  0.00    +0.000 A 
ATOM     27  C   UNL     1       6.009   3.426  12.344  0.00  0.00    +0.000 A 
ATOM     28  C   UNL     1       5.368   3.755  13.535  0.00  0.00    +0.000 A 
ENDBRANCH  20  23
ENDBRANCH   7  17
TORSDOF 4
ENDMDL
MODEL 3
REMARK VINA RESULT:      -8.6      0.889      1.294
REMARK  Name = 
REMARK  5 active torsions:
REMARK  status: ('A' for Active; 'I' for Inactive)
REMARK    1  A    between atoms: C_1  and  C_2
REMARK    2  A    between atoms: C_7  and  C_8
REMARK    3  A    between atoms: C_7  and  N_15
REMARK    4  A    between atoms: C_12  and  N_13
REMARK    5  A    between atoms: N_18  and  C_19
REMARK                            x       y       z     vdW  Elec       q    Type
REMARK                         _______ _______ _______ _____ _____    ______ ____
ROOT
ATOM      1  C   UNL     1       1.484   1.621  19.238  0.00  0.00    +0.000 C 
ATOM      2  C   UNL     1       1.025   3.069  19.466  0.00  0.00    +0.000 C 
ATOM      3  C   UNL     1       1.968   3.830  20.408  0.00  0.00    +0.000 C 
ATOM      4  C   UNL     1       3.116   4.205  19.518  0.00  0.00    +0.000 C 
ATOM      5  C   UNL     1       2.583   4.288  18.110  0.00  0.00    +0.000 C 
ATOM      6  C   UNL     1       1.131   3.896  18.178  0.00  0.00    +0.000 C 
ATOM      7  C   UNL     1       3.298   5.494  18.722  0.00  0.00    +0.000 C 
ENDROOT
BRANCH   7   8
ATOM      8  C   UNL     1       2.519   6.760  19.079  0.00  0.00    +0.000 A 
ATOM      9  C   UNL     1       2.078   6.981  20.395  0.00  0.00    +0.000 A 
ATOM     10  C   UNL     1       1.507   8.196  20.777  0.00  0.00    +0.000 A 
ATOM     11  C   UNL     1       1.351   9.218  19.841  0.00  0.00    +0.000 A 
ATOM     12  C   UNL     1       1.799   9.049  18.532  0.00  0.00    +0.000 A 
ATOM     13  C   UNL     1       2.348   7.818  18.165  0.00  0.00    +0.000 A 
BRANCH  12  14
ATOM     14  N   UNL     1       1.513  10.009  17.553  0.00  0.00    +0.000 N 
ATOM     15  H   UNL     1       0.971  10.795  17.896  0.00  0.00    +0.000 HD
ATOM     16  H   UNL     1       2.316  10.295  17.005  0.00  0.00    +0.000 HD
ENDBRANCH  12  14
ENDBRANCH   7   8
BRANCH   7  17
ATOM     17  N   UNL     1       4.696   5.859  18.284  0.00  0.00    +0.000 NA
ATOM     18  C   UNL     1       5.665   4.778  18.043  0.00  0.00    +0.000 C 
ATOM     19  C   UNL     1       5.427   4.014  16.733  0.00  0.00    +0.000 C 
ATOM     20  N   UNL     1       5.338   4.942  15.595  0.00  0.00    +0.000 N 
ATOM     21  C   UNL     1       4.556   6.179  15.758  0.00  0.00    +0.000 C 
ATOM     22  C   UNL     1       4.767   6.807  17.155  0.00  0.00    +0.000 C 
BRANCH  20  23
ATOM     23  C   UNL     1       6.086   4.721  14.457  0.00  0.00    +0.000 A 
ATOM     24  C   UNL     1       7.294   5.398  14.220  0.00  0.00    +0.000 A 
ATOM     25  C   UNL     1       8.025   5.185  13.045  0.00  0.00    +0.000 A 
ATOM     26  C   UNL     1       7.554   4.289  12.091  0.00  0.00    +0.000 A 
ATOM     27  C   UNL     1       6.372   3.593  12.308  0.00  0.00    +0.000 A 
ATOM     28  C   UNL     1       5.657   3.807  13.482  0.00  0.00    +0.000 A 
ENDBRANCH  20  23
ENDBRANCH   7  17
TORSDOF 4
ENDMDL
MODEL 4
REMARK VINA RESULT:      -8.1      1.396      3.708
REMARK  Name = 
REMARK  5 active torsions:
REMARK  status: ('A' for Active; 'I' for Inactive)
REMARK    1  A    between atoms: C_1  and  C_2
REMARK    2  A    between atoms: C_7  and  C_8
REMARK    3  A    between atoms: C_7  and  N_15
REMARK    4  A    between atoms: C_12  and  N_13
REMARK    5  A    between atoms: N_18  and  C_19
REMARK                            x       y       z     vdW  Elec       q    Type
REMARK                         _______ _______ _______ _____ _____    ______ ____
ROOT
ATOM      1  C   UNL     1       1.611   9.578  18.123  0.00  0.00    +0.000 C 
ATOM      2  C   UNL     1       1.193   8.235  18.739  0.00  0.00    +0.000 C 
ATOM      3  C   UNL     1       1.415   7.064  17.771  0.00  0.00    +0.000 C 
ATOM      4  C   UNL     1       2.888   6.797  17.884  0.00  0.00    +0.000 C 
ATOM      5  C   UNL     1       3.323   7.258  19.252  0.00  0.00    +0.000 C 
ATOM      6  C   UNL     1       2.107   7.852  19.911  0.00  0.00    +0.000 C 
ATOM      7  C   UNL     1       3.590   5.815  18.816  0.00  0.00    +0.000 C 
ENDROOT
BRANCH   7   8
ATOM      8  C   UNL     1       2.830   4.656  19.461  0.00  0.00    +0.000 A 
ATOM      9  C   UNL     1       2.822   4.494  20.857  0.00  0.00    +0.000 A 
ATOM     10  C   UNL     1       2.009   3.542  21.475  0.00  0.00    +0.000 A 
ATOM     11  C   UNL     1       1.192   2.717  20.703  0.00  0.00    +0.000 A 
ATOM     12  C   UNL     1       1.149   2.863  19.318  0.00  0.00    +0.000 A 
ATOM     13  C   UNL     1       1.987   3.807  18.717  0.00  0.00    +0.000 A 
BRANCH  12  14
ATOM     14  N   UNL     1       0.448   1.945  18.527  0.00  0.00    +0.000 N 
ATOM     15  H   UNL     1       0.960   1.634  17.709  0.00  0.00    +0.000 HD
ATOM     16  H   UNL     1       0.037   1.177  19.048  0.00  0.00    +0.000 HD
ENDBRANCH  12  14
ENDBRANCH   7   8
BRANCH   7  17
ATOM     17  N   UNL     1       4.986   5.372  18.449  0.00  0.00    +0.000 NA
ATOM     18  C   UNL     1       5.172   4.032  17.871  0.00  0.00    +0.000 C 
ATOM     19  C   UNL     1       4.726   3.923  16.406  0.00  0.00    +0.000 C 
ATOM     20  N   UNL     1       5.354   4.971  15.588  0.00  0.00    +0.000 N 
ATOM     21  C   UNL     1       5.420   6.340  16.131  0.00  0.00    +0.000 C 
ATOM     22  C   UNL     1       5.754   6.339  17.640  0.00  0.00    +0.000 C 
BRANCH  20  23
ATOM     23  C   UNL     1       5.989   4.646  14.408  0.00  0.00    +0.000 A 
ATOM     24  C   UNL     1       7.198   5.250  14.024  0.00  0.00    +0.000 A 
ATOM     25  C   UNL     1       7.813   4.930  12.807  0.00  0.00    +0.000 A 
ATOM     26  C   UNL     1       7.224   4.000  11.959  0.00  0.00    +0.000 A 
ATOM     27  C   UNL     1       6.037   3.374  12.321  0.00  0.00    +0.000 A 
ATOM     28  C   UNL     1       5.438   3.694  13.535  0.00  0.00    +0.000 A 
ENDBRANCH  20  23
ENDBRANCH   7  17
TORSDOF 4
ENDMDL
MODEL 5
REMARK VINA RESULT:      -7.7      2.456      7.576
REMARK  Name = 
REMARK  5 active torsions:
REMARK  status: ('A' for Active; 'I' for Inactive)
REMARK    1  A    between atoms: C_1  and  C_2
REMARK    2  A    between atoms: C_7  and  C_8
REMARK    3  A    between atoms: C_7  and  N_15
REMARK    4  A    between atoms: C_12  and  N_13
REMARK    5  A    between atoms: N_18  and  C_19
REMARK                            x       y       z     vdW  Elec       q    Type
REMARK                         _______ _______ _______ _____ _____    ______ ____
ROOT
ATOM      1  C   UNL     1       7.470   7.355  17.304  0.00  0.00    +0.000 C 
ATOM      2  C   UNL     1       7.093   5.917  17.690  0.00  0.00    +0.000 C 
ATOM      3  C   UNL     1       6.230   5.870  18.959  0.00  0.00    +0.000 C 
ATOM      4  C   UNL     1       4.861   6.225  18.460  0.00  0.00    +0.000 C 
ATOM      5  C   UNL     1       4.795   5.822  17.008  0.00  0.00    +0.000 C 
ATOM      6  C   UNL     1       6.156   5.289  16.649  0.00  0.00    +0.000 C 
ATOM      7  C   UNL     1       3.761   5.275  17.994  0.00  0.00    +0.000 C 
ENDROOT
BRANCH   7   8
ATOM      8  C   UNL     1       3.772   3.799  18.392  0.00  0.00    +0.000 A 
ATOM      9  C   UNL     1       3.207   2.827  17.548  0.00  0.00    +0.000 A 
ATOM     10  C   UNL     1       3.346   1.463  17.813  0.00  0.00    +0.000 A 
ATOM     11  C   UNL     1       4.046   1.041  18.942  0.00  0.00    +0.000 A 
ATOM     12  C   UNL     1       4.644   1.971  19.790  0.00  0.00    +0.000 A 
ATOM     13  C   UNL     1       4.475   3.332  19.519  0.00  0.00    +0.000 A 
BRANCH  12  14
ATOM     14  N   UNL     1       5.218   1.563  21.001  0.00  0.00    +0.000 N 
ATOM     15  H   UNL     1       4.540   1.315  21.713  0.00  0.00    +0.000 HD
ATOM     16  H   UNL     1       5.953   0.872  20.900  0.00  0.00    +0.000 HD
ENDBRANCH  12  14
ENDBRANCH   7   8
BRANCH   7  17
ATOM     17  N   UNL     1       2.343   5.793  17.983  0.00  0.00    +0.000 NA
ATOM     18  C   UNL     1       1.493   5.548  19.159  0.00  0.00    +0.000 C 
ATOM     19  C   UNL     1       1.833   6.435  20.364  0.00  0.00    +0.000 C 
ATOM     20  N   UNL     1       1.851   7.855  19.980  0.00  0.00    +0.000 N 
ATOM     21  C   UNL     1       2.502   8.231  18.712  0.00  0.00    +0.000 C 
ATOM     22  C   UNL     1       2.199   7.209  17.592  0.00  0.00    +0.000 C 
BRANCH  20  23
ATOM     23  C   UNL     1       1.152   8.785  20.721  0.00  0.00    +0.000 A 
ATOM     24  C   UNL     1       0.722  10.003  20.168  0.00  0.00    +0.000 A 
ATOM     25  C   UNL     1       0.041  10.949  20.944  0.00  0.00    +0.000 A 
ATOM     26  C   UNL     1      -0.218  10.688  22.284  0.00  0.00    +0.000 A 
ATOM     27  C   UNL     1       0.182   9.485  22.852  0.00  0.00    +0.000 A 
ATOM     28  C   UNL     1       0.851   8.548  22.071  0.00  0.00    +0.000 A 
ENDBRANCH  20  23
ENDBRANCH   7  17
TORSDOF 4
ENDMDL
MODEL 6
REMARK VINA RESULT:      -7.3      1.856      6.898
REMARK  Name = 
REMARK  5 active torsions:
REMARK  status: ('A' for Active; 'I' for Inactive)
REMARK    1  A    between atoms: C_1  and  C_2
REMARK    2  A    between atoms: C_7  and  C_8
REMARK    3  A    between atoms: C_7  and  N_15
REMARK    4  A    between atoms: C_12  and  N_13
REMARK    5  A    between atoms: N_18  and  C_19
REMARK                            x       y       z     vdW  Elec       q    Type
REMARK                         _______ _______ _______ _____ _____    ______ ____
ROOT
ATOM      1  C   UNL     1       5.205   3.600  12.872  0.00  0.00    +0.000 C 
ATOM      2  C   UNL     1       6.174   4.326  13.817  0.00  0.00    +0.000 C 
ATOM      3  C   UNL     1       5.521   5.542  14.488  0.00  0.00    +0.000 C 
ATOM      4  C   UNL     1       4.708   4.932  15.593  0.00  0.00    +0.000 C 
ATOM      5  C   UNL     1       5.366   3.627  15.965  0.00  0.00    +0.000 C 
ATOM      6  C   UNL     1       6.531   3.452  15.027  0.00  0.00    +0.000 C 
ATOM      7  C   UNL     1       5.130   4.691  17.039  0.00  0.00    +0.000 C 
ENDROOT
BRANCH   7   8
ATOM      8  C   UNL     1       6.307   5.448  17.655  0.00  0.00    +0.000 A 
ATOM      9  C   UNL     1       6.651   6.731  17.196  0.00  0.00    +0.000 A 
ATOM     10  C   UNL     1       7.616   7.502  17.847  0.00  0.00    +0.000 A 
ATOM     11  C   UNL     1       8.269   6.998  18.970  0.00  0.00    +0.000 A 
ATOM     12  C   UNL     1       7.939   5.741  19.474  0.00  0.00    +0.000 A 
ATOM     13  C   UNL     1       6.986   4.976  18.795  0.00  0.00    +0.000 A 
BRANCH  12  14
ATOM     14  N   UNL     1       8.691   5.168  20.506  0.00  0.00    +0.000 N 
ATOM     15  H   UNL     1       9.462   5.747  20.822  0.00  0.00    +0.000 HD
ATOM     16  H   UNL     1       8.136   4.802  21.272  0.00  0.00    +0.000 HD
ENDBRANCH  12  14
ENDBRANCH   7   8
BRANCH   7  17
ATOM     17  N   UNL     1       4.040   4.511  18.069  0.00  0.00    +0.000 NA
ATOM     18  C   UNL     1       4.233   5.088  19.408  0.00  0.00    +0.000 C 
ATOM     19  C   UNL     1       4.059   6.613  19.455  0.00  0.00    +0.000 C 
ATOM     20  N   UNL     1       2.775   7.012  18.859  0.00  0.00    +0.000 N 
ATOM     21  C   UNL     1       2.352   6.364  17.605  0.00  0.00    +0.000 C 
ATOM     22  C   UNL     1       2.682   4.854  17.605  0.00  0.00    +0.000 C 
BRANCH  20  23
ATOM     23  C   UNL     1       1.929   7.866  19.536  0.00  0.00    +0.000 A 
ATOM     24  C   UNL     1       1.435   9.042  18.947  0.00  0.00    +0.000 A 
ATOM     25  C   UNL     1       0.603   9.913  19.659  0.00  0.00    +0.000 A 
ATOM     26  C   UNL     1       0.255   9.619  20.973  0.00  0.00    +0.000 A 
ATOM     27  C   UNL     1       0.716   8.455  21.574  0.00  0.00    +0.000 A 
ATOM     28  C   UNL     1       1.536   7.591  20.855  0.00  0.00    +0.000 A 
ENDBRANCH  20  23
ENDBRANCH   7  17
TORSDOF 4
ENDMDL
MODEL 7
REMARK VINA RESULT:      -7.3      1.821      6.980
REMARK  Name = 
REMARK  5 active torsions:
REMARK  status: ('A' for Active; 'I' for Inactive)
REMARK    1  A    between atoms: C_1  and  C_2
REMARK    2  A    between atoms: C_7  and  C_8
REMARK    3  A    between atoms: C_7  and  N_15
REMARK    4  A    between atoms: C_12  and  N_13
REMARK    5  A    between atoms: N_18  and  C_19
REMARK                            x       y       z     vdW  Elec       q    Type
REMARK                         _______ _______ _______ _____ _____    ______ ____
ROOT
ATOM      1  C   UNL     1       5.382   3.619  13.076  0.00  0.00    +0.000 C 
ATOM      2  C   UNL     1       6.263   4.401  14.061  0.00  0.00    +0.000 C 
ATOM      3  C   UNL     1       5.531   5.616  14.649  0.00  0.00    +0.000 C 
ATOM      4  C   UNL     1       4.662   5.013  15.714  0.00  0.00    +0.000 C 
ATOM      5  C   UNL     1       5.330   3.740  16.170  0.00  0.00    +0.000 C 
ATOM      6  C   UNL     1       6.561   3.573  15.319  0.00  0.00    +0.000 C 
ATOM      7  C   UNL     1       4.990   4.827  17.192  0.00  0.00    +0.000 C 
ENDROOT
BRANCH   7   8
ATOM      8  C   UNL     1       6.100   5.637  17.863  0.00  0.00    +0.000 A 
ATOM      9  C   UNL     1       6.868   5.077  18.899  0.00  0.00    +0.000 A 
ATOM     10  C   UNL     1       7.984   5.736  19.416  0.00  0.00    +0.000 A 
ATOM     11  C   UNL     1       8.352   6.983  18.913  0.00  0.00    +0.000 A 
ATOM     12  C   UNL     1       7.635   7.561  17.867  0.00  0.00    +0.000 A 
ATOM     13  C   UNL     1       6.507   6.895  17.379  0.00  0.00    +0.000 A 
BRANCH  12  14
ATOM     14  N   UNL     1       7.905   8.873  17.460  0.00  0.00    +0.000 N 
ATOM     15  H   UNL     1       7.252   9.231  16.771  0.00  0.00    +0.000 HD
ATOM     16  H   UNL     1       8.065   9.521  18.223  0.00  0.00    +0.000 HD
ENDBRANCH  12  14
ENDBRANCH   7   8
BRANCH   7  17
ATOM     17  N   UNL     1       3.838   4.644  18.151  0.00  0.00    +0.000 NA
ATOM     18  C   UNL     1       3.971   5.162  19.521  0.00  0.00    +0.000 C 
ATOM     19  C   UNL     1       3.843   6.689  19.620  0.00  0.00    +0.000 C 
ATOM     20  N   UNL     1       2.609   7.153  18.970  0.00  0.00    +0.000 N 
ATOM     21  C   UNL     1       2.238   6.569  17.669  0.00  0.00    +0.000 C 
ATOM     22  C   UNL     1       2.520   5.050  17.626  0.00  0.00    +0.000 C 
BRANCH  20  23
ATOM     23  C   UNL     1       1.753   8.009  19.633  0.00  0.00    +0.000 A 
ATOM     24  C   UNL     1       1.256   9.176  19.028  0.00  0.00    +0.000 A 
ATOM     25  C   UNL     1       0.413  10.049  19.726  0.00  0.00    +0.000 A 
ATOM     26  C   UNL     1       0.056   9.764  21.040  0.00  0.00    +0.000 A 
ATOM     27  C   UNL     1       0.520   8.609  21.656  0.00  0.00    +0.000 A 
ATOM     28  C   UNL     1       1.351   7.744  20.951  0.00  0.00    +0.000 A 
ENDBRANCH  20  23
ENDBRANCH   7  17
TORSDOF 4
ENDMDL
MODEL 8
REMARK VINA RESULT:      -7.2      4.128      8.097
REMARK  Name = 
REMARK  5 active torsions:
REMARK  status: ('A' for Active; 'I' for Inactive)
REMARK    1  A    between atoms: C_1  and  C_2
REMARK    2  A    between atoms: C_7  and  C_8
REMARK    3  A    between atoms: C_7  and  N_15
REMARK    4  A    between atoms: C_12  and  N_13
REMARK    5  A    between atoms: N_18  and  C_19
REMARK                            x       y       z     vdW  Elec       q    Type
REMARK                         _______ _______ _______ _____ _____    ______ ____
ROOT
ATOM      1  C   UNL     1       2.467  14.676  18.216  0.00  0.00    +0.000 C 
ATOM      2  C   UNL     1       1.408  14.769  19.324  0.00  0.00    +0.000 C 
ATOM      3  C   UNL     1       0.007  14.401  18.813  0.00  0.00    +0.000 C 
ATOM      4  C   UNL     1       0.030  12.901  18.792  0.00  0.00    +0.000 C 
ATOM      5  C   UNL     1       1.032  12.453  19.826  0.00  0.00    +0.000 C 
ATOM      6  C   UNL     1       1.638  13.704  20.405  0.00  0.00    +0.000 C 
ATOM      7  C   UNL     1      -0.409  11.945  19.895  0.00  0.00    +0.000 C 
ENDROOT
BRANCH   7   8
ATOM      8  C   UNL     1      -1.342  12.406  21.016  0.00  0.00    +0.000 A 
ATOM      9  C   UNL     1      -0.867  12.546  22.331  0.00  0.00    +0.000 A 
ATOM     10  C   UNL     1      -1.655  13.115  23.333  0.00  0.00    +0.000 A 
ATOM     11  C   UNL     1      -2.948  13.546  23.042  0.00  0.00    +0.000 A 
ATOM     12  C   UNL     1      -3.449  13.450  21.745  0.00  0.00    +0.000 A 
ATOM     13  C   UNL     1      -2.652  12.858  20.761  0.00  0.00    +0.000 A 
BRANCH  12  14
ATOM     14  N   UNL     1      -4.792  13.741  21.478  0.00  0.00    +0.000 N 
ATOM     15  H   UNL     1      -5.264  13.029  20.930  0.00  0.00    +0.000 HD
ATOM     16  H   UNL     1      -5.325  14.028  22.292  0.00  0.00    +0.000 HD
ENDBRANCH  12  14
ENDBRANCH   7   8
BRANCH   7  17
ATOM     17  N   UNL     1      -0.740  10.524  19.505  0.00  0.00    +0.000 NA
ATOM     18  C   UNL     1      -0.291  10.030  18.194  0.00  0.00    +0.000 C 
ATOM     19  C   UNL     1       1.212   9.725  18.129  0.00  0.00    +0.000 C 
ATOM     20  N   UNL     1       1.612   8.829  19.224  0.00  0.00    +0.000 N 
ATOM     21  C   UNL     1       1.075   9.086  20.572  0.00  0.00    +0.000 C 
ATOM     22  C   UNL     1      -0.412   9.506  20.523  0.00  0.00    +0.000 C 
BRANCH  20  23
ATOM     23  C   UNL     1       2.356   7.697  18.961  0.00  0.00    +0.000 A 
ATOM     24  C   UNL     1       3.158   7.587  17.813  0.00  0.00    +0.000 A 
ATOM     25  C   UNL     1       3.883   6.419  17.546  0.00  0.00    +0.000 A 
ATOM     26  C   UNL     1       3.814   5.346  18.427  0.00  0.00    +0.000 A 
ATOM     27  C   UNL     1       3.042   5.434  19.579  0.00  0.00    +0.000 A 
ATOM     28  C   UNL     1       2.332   6.602  19.839  0.00  0.00    +0.000 A 
ENDBRANCH  20  23
ENDBRANCH   7  17
TORSDOF 4
ENDMDL
MODEL 9
REMARK VINA RESULT:      -7.2      4.069      8.004
REMARK  Name = 
REMARK  5 active torsions:
REMARK  status: ('A' for Active; 'I' for Inactive)
REMARK    1  A    between atoms: C_1  and  C_2
REMARK    2  A    between atoms: C_7  and  C_8
REMARK    3  A    between atoms: C_7  and  N_15
REMARK    4  A    between atoms: C_12  and  N_13
REMARK    5  A    between atoms: N_18  and  C_19
REMARK                            x       y       z     vdW  Elec       q    Type
REMARK                         _______ _______ _______ _____ _____    ______ ____
ROOT
ATOM      1  C   UNL     1       2.688  14.371  19.269  0.00  0.00    +0.000 C 
ATOM      2  C   UNL     1       1.316  14.552  19.936  0.00  0.00    +0.000 C 
ATOM      3  C   UNL     1       0.164  14.172  18.994  0.00  0.00    +0.000 C 
ATOM      4  C   UNL     1       0.138  12.673  19.068  0.00  0.00    +0.000 C 
ATOM      5  C   UNL     1       0.707  12.280  20.408  0.00  0.00    +0.000 C 
ATOM      6  C   UNL     1       1.122  13.557  21.088  0.00  0.00    +0.000 C 
ATOM      7  C   UNL     1      -0.688  11.798  20.004  0.00  0.00    +0.000 C 
ENDROOT
BRANCH   7   8
ATOM      8  C   UNL     1      -1.932  12.346  20.705  0.00  0.00    +0.000 A 
ATOM      9  C   UNL     1      -3.004  12.865  19.958  0.00  0.00    +0.000 A 
ATOM     10  C   UNL     1      -4.209  13.222  20.565  0.00  0.00    +0.000 A 
ATOM     11  C   UNL     1      -4.364  13.079  21.944  0.00  0.00    +0.000 A 
ATOM     12  C   UNL     1      -3.336  12.544  22.717  0.00  0.00    +0.000 A 
ATOM     13  C   UNL     1      -2.130  12.213  22.093  0.00  0.00    +0.000 A 
BRANCH  12  14
ATOM     14  N   UNL     1      -3.427  12.537  24.114  0.00  0.00    +0.000 N 
ATOM     15  H   UNL     1      -2.999  13.343  24.557  0.00  0.00    +0.000 HD
ATOM     16  H   UNL     1      -4.357  12.341  24.469  0.00  0.00    +0.000 HD
ENDBRANCH  12  14
ENDBRANCH   7   8
BRANCH   7  17
ATOM     17  N   UNL     1      -0.916  10.360  19.606  0.00  0.00    +0.000 NA
ATOM     18  C   UNL     1      -0.491   9.923  18.266  0.00  0.00    +0.000 C 
ATOM     19  C   UNL     1       1.027   9.748  18.125  0.00  0.00    +0.000 C 
ATOM     20  N   UNL     1       1.554   8.875  19.185  0.00  0.00    +0.000 N 
ATOM     21  C   UNL     1       1.064   9.068  20.561  0.00  0.00    +0.000 C 
ATOM     22  C   UNL     1      -0.454   9.361  20.589  0.00  0.00    +0.000 C 
BRANCH  20  23
ATOM     23  C   UNL     1       2.378   7.815  18.868  0.00  0.00    +0.000 A 
ATOM     24  C   UNL     1       2.453   6.667  19.674  0.00  0.00    +0.000 A 
ATOM     25  C   UNL     1       3.318   5.613  19.353  0.00  0.00    +0.000 A 
ATOM     26  C   UNL     1       4.119   5.697  18.220  0.00  0.00    +0.000 A 
ATOM     27  C   UNL     1       4.052   6.813  17.396  0.00  0.00    +0.000 A 
ATOM     28  C   UNL     1       3.184   7.851  17.719  0.00  0.00    +0.000 A 
ENDBRANCH  20  23
ENDBRANCH   7  17
TORSDOF 4
ENDMDL
