MODEL 1
REMARK VINA RESULT:      -9.2      0.000      0.000
REMARK  Name = 
REMARK  9 active torsions:
REMARK  status: ('A' for Active; 'I' for Inactive)
REMARK    1  A    between atoms: C_1  and  C_2
REMARK    2  A    between atoms: C_6  and  C_7
REMARK    3  A    between atoms: C_7  and  N_8
REMARK    4  A    between atoms: C_9  and  C_11
REMARK    5  A    between atoms: C_11  and  C_12
REMARK    6  A    between atoms: C_12  and  C_13
REMARK    7  A    between atoms: C_13  and  N_14
REMARK    8  A    between atoms: C_21  and  C_22
REMARK    9  A    between atoms: N_26  and  C_27
REMARK                            x       y       z     vdW  Elec       q    Type
REMARK                         _______ _______ _______ _____ _____    ______ ____
ROOT
ATOM      1  N   UNL     1       4.443   3.983  19.676  0.00  0.00    +0.000 N 
ATOM      2  C   UNL     1       4.211   2.754  20.393  0.00  0.00    +0.000 C 
ATOM      3  O   UNL     1       5.095   1.907  20.382  0.00  0.00    +0.000 OA
ATOM      4  C   UNL     1       2.894   2.522  21.101  0.00  0.00    +0.000 C 
ATOM      5  C   UNL     1       1.928   3.690  21.195  0.00  0.00    +0.000 C 
ATOM      6  N   UNL     1       2.333   4.862  20.474  0.00  0.00    +0.000 N 
ATOM      7  N   UNL     1       1.592   5.972  20.497  0.00  0.00    +0.000 NA
ATOM      8  C   UNL     1       2.244   6.803  19.672  0.00  0.00    +0.000 A 
ATOM      9  C   UNL     1       3.428   6.209  19.162  0.00  0.00    +0.000 A 
ATOM     10  C   UNL     1       3.475   4.968  19.750  0.00  0.00    +0.000 A 
ENDROOT
BRANCH   8  11
ATOM     11  C   UNL     1       1.736   8.173  19.375  0.00  0.00    +0.000 A 
ATOM     12  C   UNL     1       1.672   8.764  18.127  0.00  0.00    +0.000 A 
ATOM     13  C   UNL     1       1.100  10.050  18.285  0.00  0.00    +0.000 A 
ATOM     14  C   UNL     1       0.844  10.220  19.625  0.00  0.00    +0.000 A 
ATOM     15  N   UNL     1       1.242   9.083  20.284  0.00  0.00    +0.000 N 
ATOM     16  C   UNL     1       1.172   8.915  21.720  0.00  0.00    +0.000 C 
ENDBRANCH   8  11
BRANCH   1  17
ATOM     17  C   UNL     1       5.722   4.162  18.947  0.00  0.00    +0.000 C 
BRANCH  17  18
ATOM     18  C   UNL     1       6.142   5.625  18.999  0.00  0.00    +0.000 C 
BRANCH  18  19
ATOM     19  C   UNL     1       7.484   5.895  18.308  0.00  0.00    +0.000 C 
BRANCH  19  21
ATOM     20  N   UNL     1       8.237   8.213  18.242  0.00  0.00    +0.000 N 
ATOM     21  C   UNL     1       7.465   7.257  17.628  0.00  0.00    +0.000 C 
ATOM     22  O   UNL     1       6.804   7.472  16.615  0.00  0.00    +0.000 OA
ATOM     23  H   UNL     1       8.754   7.997  19.084  0.00  0.00    +0.000 HD
BRANCH  20  24
ATOM     24  C   UNL     1       8.360   9.552  17.700  0.00  0.00    +0.000 C 
BRANCH  24  30
ATOM     25  C   UNL     1      12.051  12.982  17.963  0.00  0.00    +0.000 C 
ATOM     26  C   UNL     1      11.070  12.077  18.651  0.00  0.00    +0.000 A 
ATOM     27  C   UNL     1      10.971  12.059  20.046  0.00  0.00    +0.000 A 
ATOM     28  C   UNL     1      10.051  11.219  20.675  0.00  0.00    +0.000 A 
ATOM     29  C   UNL     1       9.221  10.396  19.915  0.00  0.00    +0.000 A 
ATOM     30  C   UNL     1       9.293  10.409  18.515  0.00  0.00    +0.000 A 
ATOM     31  C   UNL     1      10.233  11.246  17.894  0.00  0.00    +0.000 A 
ENDBRANCH  24  30
ENDBRANCH  20  24
ENDBRANCH  19  21
ENDBRANCH  18  19
ENDBRANCH  17  18
ENDBRANCH   1  17
TORSDOF 7
ENDMDL
MODEL 2
REMARK VINA RESULT:      -8.8      3.490      5.421
REMARK  Name = 
REMARK  9 active torsions:
REMARK  status: ('A' for Active; 'I' for Inactive)
REMARK    1  A    between atoms: C_1  and  C_2
REMARK    2  A    between atoms: C_6  and  C_7
REMARK    3  A    between atoms: C_7  and  N_8
REMARK    4  A    between atoms: C_9  and  C_11
REMARK    5  A    between atoms: C_11  and  C_12
REMARK    6  A    between atoms: C_12  and  C_13
REMARK    7  A    between atoms: C_13  and  N_14
REMARK    8  A    between atoms: C_21  and  C_22
REMARK    9  A    between atoms: N_26  and  C_27
REMARK                            x       y       z     vdW  Elec       q    Type
REMARK                         _______ _______ _______ _____ _____    ______ ____
ROOT
ATOM      1  N   UNL     1       4.280   3.847  19.686  0.00  0.00    +0.000 N 
ATOM      2  C   UNL     1       4.044   2.659  20.468  0.00  0.00    +0.000 C 
ATOM      3  O   UNL     1       4.883   1.769  20.428  0.00  0.00    +0.000 OA
ATOM      4  C   UNL     1       2.774   2.521  21.280  0.00  0.00    +0.000 C 
ATOM      5  C   UNL     1       1.874   3.739  21.396  0.00  0.00    +0.000 C 
ATOM      6  N   UNL     1       2.279   4.861  20.599  0.00  0.00    +0.000 N 
ATOM      7  N   UNL     1       1.595   6.006  20.630  0.00  0.00    +0.000 NA
ATOM      8  C   UNL     1       2.223   6.772  19.726  0.00  0.00    +0.000 A 
ATOM      9  C   UNL     1       3.336   6.100  19.156  0.00  0.00    +0.000 A 
ATOM     10  C   UNL     1       3.368   4.881  19.789  0.00  0.00    +0.000 A 
ENDROOT
BRANCH   8  11
ATOM     11  C   UNL     1       1.759   8.154  19.411  0.00  0.00    +0.000 A 
ATOM     12  C   UNL     1       1.782   8.755  18.166  0.00  0.00    +0.000 A 
ATOM     13  C   UNL     1       1.226  10.051  18.300  0.00  0.00    +0.000 A 
ATOM     14  C   UNL     1       0.893  10.216  19.624  0.00  0.00    +0.000 A 
ATOM     15  N   UNL     1       1.229   9.067  20.296  0.00  0.00    +0.000 N 
ATOM     16  C   UNL     1       1.070   8.890  21.724  0.00  0.00    +0.000 C 
ENDBRANCH   8  11
BRANCH   1  17
ATOM     17  C   UNL     1       5.507   3.934  18.859  0.00  0.00    +0.000 C 
BRANCH  17  18
ATOM     18  C   UNL     1       6.343   5.128  19.303  0.00  0.00    +0.000 C 
BRANCH  18  19
ATOM     19  C   UNL     1       7.558   5.385  18.405  0.00  0.00    +0.000 C 
BRANCH  19  21
ATOM     20  N   UNL     1       6.061   5.290  16.484  0.00  0.00    +0.000 N 
ATOM     21  C   UNL     1       7.114   5.954  17.065  0.00  0.00    +0.000 C 
ATOM     22  O   UNL     1       7.663   6.926  16.553  0.00  0.00    +0.000 OA
ATOM     23  H   UNL     1       5.647   4.484  16.933  0.00  0.00    +0.000 HD
BRANCH  20  24
ATOM     24  C   UNL     1       5.489   5.727  15.225  0.00  0.00    +0.000 C 
BRANCH  24  30
ATOM     25  C   UNL     1       5.227   2.285  11.545  0.00  0.00    +0.000 C 
ATOM     26  C   UNL     1       5.986   3.368  12.256  0.00  0.00    +0.000 A 
ATOM     27  C   UNL     1       7.246   3.774  11.804  0.00  0.00    +0.000 A 
ATOM     28  C   UNL     1       7.940   4.787  12.468  0.00  0.00    +0.000 A 
ATOM     29  C   UNL     1       7.377   5.404  13.585  0.00  0.00    +0.000 A 
ATOM     30  C   UNL     1       6.110   5.023  14.047  0.00  0.00    +0.000 A 
ATOM     31  C   UNL     1       5.428   3.993  13.381  0.00  0.00    +0.000 A 
ENDBRANCH  24  30
ENDBRANCH  20  24
ENDBRANCH  19  21
ENDBRANCH  18  19
ENDBRANCH  17  18
ENDBRANCH   1  17
TORSDOF 7
ENDMDL
MODEL 3
REMARK VINA RESULT:      -8.7      3.871      6.063
REMARK  Name = 
REMARK  9 active torsions:
REMARK  status: ('A' for Active; 'I' for Inactive)
REMARK    1  A    between atoms: C_1  and  C_2
REMARK    2  A    between atoms: C_6  and  C_7
REMARK    3  A    between atoms: C_7  and  N_8
REMARK    4  A    between atoms: C_9  and  C_11
REMARK    5  A    between atoms: C_11  and  C_12
REMARK    6  A    between atoms: C_12  and  C_13
REMARK    7  A    between atoms: C_13  and  N_14
REMARK    8  A    between atoms: C_21  and  C_22
REMARK    9  A    between atoms: N_26  and  C_27
REMARK                            x       y       z     vdW  Elec       q    Type
REMARK                         _______ _______ _______ _____ _____    ______ ____
ROOT
ATOM      1  N   UNL     1       3.747   4.321  19.080  0.00  0.00    +0.000 N 
ATOM      2  C   UNL     1       3.626   3.054  19.758  0.00  0.00    +0.000 C 
ATOM      3  O   UNL     1       4.390   2.154  19.435  0.00  0.00    +0.000 OA
ATOM      4  C   UNL     1       2.555   2.851  20.809  0.00  0.00    +0.000 C 
ATOM      5  C   UNL     1       1.764   4.069  21.254  0.00  0.00    +0.000 C 
ATOM      6  N   UNL     1       2.044   5.268  20.518  0.00  0.00    +0.000 N 
ATOM      7  N   UNL     1       1.441   6.418  20.826  0.00  0.00    +0.000 NA
ATOM      8  C   UNL     1       1.897   7.270  19.897  0.00  0.00    +0.000 A 
ATOM      9  C   UNL     1       2.826   6.644  19.025  0.00  0.00    +0.000 A 
ATOM     10  C   UNL     1       2.932   5.357  19.496  0.00  0.00    +0.000 A 
ENDROOT
BRANCH   8  11
ATOM     11  C   UNL     1       1.447   8.691  19.847  0.00  0.00    +0.000 A 
ATOM     12  C   UNL     1       1.277   9.450  18.704  0.00  0.00    +0.000 A 
ATOM     13  C   UNL     1       0.811  10.728  19.098  0.00  0.00    +0.000 A 
ATOM     14  C   UNL     1       0.724  10.725  20.471  0.00  0.00    +0.000 A 
ATOM     15  N   UNL     1       1.122   9.490  20.921  0.00  0.00    +0.000 N 
ATOM     16  C   UNL     1       1.209   9.130  22.320  0.00  0.00    +0.000 C 
ENDBRANCH   8  11
BRANCH   1  17
ATOM     17  C   UNL     1       4.770   4.475  18.018  0.00  0.00    +0.000 C 
BRANCH  17  18
ATOM     18  C   UNL     1       6.026   5.109  18.603  0.00  0.00    +0.000 C 
BRANCH  18  19
ATOM     19  C   UNL     1       7.308   4.704  17.867  0.00  0.00    +0.000 C 
BRANCH  19  21
ATOM     20  N   UNL     1       7.312   4.544  15.435  0.00  0.00    +0.000 N 
ATOM     21  C   UNL     1       7.379   5.393  16.511  0.00  0.00    +0.000 C 
ATOM     22  O   UNL     1       7.492   6.612  16.403  0.00  0.00    +0.000 OA
ATOM     23  H   UNL     1       7.234   3.545  15.569  0.00  0.00    +0.000 HD
BRANCH  20  24
ATOM     24  C   UNL     1       7.325   5.041  14.073  0.00  0.00    +0.000 C 
BRANCH  24  30
ATOM     25  C   UNL     1       7.086   1.352  10.638  0.00  0.00    +0.000 C 
ATOM     26  C   UNL     1       6.395   2.379  11.489  0.00  0.00    +0.000 A 
ATOM     27  C   UNL     1       5.002   2.502  11.472  0.00  0.00    +0.000 A 
ATOM     28  C   UNL     1       4.370   3.455  12.272  0.00  0.00    +0.000 A 
ATOM     29  C   UNL     1       5.125   4.288  13.098  0.00  0.00    +0.000 A 
ATOM     30  C   UNL     1       6.521   4.170  13.143  0.00  0.00    +0.000 A 
ATOM     31  C   UNL     1       7.148   3.220  12.322  0.00  0.00    +0.000 A 
ENDBRANCH  24  30
ENDBRANCH  20  24
ENDBRANCH  19  21
ENDBRANCH  18  19
ENDBRANCH  17  18
ENDBRANCH   1  17
TORSDOF 7
ENDMDL
MODEL 4
REMARK VINA RESULT:      -8.6      4.201      6.636
REMARK  Name = 
REMARK  9 active torsions:
REMARK  status: ('A' for Active; 'I' for Inactive)
REMARK    1  A    between atoms: C_1  and  C_2
REMARK    2  A    between atoms: C_6  and  C_7
REMARK    3  A    between atoms: C_7  and  N_8
REMARK    4  A    between atoms: C_9  and  C_11
REMARK    5  A    between atoms: C_11  and  C_12
REMARK    6  A    between atoms: C_12  and  C_13
REMARK    7  A    between atoms: C_13  and  N_14
REMARK    8  A    between atoms: C_21  and  C_22
REMARK    9  A    between atoms: N_26  and  C_27
REMARK                            x       y       z     vdW  Elec       q    Type
REMARK                         _______ _______ _______ _____ _____    ______ ____
ROOT
ATOM      1  N   UNL     1       4.035   4.136  19.478  0.00  0.00    +0.000 N 
ATOM      2  C   UNL     1       3.951   2.840  20.104  0.00  0.00    +0.000 C 
ATOM      3  O   UNL     1       4.797   2.005  19.813  0.00  0.00    +0.000 OA
ATOM      4  C   UNL     1       2.821   2.530  21.064  0.00  0.00    +0.000 C 
ATOM      5  C   UNL     1       1.918   3.676  21.485  0.00  0.00    +0.000 C 
ATOM      6  N   UNL     1       2.169   4.917  20.810  0.00  0.00    +0.000 N 
ATOM      7  N   UNL     1       1.469   6.013  21.107  0.00  0.00    +0.000 NA
ATOM      8  C   UNL     1       1.933   6.926  20.243  0.00  0.00    +0.000 A 
ATOM      9  C   UNL     1       2.965   6.394  19.425  0.00  0.00    +0.000 A 
ATOM     10  C   UNL     1       3.123   5.101  19.862  0.00  0.00    +0.000 A 
ENDROOT
BRANCH   8  11
ATOM     11  C   UNL     1       1.392   8.315  20.203  0.00  0.00    +0.000 A 
ATOM     12  C   UNL     1       0.722   8.957  21.228  0.00  0.00    +0.000 A 
ATOM     13  C   UNL     1       0.409  10.267  20.790  0.00  0.00    +0.000 A 
ATOM     14  C   UNL     1       0.881  10.388  19.503  0.00  0.00    +0.000 A 
ATOM     15  N   UNL     1       1.466   9.198  19.147  0.00  0.00    +0.000 N 
ATOM     16  C   UNL     1       2.032   8.934  17.842  0.00  0.00    +0.000 C 
ENDBRANCH   8  11
BRANCH   1  17
ATOM     17  C   UNL     1       5.121   4.396  18.502  0.00  0.00    +0.000 C 
BRANCH  17  18
ATOM     18  C   UNL     1       4.523   4.848  17.176  0.00  0.00    +0.000 C 
BRANCH  18  19
ATOM     19  C   UNL     1       5.221   6.079  16.585  0.00  0.00    +0.000 C 
BRANCH  19  21
ATOM     20  N   UNL     1       5.948   4.881  14.591  0.00  0.00    +0.000 N 
ATOM     21  C   UNL     1       6.348   5.652  15.655  0.00  0.00    +0.000 C 
ATOM     22  O   UNL     1       7.517   5.974  15.854  0.00  0.00    +0.000 OA
ATOM     23  H   UNL     1       4.977   4.626  14.473  0.00  0.00    +0.000 HD
BRANCH  20  24
ATOM     24  C   UNL     1       6.891   4.424  13.589  0.00  0.00    +0.000 C 
BRANCH  24  30
ATOM     25  C   UNL     1       3.010   3.226  10.595  0.00  0.00    +0.000 C 
ATOM     26  C   UNL     1       4.381   2.920  11.126  0.00  0.00    +0.000 A 
ATOM     27  C   UNL     1       5.097   1.813  10.661  0.00  0.00    +0.000 A 
ATOM     28  C   UNL     1       6.374   1.542  11.156  0.00  0.00    +0.000 A 
ATOM     29  C   UNL     1       6.943   2.377  12.117  0.00  0.00    +0.000 A 
ATOM     30  C   UNL     1       6.249   3.501  12.586  0.00  0.00    +0.000 A 
ATOM     31  C   UNL     1       4.960   3.755  12.093  0.00  0.00    +0.000 A 
ENDBRANCH  24  30
ENDBRANCH  20  24
ENDBRANCH  19  21
ENDBRANCH  18  19
ENDBRANCH  17  18
ENDBRANCH   1  17
TORSDOF 7
ENDMDL
MODEL 5
REMARK VINA RESULT:      -8.6      5.394      9.712
REMARK  Name = 
REMARK  9 active torsions:
REMARK  status: ('A' for Active; 'I' for Inactive)
REMARK    1  A    between atoms: C_1  and  C_2
REMARK    2  A    between atoms: C_6  and  C_7
REMARK    3  A    between atoms: C_7  and  N_8
REMARK    4  A    between atoms: C_9  and  C_11
REMARK    5  A    between atoms: C_11  and  C_12
REMARK    6  A    between atoms: C_12  and  C_13
REMARK    7  A    between atoms: C_13  and  N_14
REMARK    8  A    between atoms: C_21  and  C_22
REMARK    9  A    between atoms: N_26  and  C_27
REMARK                            x       y       z     vdW  Elec       q    Type
REMARK                         _______ _______ _______ _____ _____    ______ ____
ROOT
ATOM      1  N   UNL     1      -2.301  11.405  18.064  0.00  0.00    +0.000 N 
ATOM      2  C   UNL     1      -3.040  10.992  16.897  0.00  0.00    +0.000 C 
ATOM      3  O   UNL     1      -2.423  10.452  15.988  0.00  0.00    +0.000 OA
ATOM      4  C   UNL     1      -4.527  11.259  16.802  0.00  0.00    +0.000 C 
ATOM      5  C   UNL     1      -5.230  11.784  18.042  0.00  0.00    +0.000 C 
ATOM      6  N   UNL     1      -4.359  12.093  19.139  0.00  0.00    +0.000 N 
ATOM      7  N   UNL     1      -4.848  12.534  20.300  0.00  0.00    +0.000 NA
ATOM      8  C   UNL     1      -3.752  12.770  21.034  0.00  0.00    +0.000 A 
ATOM      9  C   UNL     1      -2.568  12.433  20.327  0.00  0.00    +0.000 A 
ATOM     10  C   UNL     1      -3.010  11.947  19.120  0.00  0.00    +0.000 A 
ENDROOT
BRANCH   8  11
ATOM     11  C   UNL     1      -3.837  13.315  22.419  0.00  0.00    +0.000 A 
ATOM     12  C   UNL     1      -3.751  12.582  23.589  0.00  0.00    +0.000 A 
ATOM     13  C   UNL     1      -3.849  13.486  24.675  0.00  0.00    +0.000 A 
ATOM     14  C   UNL     1      -4.009  14.745  24.145  0.00  0.00    +0.000 A 
ATOM     15  N   UNL     1      -4.013  14.635  22.776  0.00  0.00    +0.000 N 
ATOM     16  C   UNL     1      -4.211  15.751  21.876  0.00  0.00    +0.000 C 
ENDBRANCH   8  11
BRANCH   1  17
ATOM     17  C   UNL     1      -0.837  11.178  18.108  0.00  0.00    +0.000 C 
BRANCH  17  18
ATOM     18  C   UNL     1      -0.533   9.943  18.947  0.00  0.00    +0.000 C 
BRANCH  18  19
ATOM     19  C   UNL     1       0.918   9.886  19.438  0.00  0.00    +0.000 C 
BRANCH  19  21
ATOM     20  N   UNL     1       2.165   7.807  19.182  0.00  0.00    +0.000 N 
ATOM     21  C   UNL     1       1.738   8.953  18.558  0.00  0.00    +0.000 C 
ATOM     22  O   UNL     1       1.993   9.218  17.385  0.00  0.00    +0.000 OA
ATOM     23  H   UNL     1       1.945   7.636  20.154  0.00  0.00    +0.000 HD
BRANCH  20  24
ATOM     24  C   UNL     1       2.923   6.794  18.474  0.00  0.00    +0.000 C 
BRANCH  24  30
ATOM     25  C   UNL     1       1.746   3.170  21.783  0.00  0.00    +0.000 C 
ATOM     26  C   UNL     1       1.841   3.649  20.363  0.00  0.00    +0.000 A 
ATOM     27  C   UNL     1       1.417   2.838  19.305  0.00  0.00    +0.000 A 
ATOM     28  C   UNL     1       1.503   3.296  17.989  0.00  0.00    +0.000 A 
ATOM     29  C   UNL     1       2.008   4.568  17.722  0.00  0.00    +0.000 A 
ATOM     30  C   UNL     1       2.423   5.404  18.768  0.00  0.00    +0.000 A 
ATOM     31  C   UNL     1       2.347   4.927  20.086  0.00  0.00    +0.000 A 
ENDBRANCH  24  30
ENDBRANCH  20  24
ENDBRANCH  19  21
ENDBRANCH  18  19
ENDBRANCH  17  18
ENDBRANCH   1  17
TORSDOF 7
ENDMDL
MODEL 6
REMARK VINA RESULT:      -8.6      3.639      6.456
REMARK  Name = 
REMARK  9 active torsions:
REMARK  status: ('A' for Active; 'I' for Inactive)
REMARK    1  A    between atoms: C_1  and  C_2
REMARK    2  A    between atoms: C_6  and  C_7
REMARK    3  A    between atoms: C_7  and  N_8
REMARK    4  A    between atoms: C_9  and  C_11
REMARK    5  A    between atoms: C_11  and  C_12
REMARK    6  A    between atoms: C_12  and  C_13
REMARK    7  A    between atoms: C_13  and  N_14
REMARK    8  A    between atoms: C_21  and  C_22
REMARK    9  A    between atoms: N_26  and  C_27
REMARK                            x       y       z     vdW  Elec       q    Type
REMARK                         _______ _______ _______ _____ _____    ______ ____
ROOT
ATOM      1  N   UNL     1       1.923   7.558  19.939  0.00  0.00    +0.000 N 
ATOM      2  C   UNL     1       2.459   7.375  18.613  0.00  0.00    +0.000 C 
ATOM      3  O   UNL     1       2.930   6.281  18.330  0.00  0.00    +0.000 OA
ATOM      4  C   UNL     1       2.462   8.523  17.626  0.00  0.00    +0.000 C 
ATOM      5  C   UNL     1       1.712   9.787  18.012  0.00  0.00    +0.000 C 
ATOM      6  N   UNL     1       1.187   9.788  19.347  0.00  0.00    +0.000 N 
ATOM      7  N   UNL     1       0.480  10.823  19.805  0.00  0.00    +0.000 NA
ATOM      8  C   UNL     1       0.228  10.494  21.079  0.00  0.00    +0.000 A 
ATOM      9  C   UNL     1       0.756   9.215  21.401  0.00  0.00    +0.000 A 
ATOM     10  C   UNL     1       1.325   8.770  20.233  0.00  0.00    +0.000 A 
ENDROOT
BRANCH   8  11
ATOM     11  C   UNL     1      -0.525  11.402  21.991  0.00  0.00    +0.000 A 
ATOM     12  C   UNL     1      -1.538  11.029  22.855  0.00  0.00    +0.000 A 
ATOM     13  C   UNL     1      -1.958  12.186  23.555  0.00  0.00    +0.000 A 
ATOM     14  C   UNL     1      -1.205  13.239  23.091  0.00  0.00    +0.000 A 
ATOM     15  N   UNL     1      -0.345  12.760  22.134  0.00  0.00    +0.000 N 
ATOM     16  C   UNL     1       0.572  13.591  21.383  0.00  0.00    +0.000 C 
ENDBRANCH   8  11
BRANCH   1  17
ATOM     17  C   UNL     1       1.980   6.432  20.902  0.00  0.00    +0.000 C 
BRANCH  17  18
ATOM     18  C   UNL     1       1.307   5.206  20.299  0.00  0.00    +0.000 C 
BRANCH  18  19
ATOM     19  C   UNL     1       1.659   3.902  21.025  0.00  0.00    +0.000 C 
BRANCH  19  21
ATOM     20  N   UNL     1       2.819   3.394  18.943  0.00  0.00    +0.000 N 
ATOM     21  C   UNL     1       2.786   3.181  20.299  0.00  0.00    +0.000 C 
ATOM     22  O   UNL     1       3.591   2.465  20.890  0.00  0.00    +0.000 OA
ATOM     23  H   UNL     1       2.128   3.979  18.495  0.00  0.00    +0.000 HD
BRANCH  20  24
ATOM     24  C   UNL     1       3.853   2.813  18.109  0.00  0.00    +0.000 C 
BRANCH  24  30
ATOM     25  C   UNL     1       7.715   5.982  18.815  0.00  0.00    +0.000 C 
ATOM     26  C   UNL     1       6.680   5.380  17.908  0.00  0.00    +0.000 A 
ATOM     27  C   UNL     1       6.622   5.732  16.556  0.00  0.00    +0.000 A 
ATOM     28  C   UNL     1       5.661   5.161  15.720  0.00  0.00    +0.000 A 
ATOM     29  C   UNL     1       4.755   4.231  16.229  0.00  0.00    +0.000 A 
ATOM     30  C   UNL     1       4.805   3.852  17.578  0.00  0.00    +0.000 A 
ATOM     31  C   UNL     1       5.765   4.445  18.413  0.00  0.00    +0.000 A 
ENDBRANCH  24  30
ENDBRANCH  20  24
ENDBRANCH  19  21
ENDBRANCH  18  19
ENDBRANCH  17  18
ENDBRANCH   1  17
TORSDOF 7
ENDMDL
MODEL 7
REMARK VINA RESULT:      -8.5      1.166      1.660
REMARK  Name = 
REMARK  9 active torsions:
REMARK  status: ('A' for Active; 'I' for Inactive)
REMARK    1  A    between atoms: C_1  and  C_2
REMARK    2  A    between atoms: C_6  and  C_7
REMARK    3  A    between atoms: C_7  and  N_8
REMARK    4  A    between atoms: C_9  and  C_11
REMARK    5  A    between atoms: C_11  and  C_12
REMARK    6  A    between atoms: C_12  and  C_13
REMARK    7  A    between atoms: C_13  and  N_14
REMARK    8  A    between atoms: C_21  and  C_22
REMARK    9  A    between atoms: N_26  and  C_27
REMARK                            x       y       z     vdW  Elec       q    Type
REMARK                         _______ _______ _______ _____ _____    ______ ____
ROOT
ATOM      1  N   UNL     1       3.740   4.997  19.105  0.00  0.00    +0.000 N 
ATOM      2  C   UNL     1       3.597   3.593  19.401  0.00  0.00    +0.000 C 
ATOM      3  O   UNL     1       4.465   2.829  18.997  0.00  0.00    +0.000 OA
ATOM      4  C   UNL     1       2.385   3.093  20.157  0.00  0.00    +0.000 C 
ATOM      5  C   UNL     1       1.449   4.129  20.755  0.00  0.00    +0.000 C 
ATOM      6  N   UNL     1       1.762   5.487  20.414  0.00  0.00    +0.000 N 
ATOM      7  N   UNL     1       1.039   6.499  20.897  0.00  0.00    +0.000 NA
ATOM      8  C   UNL     1       1.581   7.579  20.315  0.00  0.00    +0.000 A 
ATOM      9  C   UNL     1       2.682   7.228  19.489  0.00  0.00    +0.000 A 
ATOM     10  C   UNL     1       2.798   5.866  19.624  0.00  0.00    +0.000 A 
ENDROOT
BRANCH   8  11
ATOM     11  C   UNL     1       1.048   8.950  20.554  0.00  0.00    +0.000 A 
ATOM     12  C   UNL     1       0.770   9.511  21.787  0.00  0.00    +0.000 A 
ATOM     13  C   UNL     1       0.313  10.834  21.569  0.00  0.00    +0.000 A 
ATOM     14  C   UNL     1       0.308  11.044  20.209  0.00  0.00    +0.000 A 
ATOM     15  N   UNL     1       0.743   9.894  19.597  0.00  0.00    +0.000 N 
ATOM     16  C   UNL     1       0.823   9.723  18.163  0.00  0.00    +0.000 C 
ENDBRANCH   8  11
BRANCH   1  17
ATOM     17  C   UNL     1       4.910   5.452  18.317  0.00  0.00    +0.000 C 
BRANCH  17  18
ATOM     18  C   UNL     1       6.140   5.512  19.213  0.00  0.00    +0.000 C 
BRANCH  18  19
ATOM     19  C   UNL     1       7.459   5.550  18.431  0.00  0.00    +0.000 C 
BRANCH  19  21
ATOM     20  N   UNL     1       8.047   7.901  18.170  0.00  0.00    +0.000 N 
ATOM     21  C   UNL     1       7.517   6.793  17.555  0.00  0.00    +0.000 C 
ATOM     22  O   UNL     1       7.116   6.794  16.393  0.00  0.00    +0.000 OA
ATOM     23  H   UNL     1       8.352   7.861  19.133  0.00  0.00    +0.000 HD
BRANCH  20  24
ATOM     24  C   UNL     1       8.211   9.156  17.464  0.00  0.00    +0.000 C 
BRANCH  24  30
ATOM     25  C   UNL     1       9.170  14.031  18.348  0.00  0.00    +0.000 C 
ATOM     26  C   UNL     1       9.217  12.597  18.795  0.00  0.00    +0.000 A 
ATOM     27  C   UNL     1       9.717  12.258  20.057  0.00  0.00    +0.000 A 
ATOM     28  C   UNL     1       9.749  10.923  20.464  0.00  0.00    +0.000 A 
ATOM     29  C   UNL     1       9.279   9.921  19.616  0.00  0.00    +0.000 A 
ATOM     30  C   UNL     1       8.760  10.240  18.354  0.00  0.00    +0.000 A 
ATOM     31  C   UNL     1       8.747  11.584  17.948  0.00  0.00    +0.000 A 
ENDBRANCH  24  30
ENDBRANCH  20  24
ENDBRANCH  19  21
ENDBRANCH  18  19
ENDBRANCH  17  18
ENDBRANCH   1  17
TORSDOF 7
ENDMDL
MODEL 8
REMARK VINA RESULT:      -8.5      3.458      5.520
REMARK  Name = 
REMARK  9 active torsions:
REMARK  status: ('A' for Active; 'I' for Inactive)
REMARK    1  A    between atoms: C_1  and  C_2
REMARK    2  A    between atoms: C_6  and  C_7
REMARK    3  A    between atoms: C_7  and  N_8
REMARK    4  A    between atoms: C_9  and  C_11
REMARK    5  A    between atoms: C_11  and  C_12
REMARK    6  A    between atoms: C_12  and  C_13
REMARK    7  A    between atoms: C_13  and  N_14
REMARK    8  A    between atoms: C_21  and  C_22
REMARK    9  A    between atoms: N_26  and  C_27
REMARK                            x       y       z     vdW  Elec       q    Type
REMARK                         _______ _______ _______ _____ _____    ______ ____
ROOT
ATOM      1  N   UNL     1       4.176   3.996  19.648  0.00  0.00    +0.000 N 
ATOM      2  C   UNL     1       4.028   2.720  20.303  0.00  0.00    +0.000 C 
ATOM      3  O   UNL     1       4.884   1.868  20.103  0.00  0.00    +0.000 OA
ATOM      4  C   UNL     1       2.825   2.448  21.181  0.00  0.00    +0.000 C 
ATOM      5  C   UNL     1       1.905   3.615  21.498  0.00  0.00    +0.000 C 
ATOM      6  N   UNL     1       2.222   4.833  20.809  0.00  0.00    +0.000 N 
ATOM      7  N   UNL     1       1.514   5.944  21.019  0.00  0.00    +0.000 NA
ATOM      8  C   UNL     1       2.054   6.827  20.168  0.00  0.00    +0.000 A 
ATOM      9  C   UNL     1       3.139   6.261  19.448  0.00  0.00    +0.000 A 
ATOM     10  C   UNL     1       3.248   4.981  19.933  0.00  0.00    +0.000 A 
ENDROOT
BRANCH   8  11
ATOM     11  C   UNL     1       1.534   8.219  20.047  0.00  0.00    +0.000 A 
ATOM     12  C   UNL     1       0.917   8.947  21.048  0.00  0.00    +0.000 A 
ATOM     13  C   UNL     1       0.608  10.227  20.526  0.00  0.00    +0.000 A 
ATOM     14  C   UNL     1       1.026  10.244  19.215  0.00  0.00    +0.000 A 
ATOM     15  N   UNL     1       1.577   9.020  18.926  0.00  0.00    +0.000 N 
ATOM     16  C   UNL     1       2.083   8.649  17.622  0.00  0.00    +0.000 C 
ENDBRANCH   8  11
BRANCH   1  17
ATOM     17  C   UNL     1       5.337   4.217  18.753  0.00  0.00    +0.000 C 
BRANCH  17  18
ATOM     18  C   UNL     1       6.329   5.159  19.422  0.00  0.00    +0.000 C 
BRANCH  18  19
ATOM     19  C   UNL     1       7.489   5.567  18.506  0.00  0.00    +0.000 C 
BRANCH  19  21
ATOM     20  N   UNL     1       6.082   5.279  16.537  0.00  0.00    +0.000 N 
ATOM     21  C   UNL     1       6.956   6.113  17.189  0.00  0.00    +0.000 C 
ATOM     22  O   UNL     1       7.292   7.212  16.753  0.00  0.00    +0.000 OA
ATOM     23  H   UNL     1       5.844   4.375  16.924  0.00  0.00    +0.000 HD
BRANCH  20  24
ATOM     24  C   UNL     1       5.451   5.664  15.290  0.00  0.00    +0.000 C 
BRANCH  24  30
ATOM     25  C   UNL     1       5.259   2.250  11.579  0.00  0.00    +0.000 C 
ATOM     26  C   UNL     1       5.994   3.346  12.297  0.00  0.00    +0.000 A 
ATOM     27  C   UNL     1       7.242   3.786  11.844  0.00  0.00    +0.000 A 
ATOM     28  C   UNL     1       7.913   4.810  12.515  0.00  0.00    +0.000 A 
ATOM     29  C   UNL     1       7.340   5.402  13.640  0.00  0.00    +0.000 A 
ATOM     30  C   UNL     1       6.084   4.987  14.102  0.00  0.00    +0.000 A 
ATOM     31  C   UNL     1       5.425   3.946  13.429  0.00  0.00    +0.000 A 
ENDBRANCH  24  30
ENDBRANCH  20  24
ENDBRANCH  19  21
ENDBRANCH  18  19
ENDBRANCH  17  18
ENDBRANCH   1  17
TORSDOF 7
ENDMDL
MODEL 9
REMARK VINA RESULT:      -8.5      4.238      6.443
REMARK  Name = 
REMARK  9 active torsions:
REMARK  status: ('A' for Active; 'I' for Inactive)
REMARK    1  A    between atoms: C_1  and  C_2
REMARK    2  A    between atoms: C_6  and  C_7
REMARK    3  A    between atoms: C_7  and  N_8
REMARK    4  A    between atoms: C_9  and  C_11
REMARK    5  A    between atoms: C_11  and  C_12
REMARK    6  A    between atoms: C_12  and  C_13
REMARK    7  A    between atoms: C_13  and  N_14
REMARK    8  A    between atoms: C_21  and  C_22
REMARK    9  A    between atoms: N_26  and  C_27
REMARK                            x       y       z     vdW  Elec       q    Type
REMARK                         _______ _______ _______ _____ _____    ______ ____
ROOT
ATOM      1  N   UNL     1       4.289   4.236  19.620  0.00  0.00    +0.000 N 
ATOM      2  C   UNL     1       3.988   2.917  20.118  0.00  0.00    +0.000 C 
ATOM      3  O   UNL     1       4.869   2.068  20.068  0.00  0.00    +0.000 OA
ATOM      4  C   UNL     1       2.607   2.601  20.652  0.00  0.00    +0.000 C 
ATOM      5  C   UNL     1       1.635   3.755  20.824  0.00  0.00    +0.000 C 
ATOM      6  N   UNL     1       2.109   5.016  20.329  0.00  0.00    +0.000 N 
ATOM      7  N   UNL     1       1.368   6.120  20.445  0.00  0.00    +0.000 NA
ATOM      8  C   UNL     1       2.099   7.055  19.822  0.00  0.00    +0.000 A 
ATOM      9  C   UNL     1       3.328   6.527  19.348  0.00  0.00    +0.000 A 
ATOM     10  C   UNL     1       3.317   5.212  19.744  0.00  0.00    +0.000 A 
ENDROOT
BRANCH   8  11
ATOM     11  C   UNL     1       1.621   8.461  19.685  0.00  0.00    +0.000 A 
ATOM     12  C   UNL     1       1.531   9.178  18.506  0.00  0.00    +0.000 A 
ATOM     13  C   UNL     1       1.004  10.456  18.814  0.00  0.00    +0.000 A 
ATOM     14  C   UNL     1       0.800  10.495  20.174  0.00  0.00    +0.000 A 
ATOM     15  N   UNL     1       1.187   9.287  20.699  0.00  0.00    +0.000 N 
ATOM     16  C   UNL     1       1.164   8.975  22.112  0.00  0.00    +0.000 C 
ENDBRANCH   8  11
BRANCH   1  17
ATOM     17  C   UNL     1       5.633   4.503  19.055  0.00  0.00    +0.000 C 
BRANCH  17  18
ATOM     18  C   UNL     1       5.500   4.967  17.610  0.00  0.00    +0.000 C 
BRANCH  18  19
ATOM     19  C   UNL     1       6.785   4.781  16.793  0.00  0.00    +0.000 C 
BRANCH  19  21
ATOM     20  N   UNL     1       7.501   4.706  14.465  0.00  0.00    +0.000 N 
ATOM     21  C   UNL     1       6.546   5.164  15.339  0.00  0.00    +0.000 C 
ATOM     22  O   UNL     1       5.576   5.833  14.990  0.00  0.00    +0.000 OA
ATOM     23  H   UNL     1       8.292   4.171  14.797  0.00  0.00    +0.000 HD
BRANCH  20  24
ATOM     24  C   UNL     1       7.403   4.949  13.039  0.00  0.00    +0.000 C 
BRANCH  24  30
ATOM     25  C   UNL     1       3.267   2.870  11.031  0.00  0.00    +0.000 C 
ATOM     26  C   UNL     1       4.737   2.804  11.331  0.00  0.00    +0.000 A 
ATOM     27  C   UNL     1       5.508   1.720  10.897  0.00  0.00    +0.000 A 
ATOM     28  C   UNL     1       6.874   1.673  11.175  0.00  0.00    +0.000 A 
ATOM     29  C   UNL     1       7.481   2.709  11.884  0.00  0.00    +0.000 A 
ATOM     30  C   UNL     1       6.731   3.812  12.315  0.00  0.00    +0.000 A 
ATOM     31  C   UNL     1       5.354   3.842  12.044  0.00  0.00    +0.000 A 
ENDBRANCH  24  30
ENDBRANCH  20  24
ENDBRANCH  19  21
ENDBRANCH  18  19
ENDBRANCH  17  18
ENDBRANCH   1  17
TORSDOF 7
ENDMDL
