MODEL 1
REMARK VINA RESULT:      -6.7      0.000      0.000
REMARK  Name = 
REMARK  6 active torsions:
REMARK  status: ('A' for Active; 'I' for Inactive)
REMARK    1  A    between atoms: C_1  and  O_2
REMARK    2  A    between atoms: O_2  and  C_3
REMARK    3  A    between atoms: C_3  and  C_5
REMARK    4  A    between atoms: C_11  and  N_12
REMARK    5  A    between atoms: C_15  and  N_16
REMARK    6  A    between atoms: N_16  and  C_17
REMARK                            x       y       z     vdW  Elec       q    Type
REMARK                         _______ _______ _______ _____ _____    ______ ____
ROOT
ATOM      1  N   UNL     1       0.420   9.753  19.233  0.00  0.00    +0.000 N 
ATOM      2  C   UNL     1       0.371   8.637  20.184  0.00  0.00    +0.000 C 
ATOM      3  C   UNL     1       1.797   8.128  20.381  0.00  0.00    +0.000 C 
ATOM      4  C   UNL     1       2.472   7.697  19.062  0.00  0.00    +0.000 C 
ATOM      5  C   UNL     1       2.305   8.833  18.020  0.00  0.00    +0.000 C 
ATOM      6  C   UNL     1       0.865   9.349  17.898  0.00  0.00    +0.000 C 
ENDROOT
BRANCH   1  13
ATOM      7  C   UNL     1      -0.739  11.526  20.490  0.00  0.00    +0.000 A 
ATOM      8  C   UNL     1      -1.936  12.248  20.663  0.00  0.00    +0.000 A 
ATOM      9  C   UNL     1      -2.922  12.187  19.692  0.00  0.00    +0.000 A 
ATOM     10 CL   UNL     1      -4.415  13.002  19.903  0.00  0.00    +0.000 Cl
ATOM     11  C   UNL     1      -2.676  11.428  18.568  0.00  0.00    +0.000 A 
ATOM     12  N   UNL     1      -1.551  10.693  18.396  0.00  0.00    +0.000 NA
ATOM     13  C   UNL     1      -0.594  10.698  19.361  0.00  0.00    +0.000 A 
BRANCH   7  14
ATOM     14  C   UNL     1       0.269  11.612  21.577  0.00  0.00    +0.000 C 
ATOM     15  O   UNL     1       1.457  11.830  21.456  0.00  0.00    +0.000 OA
BRANCH  14  17
ATOM     16  C   UNL     1      -0.486  10.063  23.176  0.00  0.00    +0.000 C 
ATOM     17  O   UNL     1      -0.381  11.427  22.761  0.00  0.00    +0.000 OA
ENDBRANCH  14  17
ENDBRANCH   7  14
ENDBRANCH   1  13
BRANCH   4  18
ATOM     18  N   UNL     1       1.994   6.350  18.657  0.00  0.00    +0.000 NA
ATOM     19  H   UNL     1       1.992   6.281  17.641  0.00  0.00    +0.000 HD
BRANCH  18  20
ATOM     20  C   UNL     1       2.758   5.222  19.224  0.00  0.00    +0.000 C 
ATOM     21  C   UNL     1       2.162   4.646  20.518  0.00  0.00    +0.000 C 
ATOM     22  C   UNL     1       0.890   3.838  20.286  0.00  0.00    +0.000 C 
ATOM     23  C   UNL     1       1.138   2.670  19.343  0.00  0.00    +0.000 C 
ATOM     24  C   UNL     1       1.832   3.071  18.046  0.00  0.00    +0.000 C 
ATOM     25  C   UNL     1       2.961   4.093  18.191  0.00  0.00    +0.000 C 
ENDBRANCH  18  20
ENDBRANCH   4  18
TORSDOF 5
ENDMDL
MODEL 2
REMARK VINA RESULT:      -6.4      4.060      7.882
REMARK  Name = 
REMARK  6 active torsions:
REMARK  status: ('A' for Active; 'I' for Inactive)
REMARK    1  A    between atoms: C_1  and  O_2
REMARK    2  A    between atoms: O_2  and  C_3
REMARK    3  A    between atoms: C_3  and  C_5
REMARK    4  A    between atoms: C_11  and  N_12
REMARK    5  A    between atoms: C_15  and  N_16
REMARK    6  A    between atoms: N_16  and  C_17
REMARK                            x       y       z     vdW  Elec       q    Type
REMARK                         _______ _______ _______ _____ _____    ______ ____
ROOT
ATOM      1  N   UNL     1       2.339   6.908  19.292  0.00  0.00    +0.000 N 
ATOM      2  C   UNL     1       1.758   7.470  18.068  0.00  0.00    +0.000 C 
ATOM      3  C   UNL     1       1.906   8.989  18.136  0.00  0.00    +0.000 C 
ATOM      4  C   UNL     1       1.252   9.604  19.390  0.00  0.00    +0.000 C 
ATOM      5  C   UNL     1       1.739   8.829  20.641  0.00  0.00    +0.000 C 
ATOM      6  C   UNL     1       1.621   7.305  20.503  0.00  0.00    +0.000 C 
ENDROOT
BRANCH   1  13
ATOM      7  C   UNL     1       3.943   5.274  18.383  0.00  0.00    +0.000 A 
ATOM      8  C   UNL     1       4.204   3.917  18.109  0.00  0.00    +0.000 A 
ATOM      9  C   UNL     1       3.412   2.935  18.680  0.00  0.00    +0.000 A 
ATOM     10 CL   UNL     1       3.663   1.280  18.314  0.00  0.00    +0.000 Cl
ATOM     11  C   UNL     1       2.399   3.334  19.525  0.00  0.00    +0.000 A 
ATOM     12  N   UNL     1       2.102   4.633  19.774  0.00  0.00    +0.000 NA
ATOM     13  C   UNL     1       2.835   5.612  19.182  0.00  0.00    +0.000 A 
BRANCH   7  14
ATOM     14  C   UNL     1       4.812   6.281  17.721  0.00  0.00    +0.000 C 
ATOM     15  O   UNL     1       4.530   6.972  16.764  0.00  0.00    +0.000 OA
BRANCH  14  17
ATOM     16  C   UNL     1       7.132   6.633  17.595  0.00  0.00    +0.000 C 
ATOM     17  O   UNL     1       5.994   6.318  18.400  0.00  0.00    +0.000 OA
ENDBRANCH  14  17
ENDBRANCH   7  14
ENDBRANCH   1  13
BRANCH   4  18
ATOM     18  N   UNL     1      -0.218   9.708  19.203  0.00  0.00    +0.000 NA
ATOM     19  H   UNL     1      -0.648  10.037  20.066  0.00  0.00    +0.000 HD
BRANCH  18  20
ATOM     20  C   UNL     1      -0.645  10.568  18.084  0.00  0.00    +0.000 C 
ATOM     21  C   UNL     1      -1.652   9.905  17.129  0.00  0.00    +0.000 C 
ATOM     22  C   UNL     1      -3.047   9.770  17.729  0.00  0.00    +0.000 C 
ATOM     23  C   UNL     1      -3.618  11.125  18.119  0.00  0.00    +0.000 C 
ATOM     24  C   UNL     1      -2.678  11.956  18.986  0.00  0.00    +0.000 C 
ATOM     25  C   UNL     1      -1.204  11.918  18.581  0.00  0.00    +0.000 C 
ENDBRANCH  18  20
ENDBRANCH   4  18
TORSDOF 5
ENDMDL
MODEL 3
REMARK VINA RESULT:      -6.4      5.314      8.766
REMARK  Name = 
REMARK  6 active torsions:
REMARK  status: ('A' for Active; 'I' for Inactive)
REMARK    1  A    between atoms: C_1  and  O_2
REMARK    2  A    between atoms: O_2  and  C_3
REMARK    3  A    between atoms: C_3  and  C_5
REMARK    4  A    between atoms: C_11  and  N_12
REMARK    5  A    between atoms: C_15  and  N_16
REMARK    6  A    between atoms: N_16  and  C_17
REMARK                            x       y       z     vdW  Elec       q    Type
REMARK                         _______ _______ _______ _____ _____    ______ ____
ROOT
ATOM      1  N   UNL     1       4.409   4.751  17.295  0.00  0.00    +0.000 N 
ATOM      2  C   UNL     1       4.545   6.093  17.873  0.00  0.00    +0.000 C 
ATOM      3  C   UNL     1       4.180   6.003  19.354  0.00  0.00    +0.000 C 
ATOM      4  C   UNL     1       2.763   5.442  19.593  0.00  0.00    +0.000 C 
ATOM      5  C   UNL     1       2.601   4.130  18.783  0.00  0.00    +0.000 C 
ATOM      6  C   UNL     1       3.032   4.255  17.316  0.00  0.00    +0.000 C 
ENDROOT
BRANCH   1  13
ATOM      7  C   UNL     1       6.607   4.711  16.183  0.00  0.00    +0.000 A 
ATOM      8  C   UNL     1       7.298   4.682  14.956  0.00  0.00    +0.000 A 
ATOM      9  C   UNL     1       6.618   4.370  13.791  0.00  0.00    +0.000 A 
ATOM     10 CL   UNL     1       7.417   4.390  12.275  0.00  0.00    +0.000 Cl
ATOM     11  C   UNL     1       5.276   4.071  13.887  0.00  0.00    +0.000 A 
ATOM     12  N   UNL     1       4.579   4.130  15.048  0.00  0.00    +0.000 NA
ATOM     13  C   UNL     1       5.217   4.487  16.194  0.00  0.00    +0.000 A 
BRANCH   7  14
ATOM     14  C   UNL     1       7.385   5.078  17.394  0.00  0.00    +0.000 C 
ATOM     15  O   UNL     1       7.619   4.373  18.353  0.00  0.00    +0.000 OA
BRANCH  14  17
ATOM     16  C   UNL     1       7.989   7.090  18.448  0.00  0.00    +0.000 C 
ATOM     17  O   UNL     1       7.825   6.359  17.231  0.00  0.00    +0.000 OA
ENDBRANCH  14  17
ENDBRANCH   7  14
ENDBRANCH   1  13
BRANCH   4  18
ATOM     18  N   UNL     1       1.746   6.498  19.356  0.00  0.00    +0.000 NA
ATOM     19  H   UNL     1       0.906   6.289  19.893  0.00  0.00    +0.000 HD
BRANCH  18  20
ATOM     20  C   UNL     1       2.192   7.871  19.660  0.00  0.00    +0.000 C 
ATOM     21  C   UNL     1       2.116   8.836  18.465  0.00  0.00    +0.000 C 
ATOM     22  C   UNL     1       0.690   9.238  18.108  0.00  0.00    +0.000 C 
ATOM     23  C   UNL     1      -0.007   9.914  19.280  0.00  0.00    +0.000 C 
ATOM     24  C   UNL     1       0.078   9.121  20.579  0.00  0.00    +0.000 C 
ATOM     25  C   UNL     1       1.432   8.466  20.864  0.00  0.00    +0.000 C 
ENDBRANCH  18  20
ENDBRANCH   4  18
TORSDOF 5
ENDMDL
MODEL 4
REMARK VINA RESULT:      -6.3      4.002      8.130
REMARK  Name = 
REMARK  6 active torsions:
REMARK  status: ('A' for Active; 'I' for Inactive)
REMARK    1  A    between atoms: C_1  and  O_2
REMARK    2  A    between atoms: O_2  and  C_3
REMARK    3  A    between atoms: C_3  and  C_5
REMARK    4  A    between atoms: C_11  and  N_12
REMARK    5  A    between atoms: C_15  and  N_16
REMARK    6  A    between atoms: N_16  and  C_17
REMARK                            x       y       z     vdW  Elec       q    Type
REMARK                         _______ _______ _______ _____ _____    ______ ____
ROOT
ATOM      1  N   UNL     1       0.243  11.276  19.671  0.00  0.00    +0.000 N 
ATOM      2  C   UNL     1       1.227  12.358  19.786  0.00  0.00    +0.000 C 
ATOM      3  C   UNL     1       0.631  13.438  20.686  0.00  0.00    +0.000 C 
ATOM      4  C   UNL     1      -0.720  13.975  20.170  0.00  0.00    +0.000 C 
ATOM      5  C   UNL     1      -1.651  12.775  19.859  0.00  0.00    +0.000 C 
ATOM      6  C   UNL     1      -0.989  11.691  18.998  0.00  0.00    +0.000 C 
ENDROOT
BRANCH   1  13
ATOM      7  C   UNL     1       1.155   9.122  20.444  0.00  0.00    +0.000 A 
ATOM      8  C   UNL     1       1.925   7.990  20.113  0.00  0.00    +0.000 A 
ATOM      9  C   UNL     1       2.232   7.730  18.788  0.00  0.00    +0.000 A 
ATOM     10 CL   UNL     1       3.221   6.397  18.359  0.00  0.00    +0.000 Cl
ATOM     11  C   UNL     1       1.743   8.593  17.831  0.00  0.00    +0.000 A 
ATOM     12  N   UNL     1       1.034   9.710  18.125  0.00  0.00    +0.000 NA
ATOM     13  C   UNL     1       0.767  10.011  19.423  0.00  0.00    +0.000 A 
BRANCH   7  14
ATOM     14  C   UNL     1       0.880   9.360  21.884  0.00  0.00    +0.000 C 
ATOM     15  O   UNL     1       1.697   9.522  22.767  0.00  0.00    +0.000 OA
BRANCH  14  17
ATOM     16  C   UNL     1      -0.933  10.353  23.003  0.00  0.00    +0.000 C 
ATOM     17  O   UNL     1      -0.473   9.395  22.047  0.00  0.00    +0.000 OA
ENDBRANCH  14  17
ENDBRANCH   7  14
ENDBRANCH   1  13
BRANCH   4  18
ATOM     18  N   UNL     1      -0.498  14.947  19.069  0.00  0.00    +0.000 NA
ATOM     19  H   UNL     1      -1.283  14.910  18.420  0.00  0.00    +0.000 HD
BRANCH  18  20
ATOM     20  C   UNL     1      -0.285  16.341  19.501  0.00  0.00    +0.000 C 
ATOM     21  C   UNL     1       1.193  16.766  19.545  0.00  0.00    +0.000 C 
ATOM     22  C   UNL     1       1.802  16.963  18.162  0.00  0.00    +0.000 C 
ATOM     23  C   UNL     1       1.050  18.023  17.370  0.00  0.00    +0.000 C 
ATOM     24  C   UNL     1      -0.457  17.796  17.327  0.00  0.00    +0.000 C 
ATOM     25  C   UNL     1      -1.091  17.337  18.641  0.00  0.00    +0.000 C 
ENDBRANCH  18  20
ENDBRANCH   4  18
TORSDOF 5
ENDMDL
MODEL 5
REMARK VINA RESULT:      -6.3      4.185      7.927
REMARK  Name = 
REMARK  6 active torsions:
REMARK  status: ('A' for Active; 'I' for Inactive)
REMARK    1  A    between atoms: C_1  and  O_2
REMARK    2  A    between atoms: O_2  and  C_3
REMARK    3  A    between atoms: C_3  and  C_5
REMARK    4  A    between atoms: C_11  and  N_12
REMARK    5  A    between atoms: C_15  and  N_16
REMARK    6  A    between atoms: N_16  and  C_17
REMARK                            x       y       z     vdW  Elec       q    Type
REMARK                         _______ _______ _______ _____ _____    ______ ____
ROOT
ATOM      1  N   UNL     1       2.461   7.610  18.337  0.00  0.00    +0.000 N 
ATOM      2  C   UNL     1       2.469   7.694  19.801  0.00  0.00    +0.000 C 
ATOM      3  C   UNL     1       1.053   8.043  20.257  0.00  0.00    +0.000 C 
ATOM      4  C   UNL     1       0.523   9.351  19.633  0.00  0.00    +0.000 C 
ATOM      5  C   UNL     1       0.737   9.296  18.099  0.00  0.00    +0.000 C 
ATOM      6  C   UNL     1       2.159   8.887  17.691  0.00  0.00    +0.000 C 
ENDROOT
BRANCH   1  13
ATOM      7  C   UNL     1       3.292   5.364  17.756  0.00  0.00    +0.000 A 
ATOM      8  C   UNL     1       4.416   4.580  17.429  0.00  0.00    +0.000 A 
ATOM      9  C   UNL     1       5.603   5.196  17.071  0.00  0.00    +0.000 A 
ATOM     10 CL   UNL     1       7.005   4.271  16.730  0.00  0.00    +0.000 Cl
ATOM     11  C   UNL     1       5.629   6.573  17.025  0.00  0.00    +0.000 A 
ATOM     12  N   UNL     1       4.574   7.351  17.373  0.00  0.00    +0.000 NA
ATOM     13  C   UNL     1       3.416   6.767  17.778  0.00  0.00    +0.000 A 
BRANCH   7  14
ATOM     14  C   UNL     1       2.055   4.647  18.158  0.00  0.00    +0.000 C 
ATOM     15  O   UNL     1       1.100   4.390  17.455  0.00  0.00    +0.000 OA
BRANCH  14  17
ATOM     16  C   UNL     1       0.953   4.071  20.152  0.00  0.00    +0.000 C 
ATOM     17  O   UNL     1       2.188   4.293  19.468  0.00  0.00    +0.000 OA
ENDBRANCH  14  17
ENDBRANCH   7  14
ENDBRANCH   1  13
BRANCH   4  18
ATOM     18  N   UNL     1       1.093  10.525  20.342  0.00  0.00    +0.000 NA
ATOM     19  H   UNL     1       1.742  11.012  19.725  0.00  0.00    +0.000 HD
BRANCH  18  20
ATOM     20  C   UNL     1       0.099  11.482  20.862  0.00  0.00    +0.000 C 
ATOM     21  C   UNL     1       0.642  12.906  21.063  0.00  0.00    +0.000 C 
ATOM     22  C   UNL     1       0.869  13.653  19.754  0.00  0.00    +0.000 C 
ATOM     23  C   UNL     1      -0.419  13.769  18.950  0.00  0.00    +0.000 C 
ATOM     24  C   UNL     1      -1.139  12.439  18.758  0.00  0.00    +0.000 C 
ATOM     25  C   UNL     1      -1.169  11.523  19.983  0.00  0.00    +0.000 C 
ENDBRANCH  18  20
ENDBRANCH   4  18
TORSDOF 5
ENDMDL
MODEL 6
REMARK VINA RESULT:      -6.3      0.698      1.344
REMARK  Name = 
REMARK  6 active torsions:
REMARK  status: ('A' for Active; 'I' for Inactive)
REMARK    1  A    between atoms: C_1  and  O_2
REMARK    2  A    between atoms: O_2  and  C_3
REMARK    3  A    between atoms: C_3  and  C_5
REMARK    4  A    between atoms: C_11  and  N_12
REMARK    5  A    between atoms: C_15  and  N_16
REMARK    6  A    between atoms: N_16  and  C_17
REMARK                            x       y       z     vdW  Elec       q    Type
REMARK                         _______ _______ _______ _____ _____    ______ ____
ROOT
ATOM      1  N   UNL     1       0.283   9.887  19.264  0.00  0.00    +0.000 N 
ATOM      2  C   UNL     1       0.230   8.740  20.177  0.00  0.00    +0.000 C 
ATOM      3  C   UNL     1       1.656   8.228  20.369  0.00  0.00    +0.000 C 
ATOM      4  C   UNL     1       2.343   7.845  19.041  0.00  0.00    +0.000 C 
ATOM      5  C   UNL     1       2.181   9.014  18.037  0.00  0.00    +0.000 C 
ATOM      6  C   UNL     1       0.740   9.530  17.921  0.00  0.00    +0.000 C 
ENDROOT
BRANCH   1  13
ATOM      7  C   UNL     1      -0.859  11.654  20.547  0.00  0.00    +0.000 A 
ATOM      8  C   UNL     1      -2.057  12.367  20.748  0.00  0.00    +0.000 A 
ATOM      9  C   UNL     1      -3.067  12.295  19.803  0.00  0.00    +0.000 A 
ATOM     10 CL   UNL     1      -4.560  13.099  20.049  0.00  0.00    +0.000 Cl
ATOM     11  C   UNL     1      -2.842  11.536  18.674  0.00  0.00    +0.000 A 
ATOM     12  N   UNL     1      -1.715  10.809  18.476  0.00  0.00    +0.000 NA
ATOM     13  C   UNL     1      -0.735  10.824  19.417  0.00  0.00    +0.000 A 
BRANCH   7  14
ATOM     14  C   UNL     1       0.176  11.750  21.608  0.00  0.00    +0.000 C 
ATOM     15  O   UNL     1       1.355  11.998  21.459  0.00  0.00    +0.000 OA
BRANCH  14  17
ATOM     16  C   UNL     1      -0.529  10.162  23.191  0.00  0.00    +0.000 C 
ATOM     17  O   UNL     1      -0.438  11.535  22.807  0.00  0.00    +0.000 OA
ENDBRANCH  14  17
ENDBRANCH   7  14
ENDBRANCH   1  13
BRANCH   4  18
ATOM     18  N   UNL     1       1.873   6.510  18.588  0.00  0.00    +0.000 NA
ATOM     19  H   UNL     1       1.983   6.436  17.578  0.00  0.00    +0.000 HD
BRANCH  18  20
ATOM     20  C   UNL     1       2.533   5.363  19.239  0.00  0.00    +0.000 C 
ATOM     21  C   UNL     1       2.008   3.993  18.780  0.00  0.00    +0.000 C 
ATOM     22  C   UNL     1       2.456   3.619  17.372  0.00  0.00    +0.000 C 
ATOM     23  C   UNL     1       3.973   3.582  17.262  0.00  0.00    +0.000 C 
ATOM     24  C   UNL     1       4.653   4.842  17.786  0.00  0.00    +0.000 C 
ATOM     25  C   UNL     1       4.067   5.418  19.076  0.00  0.00    +0.000 C 
ENDBRANCH  18  20
ENDBRANCH   4  18
TORSDOF 5
ENDMDL
MODEL 7
REMARK VINA RESULT:      -6.2      1.396      1.921
REMARK  Name = 
REMARK  6 active torsions:
REMARK  status: ('A' for Active; 'I' for Inactive)
REMARK    1  A    between atoms: C_1  and  O_2
REMARK    2  A    between atoms: O_2  and  C_3
REMARK    3  A    between atoms: C_3  and  C_5
REMARK    4  A    between atoms: C_11  and  N_12
REMARK    5  A    between atoms: C_15  and  N_16
REMARK    6  A    between atoms: N_16  and  C_17
REMARK                            x       y       z     vdW  Elec       q    Type
REMARK                         _______ _______ _______ _____ _____    ______ ____
ROOT
ATOM      1  N   UNL     1       0.674   9.986  19.223  0.00  0.00    +0.000 N 
ATOM      2  C   UNL     1       0.507   8.882  20.175  0.00  0.00    +0.000 C 
ATOM      3  C   UNL     1       1.858   8.186  20.326  0.00  0.00    +0.000 C 
ATOM      4  C   UNL     1       2.427   7.676  18.985  0.00  0.00    +0.000 C 
ATOM      5  C   UNL     1       2.381   8.829  17.950  0.00  0.00    +0.000 C 
ATOM      6  C   UNL     1       1.020   9.533  17.875  0.00  0.00    +0.000 C 
ENDROOT
BRANCH   1  13
ATOM      7  C   UNL     1       0.188  12.295  19.931  0.00  0.00    +0.000 A 
ATOM      8  C   UNL     1      -0.804  13.217  20.315  0.00  0.00    +0.000 A 
ATOM      9  C   UNL     1      -2.139  12.925  20.089  0.00  0.00    +0.000 A 
ATOM     10 CL   UNL     1      -3.373  13.998  20.603  0.00  0.00    +0.000 Cl
ATOM     11  C   UNL     1      -2.443  11.733  19.467  0.00  0.00    +0.000 A 
ATOM     12  N   UNL     1      -1.510  10.811  19.124  0.00  0.00    +0.000 NA
ATOM     13  C   UNL     1      -0.199  11.056  19.385  0.00  0.00    +0.000 A 
BRANCH   7  14
ATOM     14  C   UNL     1       1.600  12.654  20.222  0.00  0.00    +0.000 C 
ATOM     15  O   UNL     1       2.161  12.596  21.297  0.00  0.00    +0.000 OA
BRANCH  14  17
ATOM     16  C   UNL     1       3.185  14.047  19.188  0.00  0.00    +0.000 C 
ATOM     17  O   UNL     1       2.179  13.042  19.050  0.00  0.00    +0.000 OA
ENDBRANCH  14  17
ENDBRANCH   7  14
ENDBRANCH   1  13
BRANCH   4  18
ATOM     18  N   UNL     1       1.762   6.406  18.595  0.00  0.00    +0.000 NA
ATOM     19  H   UNL     1       1.434   6.476  17.633  0.00  0.00    +0.000 HD
BRANCH  18  20
ATOM     20  C   UNL     1       2.593   5.196  18.743  0.00  0.00    +0.000 C 
ATOM     21  C   UNL     1       2.832   4.772  20.202  0.00  0.00    +0.000 C 
ATOM     22  C   UNL     1       1.598   4.165  20.860  0.00  0.00    +0.000 C 
ATOM     23  C   UNL     1       1.114   2.935  20.105  0.00  0.00    +0.000 C 
ATOM     24  C   UNL     1       0.933   3.171  18.609  0.00  0.00    +0.000 C 
ATOM     25  C   UNL     1       2.023   4.009  17.938  0.00  0.00    +0.000 C 
ENDBRANCH  18  20
ENDBRANCH   4  18
TORSDOF 5
ENDMDL
MODEL 8
REMARK VINA RESULT:      -6.2      4.143      8.103
REMARK  Name = 
REMARK  6 active torsions:
REMARK  status: ('A' for Active; 'I' for Inactive)
REMARK    1  A    between atoms: C_1  and  O_2
REMARK    2  A    between atoms: O_2  and  C_3
REMARK    3  A    between atoms: C_3  and  C_5
REMARK    4  A    between atoms: C_11  and  N_12
REMARK    5  A    between atoms: C_15  and  N_16
REMARK    6  A    between atoms: N_16  and  C_17
REMARK                            x       y       z     vdW  Elec       q    Type
REMARK                         _______ _______ _______ _____ _____    ______ ____
ROOT
ATOM      1  N   UNL     1       2.544   6.480  19.347  0.00  0.00    +0.000 N 
ATOM      2  C   UNL     1       2.209   7.060  18.041  0.00  0.00    +0.000 C 
ATOM      3  C   UNL     1       2.434   8.569  18.129  0.00  0.00    +0.000 C 
ATOM      4  C   UNL     1       1.616   9.236  19.255  0.00  0.00    +0.000 C 
ATOM      5  C   UNL     1       1.840   8.449  20.571  0.00  0.00    +0.000 C 
ATOM      6  C   UNL     1       1.658   6.933  20.420  0.00  0.00    +0.000 C 
ENDROOT
BRANCH   1  13
ATOM      7  C   UNL     1       4.272   4.772  18.936  0.00  0.00    +0.000 A 
ATOM      8  C   UNL     1       4.536   3.414  18.675  0.00  0.00    +0.000 A 
ATOM      9  C   UNL     1       3.541   2.470  18.865  0.00  0.00    +0.000 A 
ATOM     10 CL   UNL     1       3.812   0.819  18.495  0.00  0.00    +0.000 Cl
ATOM     11  C   UNL     1       2.319   2.905  19.334  0.00  0.00    +0.000 A 
ATOM     12  N   UNL     1       2.027   4.210  19.555  0.00  0.00    +0.000 NA
ATOM     13  C   UNL     1       2.974   5.157  19.323  0.00  0.00    +0.000 A 
BRANCH   7  14
ATOM     14  C   UNL     1       5.371   5.739  18.689  0.00  0.00    +0.000 C 
ATOM     15  O   UNL     1       5.440   6.554  17.792  0.00  0.00    +0.000 OA
BRANCH  14  17
ATOM     16  C   UNL     1       7.653   5.748  19.253  0.00  0.00    +0.000 C 
ATOM     17  O   UNL     1       6.299   5.573  19.675  0.00  0.00    +0.000 OA
ENDBRANCH  14  17
ENDBRANCH   7  14
ENDBRANCH   1  13
BRANCH   4  18
ATOM     18  N   UNL     1       0.206   9.421  18.824  0.00  0.00    +0.000 NA
ATOM     19  H   UNL     1      -0.282   8.528  18.865  0.00  0.00    +0.000 HD
BRANCH  18  20
ATOM     20  C   UNL     1      -0.552  10.429  19.589  0.00  0.00    +0.000 C 
ATOM     21  C   UNL     1       0.278  11.654  20.009  0.00  0.00    +0.000 C 
ATOM     22  C   UNL     1       0.601  12.587  18.848  0.00  0.00    +0.000 C 
ATOM     23  C   UNL     1      -0.665  13.105  18.182  0.00  0.00    +0.000 C 
ATOM     24  C   UNL     1      -1.649  12.004  17.802  0.00  0.00    +0.000 C 
ATOM     25  C   UNL     1      -1.817  10.887  18.834  0.00  0.00    +0.000 C 
ENDBRANCH  18  20
ENDBRANCH   4  18
TORSDOF 5
ENDMDL
MODEL 9
REMARK VINA RESULT:      -6.1      0.820      1.253
REMARK  Name = 
REMARK  6 active torsions:
REMARK  status: ('A' for Active; 'I' for Inactive)
REMARK    1  A    between atoms: C_1  and  O_2
REMARK    2  A    between atoms: O_2  and  C_3
REMARK    3  A    between atoms: C_3  and  C_5
REMARK    4  A    between atoms: C_11  and  N_12
REMARK    5  A    between atoms: C_15  and  N_16
REMARK    6  A    between atoms: N_16  and  C_17
REMARK                            x       y       z     vdW  Elec       q    Type
REMARK                         _______ _______ _______ _____ _____    ______ ____
ROOT
ATOM      1  N   UNL     1       0.049  10.048  19.242  0.00  0.00    +0.000 N 
ATOM      2  C   UNL     1       0.013   8.951  20.215  0.00  0.00    +0.000 C 
ATOM      3  C   UNL     1       1.452   8.508  20.473  0.00  0.00    +0.000 C 
ATOM      4  C   UNL     1       2.190   8.079  19.187  0.00  0.00    +0.000 C 
ATOM      5  C   UNL     1       2.013   9.185  18.116  0.00  0.00    +0.000 C 
ATOM      6  C   UNL     1       0.558   9.637  17.933  0.00  0.00    +0.000 C 
ENDROOT
BRANCH   1  13
ATOM      7  C   UNL     1      -1.124  11.925  20.325  0.00  0.00    +0.000 A 
ATOM      8  C   UNL     1      -2.347  12.605  20.486  0.00  0.00    +0.000 A 
ATOM      9  C   UNL     1      -3.392  12.357  19.611  0.00  0.00    +0.000 A 
ATOM     10 CL   UNL     1      -4.912  13.121  19.819  0.00  0.00    +0.000 Cl
ATOM     11  C   UNL     1      -3.179  11.458  18.588  0.00  0.00    +0.000 A 
ATOM     12  N   UNL     1      -2.026  10.762  18.435  0.00  0.00    +0.000 NA
ATOM     13  C   UNL     1      -1.007  10.951  19.314  0.00  0.00    +0.000 A 
BRANCH   7  14
ATOM     14  C   UNL     1      -0.050  12.214  21.309  0.00  0.00    +0.000 C 
ATOM     15  O   UNL     1       0.158  11.634  22.355  0.00  0.00    +0.000 OA
BRANCH  14  17
ATOM     16  C   UNL     1       0.903  14.320  21.737  0.00  0.00    +0.000 C 
ATOM     17  O   UNL     1       0.696  13.245  20.818  0.00  0.00    +0.000 OA
ENDBRANCH  14  17
ENDBRANCH   7  14
ENDBRANCH   1  13
BRANCH   4  18
ATOM     18  N   UNL     1       1.784   6.705  18.797  0.00  0.00    +0.000 NA
ATOM     19  H   UNL     1       1.723   6.644  17.781  0.00  0.00    +0.000 HD
BRANCH  18  20
ATOM     20  C   UNL     1       2.660   5.630  19.299  0.00  0.00    +0.000 C 
ATOM     21  C   UNL     1       2.131   4.926  20.560  0.00  0.00    +0.000 C 
ATOM     22  C   UNL     1       0.946   4.008  20.282  0.00  0.00    +0.000 C 
ATOM     23  C   UNL     1       1.305   2.925  19.275  0.00  0.00    +0.000 C 
ATOM     24  C   UNL     1       1.949   3.465  18.003  0.00  0.00    +0.000 C 
ATOM     25  C   UNL     1       2.970   4.586  18.206  0.00  0.00    +0.000 C 
ENDBRANCH  18  20
ENDBRANCH   4  18
TORSDOF 5
ENDMDL
