MODEL 1
REMARK VINA RESULT:      -6.9      0.000      0.000
REMARK  Name = 
REMARK  5 active torsions:
REMARK  status: ('A' for Active; 'I' for Inactive)
REMARK    1  A    between atoms: N_5  and  C_6
REMARK    2  A    between atoms: C_9  and  C_10
REMARK    3  A    between atoms: C_9  and  C_12
REMARK    4  A    between atoms: C_10  and  O_11
REMARK    5  A    between atoms: C_12  and  O_13
REMARK                            x       y       z     vdW  Elec       q    Type
REMARK                         _______ _______ _______ _____ _____    ______ ____
ROOT
ATOM      1  N   UNL     1       7.835   5.507  14.254  0.00  0.00    +0.000 N 
ATOM      2  C   UNL     1       7.004   5.009  15.215  0.00  0.00    +0.000 A 
ATOM      3  C   UNL     1       5.668   4.505  14.848  0.00  0.00    +0.000 A 
ATOM      4  C   UNL     1       4.909   4.069  15.855  0.00  0.00    +0.000 A 
ATOM      5  N   UNL     1       5.363   4.072  17.161  0.00  0.00    +0.000 N 
ATOM      6  C   UNL     1       6.675   4.524  17.459  0.00  0.00    +0.000 A 
ATOM      7  O   UNL     1       7.159   4.506  18.584  0.00  0.00    +0.000 OA
ATOM      8  N   UNL     1       7.452   5.001  16.426  0.00  0.00    +0.000 NA
ATOM      9  H   UNL     1       7.774   5.121  13.322  0.00  0.00    +0.000 HD
ATOM     10  H   UNL     1       8.790   5.610  14.589  0.00  0.00    +0.000 HD
ENDROOT
BRANCH   5  11
ATOM     11  C   UNL     1       4.434   3.604  18.091  0.00  0.00    +0.000 C 
ATOM     12  C   UNL     1       3.198   4.034  18.279  0.00  0.00    +0.000 C 
ATOM     13  C   UNL     1       2.188   4.934  17.890  0.00  0.00    +0.000 C 
ATOM     14  C   UNL     1       2.002   3.885  19.046  0.00  0.00    +0.000 C 
BRANCH  14  15
ATOM     15  C   UNL     1       1.016   2.766  18.802  0.00  0.00    +0.000 C 
BRANCH  15  16
ATOM     16  O   UNL     1       1.612   1.478  18.925  0.00  0.00    +0.000 OA
ATOM     17  H   UNL     1       2.575   1.611  18.919  0.00  0.00    +0.000 HD
ENDBRANCH  15  16
ENDBRANCH  14  15
BRANCH  14  18
ATOM     18  C   UNL     1       1.964   4.430  20.452  0.00  0.00    +0.000 C 
BRANCH  18  19
ATOM     19  O   UNL     1       1.277   3.514  21.296  0.00  0.00    +0.000 OA
ATOM     20  H   UNL     1       1.310   3.885  22.196  0.00  0.00    +0.000 HD
ENDBRANCH  18  19
ENDBRANCH  14  18
ENDBRANCH   5  11
TORSDOF 5
ENDMDL
MODEL 2
REMARK VINA RESULT:      -6.6      1.091      1.118
REMARK  Name = 
REMARK  5 active torsions:
REMARK  status: ('A' for Active; 'I' for Inactive)
REMARK    1  A    between atoms: N_5  and  C_6
REMARK    2  A    between atoms: C_9  and  C_10
REMARK    3  A    between atoms: C_9  and  C_12
REMARK    4  A    between atoms: C_10  and  O_11
REMARK    5  A    between atoms: C_12  and  O_13
REMARK                            x       y       z     vdW  Elec       q    Type
REMARK                         _______ _______ _______ _____ _____    ______ ____
ROOT
ATOM      1  N   UNL     1       7.639   5.764  15.350  0.00  0.00    +0.000 N 
ATOM      2  C   UNL     1       6.799   5.148  16.232  0.00  0.00    +0.000 A 
ATOM      3  C   UNL     1       5.713   4.284  15.738  0.00  0.00    +0.000 A 
ATOM      4  C   UNL     1       4.919   3.750  16.668  0.00  0.00    +0.000 A 
ATOM      5  N   UNL     1       5.123   3.981  18.017  0.00  0.00    +0.000 N 
ATOM      6  C   UNL     1       6.212   4.783  18.446  0.00  0.00    +0.000 A 
ATOM      7  O   UNL     1       6.481   4.986  19.624  0.00  0.00    +0.000 OA
ATOM      8  N   UNL     1       7.017   5.359  17.488  0.00  0.00    +0.000 NA
ATOM      9  H   UNL     1       7.838   5.299  14.475  0.00  0.00    +0.000 HD
ATOM     10  H   UNL     1       8.466   6.141  15.807  0.00  0.00    +0.000 HD
ENDROOT
BRANCH   5  11
ATOM     11  C   UNL     1       4.188   3.365  18.851  0.00  0.00    +0.000 C 
ATOM     12  C   UNL     1       3.032   3.855  19.261  0.00  0.00    +0.000 C 
ATOM     13  C   UNL     1       2.131   4.937  19.237  0.00  0.00    +0.000 C 
ATOM     14  C   UNL     1       1.867   3.620  20.054  0.00  0.00    +0.000 C 
BRANCH  14  15
ATOM     15  C   UNL     1       0.731   2.741  19.586  0.00  0.00    +0.000 C 
BRANCH  15  16
ATOM     16  O   UNL     1       1.163   1.723  18.688  0.00  0.00    +0.000 OA
ATOM     17  H   UNL     1       0.593   1.781  17.903  0.00  0.00    +0.000 HD
ENDBRANCH  15  16
ENDBRANCH  14  15
BRANCH  14  18
ATOM     18  C   UNL     1       1.973   3.726  21.556  0.00  0.00    +0.000 C 
BRANCH  18  19
ATOM     19  O   UNL     1       2.651   2.583  22.064  0.00  0.00    +0.000 OA
ATOM     20  H   UNL     1       2.609   1.902  21.370  0.00  0.00    +0.000 HD
ENDBRANCH  18  19
ENDBRANCH  14  18
ENDBRANCH   5  11
TORSDOF 5
ENDMDL
MODEL 3
REMARK VINA RESULT:      -6.4      3.064      6.150
REMARK  Name = 
REMARK  5 active torsions:
REMARK  status: ('A' for Active; 'I' for Inactive)
REMARK    1  A    between atoms: N_5  and  C_6
REMARK    2  A    between atoms: C_9  and  C_10
REMARK    3  A    between atoms: C_9  and  C_12
REMARK    4  A    between atoms: C_10  and  O_11
REMARK    5  A    between atoms: C_12  and  O_13
REMARK                            x       y       z     vdW  Elec       q    Type
REMARK                         _______ _______ _______ _____ _____    ______ ____
ROOT
ATOM      1  N   UNL     1       0.990   2.480  22.404  0.00  0.00    +0.000 N 
ATOM      2  C   UNL     1       1.736   2.933  21.355  0.00  0.00    +0.000 A 
ATOM      3  C   UNL     1       1.196   3.971  20.459  0.00  0.00    +0.000 A 
ATOM      4  C   UNL     1       1.978   4.330  19.439  0.00  0.00    +0.000 A 
ATOM      5  N   UNL     1       3.230   3.772  19.251  0.00  0.00    +0.000 N 
ATOM      6  C   UNL     1       3.725   2.809  20.168  0.00  0.00    +0.000 A 
ATOM      7  O   UNL     1       4.842   2.313  20.092  0.00  0.00    +0.000 OA
ATOM      8  N   UNL     1       2.910   2.415  21.207  0.00  0.00    +0.000 NA
ATOM      9  H   UNL     1       0.347   3.123  22.846  0.00  0.00    +0.000 HD
ATOM     10  H   UNL     1       1.546   1.943  23.066  0.00  0.00    +0.000 HD
ENDROOT
BRANCH   5  11
ATOM     11  C   UNL     1       3.904   4.244  18.124  0.00  0.00    +0.000 C 
ATOM     12  C   UNL     1       5.074   4.858  18.086  0.00  0.00    +0.000 C 
ATOM     13  C   UNL     1       6.172   5.355  18.813  0.00  0.00    +0.000 C 
ATOM     14  C   UNL     1       6.054   5.474  17.251  0.00  0.00    +0.000 C 
BRANCH  14  15
ATOM     15  C   UNL     1       7.037   4.675  16.428  0.00  0.00    +0.000 C 
BRANCH  15  16
ATOM     16  O   UNL     1       7.658   5.455  15.410  0.00  0.00    +0.000 OA
ATOM     17  H   UNL     1       7.331   5.118  14.559  0.00  0.00    +0.000 HD
ENDBRANCH  15  16
ENDBRANCH  14  15
BRANCH  14  18
ATOM     18  C   UNL     1       5.780   6.852  16.698  0.00  0.00    +0.000 C 
BRANCH  18  19
ATOM     19  O   UNL     1       5.184   6.736  15.412  0.00  0.00    +0.000 OA
ATOM     20  H   UNL     1       5.768   6.163  14.885  0.00  0.00    +0.000 HD
ENDBRANCH  18  19
ENDBRANCH  14  18
ENDBRANCH   5  11
TORSDOF 5
ENDMDL
MODEL 4
REMARK VINA RESULT:      -6.4      2.024      2.087
REMARK  Name = 
REMARK  5 active torsions:
REMARK  status: ('A' for Active; 'I' for Inactive)
REMARK    1  A    between atoms: N_5  and  C_6
REMARK    2  A    between atoms: C_9  and  C_10
REMARK    3  A    between atoms: C_9  and  C_12
REMARK    4  A    between atoms: C_10  and  O_11
REMARK    5  A    between atoms: C_12  and  O_13
REMARK                            x       y       z     vdW  Elec       q    Type
REMARK                         _______ _______ _______ _____ _____    ______ ____
ROOT
ATOM      1  N   UNL     1       7.784   8.031  16.914  0.00  0.00    +0.000 N 
ATOM      2  C   UNL     1       7.004   7.064  17.478  0.00  0.00    +0.000 A 
ATOM      3  C   UNL     1       5.745   6.658  16.828  0.00  0.00    +0.000 A 
ATOM      4  C   UNL     1       5.028   5.731  17.466  0.00  0.00    +0.000 A 
ATOM      5  N   UNL     1       5.457   5.172  18.656  0.00  0.00    +0.000 N 
ATOM      6  C   UNL     1       6.700   5.561  19.219  0.00  0.00    +0.000 A 
ATOM      7  O   UNL     1       7.165   5.070  20.240  0.00  0.00    +0.000 OA
ATOM      8  N   UNL     1       7.431   6.538  18.578  0.00  0.00    +0.000 NA
ATOM      9  H   UNL     1       7.785   8.118  15.907  0.00  0.00    +0.000 HD
ATOM     10  H   UNL     1       8.715   8.061  17.325  0.00  0.00    +0.000 HD
ENDROOT
BRANCH   5  11
ATOM     11  C   UNL     1       4.577   4.235  19.199  0.00  0.00    +0.000 C 
ATOM     12  C   UNL     1       3.328   4.435  19.583  0.00  0.00    +0.000 C 
ATOM     13  C   UNL     1       2.267   5.349  19.725  0.00  0.00    +0.000 C 
ATOM     14  C   UNL     1       2.162   3.841  20.155  0.00  0.00    +0.000 C 
BRANCH  14  15
ATOM     15  C   UNL     1       1.223   2.966  19.358  0.00  0.00    +0.000 C 
BRANCH  15  16
ATOM     16  O   UNL     1       1.750   1.661  19.134  0.00  0.00    +0.000 OA
ATOM     17  H   UNL     1       1.198   1.044  19.643  0.00  0.00    +0.000 HD
ENDBRANCH  15  16
ENDBRANCH  14  15
BRANCH  14  18
ATOM     18  C   UNL     1       2.136   3.563  21.638  0.00  0.00    +0.000 C 
BRANCH  18  19
ATOM     19  O   UNL     1       2.908   2.401  21.915  0.00  0.00    +0.000 OA
ATOM     20  H   UNL     1       2.282   1.712  22.202  0.00  0.00    +0.000 HD
ENDBRANCH  18  19
ENDBRANCH  14  18
ENDBRANCH   5  11
TORSDOF 5
ENDMDL
MODEL 5
REMARK VINA RESULT:      -6.4      2.700      5.951
REMARK  Name = 
REMARK  5 active torsions:
REMARK  status: ('A' for Active; 'I' for Inactive)
REMARK    1  A    between atoms: N_5  and  C_6
REMARK    2  A    between atoms: C_9  and  C_10
REMARK    3  A    between atoms: C_9  and  C_12
REMARK    4  A    between atoms: C_10  and  O_11
REMARK    5  A    between atoms: C_12  and  O_13
REMARK                            x       y       z     vdW  Elec       q    Type
REMARK                         _______ _______ _______ _____ _____    ______ ____
ROOT
ATOM      1  N   UNL     1       0.708   2.877  21.077  0.00  0.00    +0.000 N 
ATOM      2  C   UNL     1       1.704   2.963  20.148  0.00  0.00    +0.000 A 
ATOM      3  C   UNL     1       1.387   3.329  18.756  0.00  0.00    +0.000 A 
ATOM      4  C   UNL     1       2.416   3.356  17.908  0.00  0.00    +0.000 A 
ATOM      5  N   UNL     1       3.706   3.077  18.321  0.00  0.00    +0.000 N 
ATOM      6  C   UNL     1       3.968   2.775  19.683  0.00  0.00    +0.000 A 
ATOM      7  O   UNL     1       5.091   2.570  20.127  0.00  0.00    +0.000 OA
ATOM      8  N   UNL     1       2.905   2.719  20.557  0.00  0.00    +0.000 NA
ATOM      9  H   UNL     1      -0.095   3.483  20.975  0.00  0.00    +0.000 HD
ATOM     10  H   UNL     1       1.071   2.840  22.027  0.00  0.00    +0.000 HD
ENDROOT
BRANCH   5  11
ATOM     11  C   UNL     1       4.658   3.128  17.302  0.00  0.00    +0.000 C 
ATOM     12  C   UNL     1       5.042   4.189  16.614  0.00  0.00    +0.000 C 
ATOM     13  C   UNL     1       4.897   5.573  16.396  0.00  0.00    +0.000 C 
ATOM     14  C   UNL     1       5.887   4.674  15.570  0.00  0.00    +0.000 C 
BRANCH  14  15
ATOM     15  C   UNL     1       7.364   4.920  15.770  0.00  0.00    +0.000 C 
BRANCH  15  16
ATOM     16  O   UNL     1       7.909   4.136  16.828  0.00  0.00    +0.000 OA
ATOM     17  H   UNL     1       8.018   3.234  16.482  0.00  0.00    +0.000 HD
ENDBRANCH  15  16
ENDBRANCH  14  15
BRANCH  14  18
ATOM     18  C   UNL     1       5.509   4.396  14.136  0.00  0.00    +0.000 C 
BRANCH  18  19
ATOM     19  O   UNL     1       6.267   3.295  13.651  0.00  0.00    +0.000 OA
ATOM     20  H   UNL     1       6.601   2.820  14.432  0.00  0.00    +0.000 HD
ENDBRANCH  18  19
ENDBRANCH  14  18
ENDBRANCH   5  11
TORSDOF 5
ENDMDL
MODEL 6
REMARK VINA RESULT:      -6.4      3.014      6.085
REMARK  Name = 
REMARK  5 active torsions:
REMARK  status: ('A' for Active; 'I' for Inactive)
REMARK    1  A    between atoms: N_5  and  C_6
REMARK    2  A    between atoms: C_9  and  C_10
REMARK    3  A    between atoms: C_9  and  C_12
REMARK    4  A    between atoms: C_10  and  O_11
REMARK    5  A    between atoms: C_12  and  O_13
REMARK                            x       y       z     vdW  Elec       q    Type
REMARK                         _______ _______ _______ _____ _____    ______ ____
ROOT
ATOM      1  N   UNL     1       1.187   2.534  22.316  0.00  0.00    +0.000 N 
ATOM      2  C   UNL     1       2.147   3.034  21.484  0.00  0.00    +0.000 A 
ATOM      3  C   UNL     1       2.021   4.401  20.949  0.00  0.00    +0.000 A 
ATOM      4  C   UNL     1       2.986   4.796  20.116  0.00  0.00    +0.000 A 
ATOM      5  N   UNL     1       4.050   3.973  19.794  0.00  0.00    +0.000 N 
ATOM      6  C   UNL     1       4.151   2.681  20.372  0.00  0.00    +0.000 A 
ATOM      7  O   UNL     1       5.091   1.921  20.172  0.00  0.00    +0.000 OA
ATOM      8  N   UNL     1       3.143   2.258  21.210  0.00  0.00    +0.000 NA
ATOM      9  H   UNL     1       0.697   3.178  22.922  0.00  0.00    +0.000 HD
ATOM     10  H   UNL     1       1.493   1.686  22.788  0.00  0.00    +0.000 HD
ENDROOT
BRANCH   5  11
ATOM     11  C   UNL     1       4.955   4.534  18.892  0.00  0.00    +0.000 C 
ATOM     12  C   UNL     1       4.898   4.503  17.572  0.00  0.00    +0.000 C 
ATOM     13  C   UNL     1       4.197   4.074  16.429  0.00  0.00    +0.000 C 
ATOM     14  C   UNL     1       5.540   4.887  16.356  0.00  0.00    +0.000 C 
BRANCH  14  15
ATOM     15  C   UNL     1       5.461   6.291  15.804  0.00  0.00    +0.000 C 
BRANCH  15  16
ATOM     16  O   UNL     1       6.435   7.159  16.377  0.00  0.00    +0.000 OA
ATOM     17  H   UNL     1       7.172   6.598  16.672  0.00  0.00    +0.000 HD
ENDBRANCH  15  16
ENDBRANCH  14  15
BRANCH  14  18
ATOM     18  C   UNL     1       6.764   4.127  15.906  0.00  0.00    +0.000 C 
BRANCH  18  19
ATOM     19  O   UNL     1       7.869   4.479  16.729  0.00  0.00    +0.000 OA
ATOM     20  H   UNL     1       8.656   4.065  16.333  0.00  0.00    +0.000 HD
ENDBRANCH  18  19
ENDBRANCH  14  18
ENDBRANCH   5  11
TORSDOF 5
ENDMDL
MODEL 7
REMARK VINA RESULT:      -6.3      2.762      6.189
REMARK  Name = 
REMARK  5 active torsions:
REMARK  status: ('A' for Active; 'I' for Inactive)
REMARK    1  A    between atoms: N_5  and  C_6
REMARK    2  A    between atoms: C_9  and  C_10
REMARK    3  A    between atoms: C_9  and  C_12
REMARK    4  A    between atoms: C_10  and  O_11
REMARK    5  A    between atoms: C_12  and  O_13
REMARK                            x       y       z     vdW  Elec       q    Type
REMARK                         _______ _______ _______ _____ _____    ______ ____
ROOT
ATOM      1  N   UNL     1       0.780   2.818  21.470  0.00  0.00    +0.000 N 
ATOM      2  C   UNL     1       1.713   2.896  20.478  0.00  0.00    +0.000 A 
ATOM      3  C   UNL     1       3.134   2.646  20.778  0.00  0.00    +0.000 A 
ATOM      4  C   UNL     1       3.982   2.778  19.756  0.00  0.00    +0.000 A 
ATOM      5  N   UNL     1       3.544   3.110  18.487  0.00  0.00    +0.000 N 
ATOM      6  C   UNL     1       2.160   3.296  18.237  0.00  0.00    +0.000 A 
ATOM      7  O   UNL     1       1.698   3.540  17.129  0.00  0.00    +0.000 OA
ATOM      8  N   UNL     1       1.284   3.188  19.295  0.00  0.00    +0.000 NA
ATOM      9  H   UNL     1       0.940   2.167  22.227  0.00  0.00    +0.000 HD
ATOM     10  H   UNL     1      -0.169   2.788  21.103  0.00  0.00    +0.000 HD
ENDROOT
BRANCH   5  11
ATOM     11  C   UNL     1       4.564   3.230  17.542  0.00  0.00    +0.000 C 
ATOM     12  C   UNL     1       4.917   4.313  16.873  0.00  0.00    +0.000 C 
ATOM     13  C   UNL     1       4.684   5.680  16.629  0.00  0.00    +0.000 C 
ATOM     14  C   UNL     1       5.800   4.856  15.891  0.00  0.00    +0.000 C 
BRANCH  14  15
ATOM     15  C   UNL     1       7.234   5.218  16.201  0.00  0.00    +0.000 C 
BRANCH  15  16
ATOM     16  O   UNL     1       7.958   4.135  16.777  0.00  0.00    +0.000 OA
ATOM     17  H   UNL     1       7.740   3.343  16.257  0.00  0.00    +0.000 HD
ENDBRANCH  15  16
ENDBRANCH  14  15
BRANCH  14  18
ATOM     18  C   UNL     1       5.556   4.542  14.436  0.00  0.00    +0.000 C 
BRANCH  18  19
ATOM     19  O   UNL     1       6.346   3.422  14.054  0.00  0.00    +0.000 OA
ATOM     20  H   UNL     1       7.263   3.630  14.304  0.00  0.00    +0.000 HD
ENDBRANCH  18  19
ENDBRANCH  14  18
ENDBRANCH   5  11
TORSDOF 5
ENDMDL
MODEL 8
REMARK VINA RESULT:      -6.3      1.430      1.648
REMARK  Name = 
REMARK  5 active torsions:
REMARK  status: ('A' for Active; 'I' for Inactive)
REMARK    1  A    between atoms: N_5  and  C_6
REMARK    2  A    between atoms: C_9  and  C_10
REMARK    3  A    between atoms: C_9  and  C_12
REMARK    4  A    between atoms: C_10  and  O_11
REMARK    5  A    between atoms: C_12  and  O_13
REMARK                            x       y       z     vdW  Elec       q    Type
REMARK                         _______ _______ _______ _____ _____    ______ ____
ROOT
ATOM      1  N   UNL     1       7.735   5.258  13.990  0.00  0.00    +0.000 N 
ATOM      2  C   UNL     1       7.008   5.026  15.121  0.00  0.00    +0.000 A 
ATOM      3  C   UNL     1       5.537   4.963  15.054  0.00  0.00    +0.000 A 
ATOM      4  C   UNL     1       4.905   4.767  16.213  0.00  0.00    +0.000 A 
ATOM      5  N   UNL     1       5.597   4.611  17.401  0.00  0.00    +0.000 N 
ATOM      6  C   UNL     1       7.016   4.633  17.407  0.00  0.00    +0.000 A 
ATOM      7  O   UNL     1       7.692   4.450  18.412  0.00  0.00    +0.000 OA
ATOM      8  N   UNL     1       7.672   4.863  16.217  0.00  0.00    +0.000 NA
ATOM      9  H   UNL     1       7.369   4.923  13.109  0.00  0.00    +0.000 HD
ATOM     10  H   UNL     1       8.724   5.057  14.121  0.00  0.00    +0.000 HD
ENDROOT
BRANCH   5  11
ATOM     11  C   UNL     1       4.782   4.437  18.520  0.00  0.00    +0.000 C 
ATOM     12  C   UNL     1       3.964   3.429  18.770  0.00  0.00    +0.000 C 
ATOM     13  C   UNL     1       3.432   2.202  18.331  0.00  0.00    +0.000 C 
ATOM     14  C   UNL     1       3.013   2.883  19.684  0.00  0.00    +0.000 C 
BRANCH  14  15
ATOM     15  C   UNL     1       3.422   2.181  20.958  0.00  0.00    +0.000 C 
BRANCH  15  16
ATOM     16  O   UNL     1       4.829   1.974  21.039  0.00  0.00    +0.000 OA
ATOM     17  H   UNL     1       5.035   1.216  20.467  0.00  0.00    +0.000 HD
ENDBRANCH  15  16
ENDBRANCH  14  15
BRANCH  14  18
ATOM     18  C   UNL     1       1.627   3.478  19.739  0.00  0.00    +0.000 C 
BRANCH  18  19
ATOM     19  O   UNL     1       1.034   3.181  20.997  0.00  0.00    +0.000 OA
ATOM     20  H   UNL     1       0.785   2.240  20.973  0.00  0.00    +0.000 HD
ENDBRANCH  18  19
ENDBRANCH  14  18
ENDBRANCH   5  11
TORSDOF 5
ENDMDL
MODEL 9
REMARK VINA RESULT:      -6.2      1.500      2.206
REMARK  Name = 
REMARK  5 active torsions:
REMARK  status: ('A' for Active; 'I' for Inactive)
REMARK    1  A    between atoms: N_5  and  C_6
REMARK    2  A    between atoms: C_9  and  C_10
REMARK    3  A    between atoms: C_9  and  C_12
REMARK    4  A    between atoms: C_10  and  O_11
REMARK    5  A    between atoms: C_12  and  O_13
REMARK                            x       y       z     vdW  Elec       q    Type
REMARK                         _______ _______ _______ _____ _____    ______ ____
ROOT
ATOM      1  N   UNL     1       7.658   5.427  14.360  0.00  0.00    +0.000 N 
ATOM      2  C   UNL     1       6.624   5.221  15.228  0.00  0.00    +0.000 A 
ATOM      3  C   UNL     1       6.058   3.871  15.395  0.00  0.00    +0.000 A 
ATOM      4  C   UNL     1       5.028   3.767  16.237  0.00  0.00    +0.000 A 
ATOM      5  N   UNL     1       4.539   4.862  16.925  0.00  0.00    +0.000 N 
ATOM      6  C   UNL     1       5.148   6.134  16.766  0.00  0.00    +0.000 A 
ATOM      7  O   UNL     1       4.800   7.134  17.382  0.00  0.00    +0.000 OA
ATOM      8  N   UNL     1       6.194   6.252  15.877  0.00  0.00    +0.000 NA
ATOM      9  H   UNL     1       8.317   4.675  14.215  0.00  0.00    +0.000 HD
ATOM     10  H   UNL     1       8.100   6.333  14.499  0.00  0.00    +0.000 HD
ENDROOT
BRANCH   5  11
ATOM     11  C   UNL     1       3.445   4.581  17.746  0.00  0.00    +0.000 C 
ATOM     12  C   UNL     1       3.409   3.764  18.784  0.00  0.00    +0.000 C 
ATOM     13  C   UNL     1       4.114   2.864  19.605  0.00  0.00    +0.000 C 
ATOM     14  C   UNL     1       2.593   3.202  19.813  0.00  0.00    +0.000 C 
BRANCH  14  15
ATOM     15  C   UNL     1       2.227   3.964  21.065  0.00  0.00    +0.000 C 
BRANCH  15  16
ATOM     16  O   UNL     1       1.987   3.105  22.176  0.00  0.00    +0.000 OA
ATOM     17  H   UNL     1       1.026   2.958  22.215  0.00  0.00    +0.000 HD
ENDBRANCH  15  16
ENDBRANCH  14  15
BRANCH  14  18
ATOM     18  C   UNL     1       1.606   2.119  19.452  0.00  0.00    +0.000 C 
BRANCH  18  19
ATOM     19  O   UNL     1       0.806   2.553  18.359  0.00  0.00    +0.000 OA
ATOM     20  H   UNL     1       1.184   2.147  17.559  0.00  0.00    +0.000 HD
ENDBRANCH  18  19
ENDBRANCH  14  18
ENDBRANCH   5  11
TORSDOF 5
ENDMDL
