MODEL 1
REMARK VINA RESULT:      -6.9      0.000      0.000
REMARK  Name = 
REMARK  13 active torsions:
REMARK  status: ('A' for Active; 'I' for Inactive)
REMARK    1  A    between atoms: C_1  and  C_2
REMARK    2  A    between atoms: C_2  and  C_3
REMARK    3  A    between atoms: C_2  and  C_4
REMARK    4  A    between atoms: C_4  and  C_5
REMARK    5  A    between atoms: C_5  and  C_6
REMARK    6  A    between atoms: C_6  and  O_7
REMARK    7  A    between atoms: C_8  and  O_9
REMARK    8  A    between atoms: C_10  and  C_11
REMARK    9  A    between atoms: C_10  and  C_12
REMARK   10  A    between atoms: C_13  and  O_14
REMARK   11  A    between atoms: C_15  and  C_16
REMARK   12  A    between atoms: C_15  and  C_17
REMARK   13  A    between atoms: C_18  and  O_19
REMARK                            x       y       z     vdW  Elec       q    Type
REMARK                         _______ _______ _______ _____ _____    ______ ____
ROOT
ATOM      1  C   UNL     1       4.607   4.012  18.503  0.00  0.00    +0.000 C 
ATOM      2  C   UNL     1       4.081   5.464  18.743  0.00  0.00    +0.000 C 
ATOM      3  C   UNL     1       2.566   5.658  19.040  0.00  0.00    +0.000 C 
ATOM      4  C   UNL     1       1.626   5.507  17.827  0.00  0.00    +0.000 C 
ATOM      5  C   UNL     1       2.385   7.138  19.500  0.00  0.00    +0.000 C 
ATOM      6  C   UNL     1       2.137   4.684  20.180  0.00  0.00    +0.000 C 
ATOM      7  C   UNL     1       2.590   3.188  20.041  0.00  0.00    +0.000 C 
ATOM      8  C   UNL     1       1.743   2.393  19.028  0.00  0.00    +0.000 C 
ATOM      9  C   UNL     1       2.339   2.461  21.397  0.00  0.00    +0.000 C 
ATOM     10  C   UNL     1       4.113   3.112  19.703  0.00  0.00    +0.000 C 
ENDROOT
BRANCH   1  11
ATOM     11  O   UNL     1       6.053   4.099  18.666  0.00  0.00    +0.000 OA
ATOM     12  H   UNL     1       6.206   4.683  19.437  0.00  0.00    +0.000 HD
ENDBRANCH   1  11
BRANCH   2  13
ATOM     13  O   UNL     1       4.599   6.369  17.762  0.00  0.00    +0.000 OA
ATOM     14  H   UNL     1       5.151   5.884  17.128  0.00  0.00    +0.000 HD
ENDBRANCH   2  13
BRANCH   6  15
ATOM     15  O   UNL     1       2.599   5.211  21.436  0.00  0.00    +0.000 OA
ATOM     16  H   UNL     1       2.460   6.173  21.471  0.00  0.00    +0.000 HD
ENDBRANCH   6  15
BRANCH  10  17
ATOM     17  O   UNL     1       4.541   1.757  19.619  0.00  0.00    +0.000 OA
ATOM     18  H   UNL     1       3.838   1.177  19.931  0.00  0.00    +0.000 HD
ENDBRANCH  10  17
BRANCH   1  19
ATOM     19  C   UNL     1       4.437   3.401  17.072  0.00  0.00    +0.000 C 
BRANCH  19  20
ATOM     20  C   UNL     1       5.706   3.393  16.194  0.00  0.00    +0.000 C 
BRANCH  20  22
ATOM     21  C   UNL     1       7.009   5.352  15.377  0.00  0.00    +0.000 C 
ATOM     22  C   UNL     1       5.800   4.453  15.074  0.00  0.00    +0.000 C 
ATOM     23  C   UNL     1       5.937   3.866  13.672  0.00  0.00    +0.000 C 
ENDBRANCH  20  22
ENDBRANCH  19  20
ENDBRANCH   1  19
TORSDOF 7
ENDMDL
MODEL 2
REMARK VINA RESULT:      -6.4      2.095      3.764
REMARK  Name = 
REMARK  13 active torsions:
REMARK  status: ('A' for Active; 'I' for Inactive)
REMARK    1  A    between atoms: C_1  and  C_2
REMARK    2  A    between atoms: C_2  and  C_3
REMARK    3  A    between atoms: C_2  and  C_4
REMARK    4  A    between atoms: C_4  and  C_5
REMARK    5  A    between atoms: C_5  and  C_6
REMARK    6  A    between atoms: C_6  and  O_7
REMARK    7  A    between atoms: C_8  and  O_9
REMARK    8  A    between atoms: C_10  and  C_11
REMARK    9  A    between atoms: C_10  and  C_12
REMARK   10  A    between atoms: C_13  and  O_14
REMARK   11  A    between atoms: C_15  and  C_16
REMARK   12  A    between atoms: C_15  and  C_17
REMARK   13  A    between atoms: C_18  and  O_19
REMARK                            x       y       z     vdW  Elec       q    Type
REMARK                         _______ _______ _______ _____ _____    ______ ____
ROOT
ATOM      1  C   UNL     1       5.658   4.181  16.368  0.00  0.00    +0.000 C 
ATOM      2  C   UNL     1       6.915   4.491  17.245  0.00  0.00    +0.000 C 
ATOM      3  C   UNL     1       6.866   5.727  18.190  0.00  0.00    +0.000 C 
ATOM      4  C   UNL     1       6.997   7.099  17.497  0.00  0.00    +0.000 C 
ATOM      5  C   UNL     1       8.114   5.631  19.120  0.00  0.00    +0.000 C 
ATOM      6  C   UNL     1       5.557   5.674  19.037  0.00  0.00    +0.000 C 
ATOM      7  C   UNL     1       4.223   5.389  18.263  0.00  0.00    +0.000 C 
ATOM      8  C   UNL     1       3.692   6.619  17.502  0.00  0.00    +0.000 C 
ATOM      9  C   UNL     1       3.101   5.072  19.299  0.00  0.00    +0.000 C 
ATOM     10  C   UNL     1       4.397   4.158  17.317  0.00  0.00    +0.000 C 
ENDROOT
BRANCH   1  11
ATOM     11  O   UNL     1       5.830   2.800  15.934  0.00  0.00    +0.000 OA
ATOM     12  H   UNL     1       6.031   2.283  16.740  0.00  0.00    +0.000 HD
ENDBRANCH   1  11
BRANCH   2  13
ATOM     13  O   UNL     1       8.117   4.399  16.475  0.00  0.00    +0.000 OA
ATOM     14  H   UNL     1       7.897   4.292  15.536  0.00  0.00    +0.000 HD
ENDBRANCH   2  13
BRANCH   6  15
ATOM     15  O   UNL     1       5.724   4.700  20.083  0.00  0.00    +0.000 OA
ATOM     16  H   UNL     1       6.473   4.942  20.654  0.00  0.00    +0.000 HD
ENDBRANCH   6  15
BRANCH  10  17
ATOM     17  O   UNL     1       3.177   3.865  16.645  0.00  0.00    +0.000 OA
ATOM     18  H   UNL     1       2.440   4.249  17.133  0.00  0.00    +0.000 HD
ENDBRANCH  10  17
BRANCH   1  19
ATOM     19  C   UNL     1       5.493   4.969  15.027  0.00  0.00    +0.000 C 
BRANCH  19  20
ATOM     20  C   UNL     1       5.198   4.109  13.779  0.00  0.00    +0.000 C 
BRANCH  20  22
ATOM     21  C   UNL     1       5.872   2.758  11.798  0.00  0.00    +0.000 C 
ATOM     22  C   UNL     1       6.407   3.630  12.946  0.00  0.00    +0.000 C 
ATOM     23  C   UNL     1       7.257   4.762  12.375  0.00  0.00    +0.000 C 
ENDBRANCH  20  22
ENDBRANCH  19  20
ENDBRANCH   1  19
TORSDOF 7
ENDMDL
MODEL 3
REMARK VINA RESULT:      -6.3      1.652      2.021
REMARK  Name = 
REMARK  13 active torsions:
REMARK  status: ('A' for Active; 'I' for Inactive)
REMARK    1  A    between atoms: C_1  and  C_2
REMARK    2  A    between atoms: C_2  and  C_3
REMARK    3  A    between atoms: C_2  and  C_4
REMARK    4  A    between atoms: C_4  and  C_5
REMARK    5  A    between atoms: C_5  and  C_6
REMARK    6  A    between atoms: C_6  and  O_7
REMARK    7  A    between atoms: C_8  and  O_9
REMARK    8  A    between atoms: C_10  and  C_11
REMARK    9  A    between atoms: C_10  and  C_12
REMARK   10  A    between atoms: C_13  and  O_14
REMARK   11  A    between atoms: C_15  and  C_16
REMARK   12  A    between atoms: C_15  and  C_17
REMARK   13  A    between atoms: C_18  and  O_19
REMARK                            x       y       z     vdW  Elec       q    Type
REMARK                         _______ _______ _______ _____ _____    ______ ____
ROOT
ATOM      1  C   UNL     1       4.317   3.728  18.794  0.00  0.00    +0.000 C 
ATOM      2  C   UNL     1       3.925   4.943  19.696  0.00  0.00    +0.000 C 
ATOM      3  C   UNL     1       2.541   5.617  19.462  0.00  0.00    +0.000 C 
ATOM      4  C   UNL     1       2.437   6.503  18.204  0.00  0.00    +0.000 C 
ATOM      5  C   UNL     1       2.310   6.593  20.656  0.00  0.00    +0.000 C 
ATOM      6  C   UNL     1       1.433   4.519  19.441  0.00  0.00    +0.000 C 
ATOM      7  C   UNL     1       1.704   3.255  18.553  0.00  0.00    +0.000 C 
ATOM      8  C   UNL     1       1.487   3.517  17.049  0.00  0.00    +0.000 C 
ATOM      9  C   UNL     1       0.649   2.162  18.902  0.00  0.00    +0.000 C 
ATOM     10  C   UNL     1       3.131   2.688  18.837  0.00  0.00    +0.000 C 
ENDROOT
BRANCH   1  11
ATOM     11  O   UNL     1       5.418   3.077  19.491  0.00  0.00    +0.000 OA
ATOM     12  H   UNL     1       5.685   3.686  20.210  0.00  0.00    +0.000 HD
ENDBRANCH   1  11
BRANCH   2  13
ATOM     13  O   UNL     1       5.008   5.871  19.810  0.00  0.00    +0.000 OA
ATOM     14  H   UNL     1       4.660   6.776  19.864  0.00  0.00    +0.000 HD
ENDBRANCH   2  13
BRANCH   6  15
ATOM     15  O   UNL     1       1.167   4.108  20.794  0.00  0.00    +0.000 OA
ATOM     16  H   UNL     1       1.189   3.138  20.863  0.00  0.00    +0.000 HD
ENDBRANCH   6  15
BRANCH  10  17
ATOM     17  O   UNL     1       3.367   1.514  18.067  0.00  0.00    +0.000 OA
ATOM     18  H   UNL     1       4.289   1.489  17.792  0.00  0.00    +0.000 HD
ENDBRANCH  10  17
BRANCH   1  19
ATOM     19  C   UNL     1       4.910   4.032  17.378  0.00  0.00    +0.000 C 
BRANCH  19  20
ATOM     20  C   UNL     1       6.379   4.506  17.356  0.00  0.00    +0.000 C 
BRANCH  20  22
ATOM     21  C   UNL     1       5.376   6.338  16.001  0.00  0.00    +0.000 C 
ATOM     22  C   UNL     1       6.696   5.802  16.577  0.00  0.00    +0.000 C 
ATOM     23  C   UNL     1       7.365   6.885  17.419  0.00  0.00    +0.000 C 
ENDBRANCH  20  22
ENDBRANCH  19  20
ENDBRANCH   1  19
TORSDOF 7
ENDMDL
MODEL 4
REMARK VINA RESULT:      -6.1      1.354      1.993
REMARK  Name = 
REMARK  13 active torsions:
REMARK  status: ('A' for Active; 'I' for Inactive)
REMARK    1  A    between atoms: C_1  and  C_2
REMARK    2  A    between atoms: C_2  and  C_3
REMARK    3  A    between atoms: C_2  and  C_4
REMARK    4  A    between atoms: C_4  and  C_5
REMARK    5  A    between atoms: C_5  and  C_6
REMARK    6  A    between atoms: C_6  and  O_7
REMARK    7  A    between atoms: C_8  and  O_9
REMARK    8  A    between atoms: C_10  and  C_11
REMARK    9  A    between atoms: C_10  and  C_12
REMARK   10  A    between atoms: C_13  and  O_14
REMARK   11  A    between atoms: C_15  and  C_16
REMARK   12  A    between atoms: C_15  and  C_17
REMARK   13  A    between atoms: C_18  and  O_19
REMARK                            x       y       z     vdW  Elec       q    Type
REMARK                         _______ _______ _______ _____ _____    ______ ____
ROOT
ATOM      1  C   UNL     1       4.115   5.059  18.471  0.00  0.00    +0.000 C 
ATOM      2  C   UNL     1       2.745   5.326  19.175  0.00  0.00    +0.000 C 
ATOM      3  C   UNL     1       1.807   4.113  19.442  0.00  0.00    +0.000 C 
ATOM      4  C   UNL     1       1.075   3.554  18.206  0.00  0.00    +0.000 C 
ATOM      5  C   UNL     1       0.670   4.624  20.380  0.00  0.00    +0.000 C 
ATOM      6  C   UNL     1       2.618   2.982  20.146  0.00  0.00    +0.000 C 
ATOM      7  C   UNL     1       4.006   2.609  19.517  0.00  0.00    +0.000 C 
ATOM      8  C   UNL     1       3.880   1.744  18.248  0.00  0.00    +0.000 C 
ATOM      9  C   UNL     1       4.781   1.700  20.519  0.00  0.00    +0.000 C 
ATOM     10  C   UNL     1       4.846   3.899  19.253  0.00  0.00    +0.000 C 
ENDROOT
BRANCH   1  11
ATOM     11  O   UNL     1       4.913   6.251  18.729  0.00  0.00    +0.000 OA
ATOM     12  H   UNL     1       5.208   6.186  19.660  0.00  0.00    +0.000 HD
ENDBRANCH   1  11
BRANCH   2  13
ATOM     13  O   UNL     1       2.081   6.455  18.600  0.00  0.00    +0.000 OA
ATOM     14  H   UNL     1       2.173   7.223  19.187  0.00  0.00    +0.000 HD
ENDBRANCH   2  13
BRANCH   6  15
ATOM     15  O   UNL     1       2.796   3.334  21.530  0.00  0.00    +0.000 OA
ATOM     16  H   UNL     1       3.128   4.245  21.607  0.00  0.00    +0.000 HD
ENDBRANCH   6  15
BRANCH  10  17
ATOM     17  O   UNL     1       6.124   3.565  18.724  0.00  0.00    +0.000 OA
ATOM     18  H   UNL     1       6.080   2.707  18.290  0.00  0.00    +0.000 HD
ENDBRANCH  10  17
BRANCH   1  19
ATOM     19  C   UNL     1       4.123   4.944  16.910  0.00  0.00    +0.000 C 
BRANCH  19  20
ATOM     20  C   UNL     1       5.054   5.930  16.172  0.00  0.00    +0.000 C 
BRANCH  20  22
ATOM     21  C   UNL     1       7.267   4.814  15.931  0.00  0.00    +0.000 C 
ATOM     22  C   UNL     1       6.049   5.336  15.151  0.00  0.00    +0.000 C 
ATOM     23  C   UNL     1       5.468   4.212  14.298  0.00  0.00    +0.000 C 
ENDBRANCH  20  22
ENDBRANCH  19  20
ENDBRANCH   1  19
TORSDOF 7
ENDMDL
MODEL 5
REMARK VINA RESULT:      -5.9      1.217      1.453
REMARK  Name = 
REMARK  13 active torsions:
REMARK  status: ('A' for Active; 'I' for Inactive)
REMARK    1  A    between atoms: C_1  and  C_2
REMARK    2  A    between atoms: C_2  and  C_3
REMARK    3  A    between atoms: C_2  and  C_4
REMARK    4  A    between atoms: C_4  and  C_5
REMARK    5  A    between atoms: C_5  and  C_6
REMARK    6  A    between atoms: C_6  and  O_7
REMARK    7  A    between atoms: C_8  and  O_9
REMARK    8  A    between atoms: C_10  and  C_11
REMARK    9  A    between atoms: C_10  and  C_12
REMARK   10  A    between atoms: C_13  and  O_14
REMARK   11  A    between atoms: C_15  and  C_16
REMARK   12  A    between atoms: C_15  and  C_17
REMARK   13  A    between atoms: C_18  and  O_19
REMARK                            x       y       z     vdW  Elec       q    Type
REMARK                         _______ _______ _______ _____ _____    ______ ____
ROOT
ATOM      1  C   UNL     1       4.330   3.750  18.564  0.00  0.00    +0.000 C 
ATOM      2  C   UNL     1       4.097   5.083  19.347  0.00  0.00    +0.000 C 
ATOM      3  C   UNL     1       2.687   5.739  19.279  0.00  0.00    +0.000 C 
ATOM      4  C   UNL     1       2.346   6.447  17.952  0.00  0.00    +0.000 C 
ATOM      5  C   UNL     1       2.668   6.872  20.350  0.00  0.00    +0.000 C 
ATOM      6  C   UNL     1       1.604   4.666  19.611  0.00  0.00    +0.000 C 
ATOM      7  C   UNL     1       1.722   3.288  18.870  0.00  0.00    +0.000 C 
ATOM      8  C   UNL     1       1.231   3.346  17.410  0.00  0.00    +0.000 C 
ATOM      9  C   UNL     1       0.759   2.270  19.552  0.00  0.00    +0.000 C 
ATOM     10  C   UNL     1       3.182   2.743  18.965  0.00  0.00    +0.000 C 
ENDROOT
BRANCH   1  11
ATOM     11  O   UNL     1       5.546   3.184  19.132  0.00  0.00    +0.000 OA
ATOM     12  H   UNL     1       6.048   3.935  19.507  0.00  0.00    +0.000 HD
ENDBRANCH   1  11
BRANCH   2  13
ATOM     13  O   UNL     1       5.173   6.001  19.134  0.00  0.00    +0.000 OA
ATOM     14  H   UNL     1       4.892   6.898  19.379  0.00  0.00    +0.000 HD
ENDBRANCH   2  13
BRANCH   6  15
ATOM     15  O   UNL     1       1.594   4.447  21.033  0.00  0.00    +0.000 OA
ATOM     16  H   UNL     1       1.187   5.203  21.489  0.00  0.00    +0.000 HD
ENDBRANCH   6  15
BRANCH  10  17
ATOM     17  O   UNL     1       3.285   1.472  18.333  0.00  0.00    +0.000 OA
ATOM     18  H   UNL     1       3.089   1.562  17.394  0.00  0.00    +0.000 HD
ENDBRANCH  10  17
BRANCH   1  19
ATOM     19  C   UNL     1       4.652   3.849  17.035  0.00  0.00    +0.000 C 
BRANCH  19  20
ATOM     20  C   UNL     1       6.133   4.096  16.679  0.00  0.00    +0.000 C 
BRANCH  20  22
ATOM     21  C   UNL     1       6.898   4.825  14.424  0.00  0.00    +0.000 C 
ATOM     22  C   UNL     1       6.456   5.330  15.806  0.00  0.00    +0.000 C 
ATOM     23  C   UNL     1       5.290   6.302  15.648  0.00  0.00    +0.000 C 
ENDBRANCH  20  22
ENDBRANCH  19  20
ENDBRANCH   1  19
TORSDOF 7
ENDMDL
MODEL 6
REMARK VINA RESULT:      -5.8      2.065      3.514
REMARK  Name = 
REMARK  13 active torsions:
REMARK  status: ('A' for Active; 'I' for Inactive)
REMARK    1  A    between atoms: C_1  and  C_2
REMARK    2  A    between atoms: C_2  and  C_3
REMARK    3  A    between atoms: C_2  and  C_4
REMARK    4  A    between atoms: C_4  and  C_5
REMARK    5  A    between atoms: C_5  and  C_6
REMARK    6  A    between atoms: C_6  and  O_7
REMARK    7  A    between atoms: C_8  and  O_9
REMARK    8  A    between atoms: C_10  and  C_11
REMARK    9  A    between atoms: C_10  and  C_12
REMARK   10  A    between atoms: C_13  and  O_14
REMARK   11  A    between atoms: C_15  and  C_16
REMARK   12  A    between atoms: C_15  and  C_17
REMARK   13  A    between atoms: C_18  and  O_19
REMARK                            x       y       z     vdW  Elec       q    Type
REMARK                         _______ _______ _______ _____ _____    ______ ____
ROOT
ATOM      1  C   UNL     1       5.655   4.080  16.167  0.00  0.00    +0.000 C 
ATOM      2  C   UNL     1       6.786   5.028  16.684  0.00  0.00    +0.000 C 
ATOM      3  C   UNL     1       6.387   6.205  17.622  0.00  0.00    +0.000 C 
ATOM      4  C   UNL     1       5.689   7.395  16.934  0.00  0.00    +0.000 C 
ATOM      5  C   UNL     1       7.714   6.797  18.189  0.00  0.00    +0.000 C 
ATOM      6  C   UNL     1       5.502   5.659  18.784  0.00  0.00    +0.000 C 
ATOM      7  C   UNL     1       4.318   4.709  18.387  0.00  0.00    +0.000 C 
ATOM      8  C   UNL     1       3.107   5.465  17.807  0.00  0.00    +0.000 C 
ATOM      9  C   UNL     1       3.760   4.037  19.678  0.00  0.00    +0.000 C 
ATOM     10  C   UNL     1       4.820   3.594  17.415  0.00  0.00    +0.000 C 
ENDROOT
BRANCH   1  11
ATOM     11  O   UNL     1       6.347   2.891  15.688  0.00  0.00    +0.000 OA
ATOM     12  H   UNL     1       6.727   2.458  16.479  0.00  0.00    +0.000 HD
ENDBRANCH   1  11
BRANCH   2  13
ATOM     13  O   UNL     1       7.667   5.407  15.623  0.00  0.00    +0.000 OA
ATOM     14  H   UNL     1       8.557   5.062  15.797  0.00  0.00    +0.000 HD
ENDBRANCH   2  13
BRANCH   6  15
ATOM     15  O   UNL     1       6.351   4.995  19.738  0.00  0.00    +0.000 OA
ATOM     16  H   UNL     1       5.828   4.676  20.492  0.00  0.00    +0.000 HD
ENDBRANCH   6  15
BRANCH  10  17
ATOM     17  O   UNL     1       3.761   2.702  17.086  0.00  0.00    +0.000 OA
ATOM     18  H   UNL     1       4.004   1.805  17.338  0.00  0.00    +0.000 HD
ENDBRANCH  10  17
BRANCH   1  19
ATOM     19  C   UNL     1       4.824   4.546  14.925  0.00  0.00    +0.000 C 
BRANCH  19  20
ATOM     20  C   UNL     1       5.595   4.604  13.589  0.00  0.00    +0.000 C 
BRANCH  20  22
ATOM     21  C   UNL     1       4.351   3.506  11.732  0.00  0.00    +0.000 C 
ATOM     22  C   UNL     1       5.545   3.351  12.687  0.00  0.00    +0.000 C 
ATOM     23  C   UNL     1       6.819   3.116  11.879  0.00  0.00    +0.000 C 
ENDBRANCH  20  22
ENDBRANCH  19  20
ENDBRANCH   1  19
TORSDOF 7
ENDMDL
MODEL 7
REMARK VINA RESULT:      -5.8      2.105      3.957
REMARK  Name = 
REMARK  13 active torsions:
REMARK  status: ('A' for Active; 'I' for Inactive)
REMARK    1  A    between atoms: C_1  and  C_2
REMARK    2  A    between atoms: C_2  and  C_3
REMARK    3  A    between atoms: C_2  and  C_4
REMARK    4  A    between atoms: C_4  and  C_5
REMARK    5  A    between atoms: C_5  and  C_6
REMARK    6  A    between atoms: C_6  and  O_7
REMARK    7  A    between atoms: C_8  and  O_9
REMARK    8  A    between atoms: C_10  and  C_11
REMARK    9  A    between atoms: C_10  and  C_12
REMARK   10  A    between atoms: C_13  and  O_14
REMARK   11  A    between atoms: C_15  and  C_16
REMARK   12  A    between atoms: C_15  and  C_17
REMARK   13  A    between atoms: C_18  and  O_19
REMARK                            x       y       z     vdW  Elec       q    Type
REMARK                         _______ _______ _______ _____ _____    ______ ____
ROOT
ATOM      1  C   UNL     1       4.627   4.071  17.387  0.00  0.00    +0.000 C 
ATOM      2  C   UNL     1       3.612   2.915  17.661  0.00  0.00    +0.000 C 
ATOM      3  C   UNL     1       2.527   3.131  18.756  0.00  0.00    +0.000 C 
ATOM      4  C   UNL     1       3.029   3.049  20.212  0.00  0.00    +0.000 C 
ATOM      5  C   UNL     1       1.511   1.956  18.620  0.00  0.00    +0.000 C 
ATOM      6  C   UNL     1       1.811   4.495  18.508  0.00  0.00    +0.000 C 
ATOM      7  C   UNL     1       2.730   5.739  18.241  0.00  0.00    +0.000 C 
ATOM      8  C   UNL     1       3.374   6.299  19.524  0.00  0.00    +0.000 C 
ATOM      9  C   UNL     1       1.844   6.911  17.720  0.00  0.00    +0.000 C 
ATOM     10  C   UNL     1       3.803   5.398  17.159  0.00  0.00    +0.000 C 
ENDROOT
BRANCH   1  11
ATOM     11  O   UNL     1       5.215   3.762  16.090  0.00  0.00    +0.000 OA
ATOM     12  H   UNL     1       5.409   2.803  16.099  0.00  0.00    +0.000 HD
ENDBRANCH   1  11
BRANCH   2  13
ATOM     13  O   UNL     1       4.279   1.652  17.748  0.00  0.00    +0.000 OA
ATOM     14  H   UNL     1       4.633   1.407  16.879  0.00  0.00    +0.000 HD
ENDBRANCH   2  13
BRANCH   6  15
ATOM     15  O   UNL     1       0.886   4.337  17.418  0.00  0.00    +0.000 OA
ATOM     16  H   UNL     1       0.017   4.702  17.657  0.00  0.00    +0.000 HD
ENDBRANCH   6  15
BRANCH  10  17
ATOM     17  O   UNL     1       4.611   6.536  16.879  0.00  0.00    +0.000 OA
ATOM     18  H   UNL     1       4.493   7.194  17.573  0.00  0.00    +0.000 HD
ENDBRANCH  10  17
BRANCH   1  19
ATOM     19  C   UNL     1       5.869   4.190  18.332  0.00  0.00    +0.000 C 
BRANCH  19  20
ATOM     20  C   UNL     1       7.173   4.675  17.664  0.00  0.00    +0.000 C 
BRANCH  20  22
ATOM     21  C   UNL     1       7.661   7.111  17.842  0.00  0.00    +0.000 C 
ATOM     22  C   UNL     1       8.008   5.730  18.422  0.00  0.00    +0.000 C 
ATOM     23  C   UNL     1       7.780   5.737  19.932  0.00  0.00    +0.000 C 
ENDBRANCH  20  22
ENDBRANCH  19  20
ENDBRANCH   1  19
TORSDOF 7
ENDMDL
MODEL 8
REMARK VINA RESULT:      -5.7      1.932      4.908
REMARK  Name = 
REMARK  13 active torsions:
REMARK  status: ('A' for Active; 'I' for Inactive)
REMARK    1  A    between atoms: C_1  and  C_2
REMARK    2  A    between atoms: C_2  and  C_3
REMARK    3  A    between atoms: C_2  and  C_4
REMARK    4  A    between atoms: C_4  and  C_5
REMARK    5  A    between atoms: C_5  and  C_6
REMARK    6  A    between atoms: C_6  and  O_7
REMARK    7  A    between atoms: C_8  and  O_9
REMARK    8  A    between atoms: C_10  and  C_11
REMARK    9  A    between atoms: C_10  and  C_12
REMARK   10  A    between atoms: C_13  and  O_14
REMARK   11  A    between atoms: C_15  and  C_16
REMARK   12  A    between atoms: C_15  and  C_17
REMARK   13  A    between atoms: C_18  and  O_19
REMARK                            x       y       z     vdW  Elec       q    Type
REMARK                         _______ _______ _______ _____ _____    ______ ____
ROOT
ATOM      1  C   UNL     1       3.817   3.784  17.197  0.00  0.00    +0.000 C 
ATOM      2  C   UNL     1       3.251   5.229  17.386  0.00  0.00    +0.000 C 
ATOM      3  C   UNL     1       4.249   6.369  17.742  0.00  0.00    +0.000 C 
ATOM      4  C   UNL     1       4.766   6.370  19.195  0.00  0.00    +0.000 C 
ATOM      5  C   UNL     1       3.468   7.711  17.598  0.00  0.00    +0.000 C 
ATOM      6  C   UNL     1       5.448   6.333  16.744  0.00  0.00    +0.000 C 
ATOM      7  C   UNL     1       6.114   4.936  16.487  0.00  0.00    +0.000 C 
ATOM      8  C   UNL     1       7.043   4.491  17.634  0.00  0.00    +0.000 C 
ATOM      9  C   UNL     1       7.063   5.054  15.256  0.00  0.00    +0.000 C 
ATOM     10  C   UNL     1       5.022   3.862  16.181  0.00  0.00    +0.000 C 
ENDROOT
BRANCH   1  11
ATOM     11  O   UNL     1       2.771   3.057  16.489  0.00  0.00    +0.000 OA
ATOM     12  H   UNL     1       1.936   3.534  16.669  0.00  0.00    +0.000 HD
ENDBRANCH   1  11
BRANCH   2  13
ATOM     13  O   UNL     1       2.071   5.220  18.195  0.00  0.00    +0.000 OA
ATOM     14  H   UNL     1       1.347   5.661  17.723  0.00  0.00    +0.000 HD
ENDBRANCH   2  13
BRANCH   6  15
ATOM     15  O   UNL     1       5.022   6.900  15.492  0.00  0.00    +0.000 OA
ATOM     16  H   UNL     1       5.613   6.618  14.775  0.00  0.00    +0.000 HD
ENDBRANCH   6  15
BRANCH  10  17
ATOM     17  O   UNL     1       5.622   2.602  15.903  0.00  0.00    +0.000 OA
ATOM     18  H   UNL     1       5.866   2.171  16.729  0.00  0.00    +0.000 HD
ENDBRANCH  10  17
BRANCH   1  19
ATOM     19  C   UNL     1       4.057   2.922  18.481  0.00  0.00    +0.000 C 
BRANCH  19  20
ATOM     20  C   UNL     1       3.051   1.775  18.714  0.00  0.00    +0.000 C 
BRANCH  20  22
ATOM     21  C   UNL     1       2.488   3.012  20.801  0.00  0.00    +0.000 C 
ATOM     22  C   UNL     1       1.951   2.001  19.775  0.00  0.00    +0.000 C 
ATOM     23  C   UNL     1       0.629   2.506  19.203  0.00  0.00    +0.000 C 
ENDBRANCH  20  22
ENDBRANCH  19  20
ENDBRANCH   1  19
TORSDOF 7
ENDMDL
MODEL 9
REMARK VINA RESULT:      -5.6      1.587      4.729
REMARK  Name = 
REMARK  13 active torsions:
REMARK  status: ('A' for Active; 'I' for Inactive)
REMARK    1  A    between atoms: C_1  and  C_2
REMARK    2  A    between atoms: C_2  and  C_3
REMARK    3  A    between atoms: C_2  and  C_4
REMARK    4  A    between atoms: C_4  and  C_5
REMARK    5  A    between atoms: C_5  and  C_6
REMARK    6  A    between atoms: C_6  and  O_7
REMARK    7  A    between atoms: C_8  and  O_9
REMARK    8  A    between atoms: C_10  and  C_11
REMARK    9  A    between atoms: C_10  and  C_12
REMARK   10  A    between atoms: C_13  and  O_14
REMARK   11  A    between atoms: C_15  and  C_16
REMARK   12  A    between atoms: C_15  and  C_17
REMARK   13  A    between atoms: C_18  and  O_19
REMARK                            x       y       z     vdW  Elec       q    Type
REMARK                         _______ _______ _______ _____ _____    ______ ____
ROOT
ATOM      1  C   UNL     1       5.466   4.684  19.013  0.00  0.00    +0.000 C 
ATOM      2  C   UNL     1       6.408   4.843  17.776  0.00  0.00    +0.000 C 
ATOM      3  C   UNL     1       5.758   5.108  16.386  0.00  0.00    +0.000 C 
ATOM      4  C   UNL     1       5.080   3.891  15.727  0.00  0.00    +0.000 C 
ATOM      5  C   UNL     1       6.917   5.492  15.415  0.00  0.00    +0.000 C 
ATOM      6  C   UNL     1       4.746   6.289  16.509  0.00  0.00    +0.000 C 
ATOM      7  C   UNL     1       3.732   6.231  17.706  0.00  0.00    +0.000 C 
ATOM      8  C   UNL     1       2.571   5.247  17.465  0.00  0.00    +0.000 C 
ATOM      9  C   UNL     1       3.032   7.618  17.835  0.00  0.00    +0.000 C 
ATOM     10  C   UNL     1       4.484   5.919  19.039  0.00  0.00    +0.000 C 
ENDROOT
BRANCH   1  11
ATOM     11  O   UNL     1       6.330   4.864  20.173  0.00  0.00    +0.000 OA
ATOM     12  H   UNL     1       6.313   5.820  20.381  0.00  0.00    +0.000 HD
ENDBRANCH   1  11
BRANCH   2  13
ATOM     13  O   UNL     1       7.415   3.827  17.759  0.00  0.00    +0.000 OA
ATOM     14  H   UNL     1       7.157   3.121  17.145  0.00  0.00    +0.000 HD
ENDBRANCH   2  13
BRANCH   6  15
ATOM     15  O   UNL     1       5.482   7.524  16.562  0.00  0.00    +0.000 OA
ATOM     16  H   UNL     1       5.100   8.172  15.948  0.00  0.00    +0.000 HD
ENDBRANCH   6  15
BRANCH  10  17
ATOM     17  O   UNL     1       3.576   5.910  20.135  0.00  0.00    +0.000 OA
ATOM     18  H   UNL     1       2.825   5.344  19.928  0.00  0.00    +0.000 HD
ENDBRANCH  10  17
BRANCH   1  19
ATOM     19  C   UNL     1       4.813   3.283  19.257  0.00  0.00    +0.000 C 
BRANCH  19  20
ATOM     20  C   UNL     1       3.697   3.243  20.324  0.00  0.00    +0.000 C 
BRANCH  20  22
ATOM     21  C   UNL     1       1.207   3.259  20.340  0.00  0.00    +0.000 C 
ATOM     22  C   UNL     1       2.440   2.405  20.003  0.00  0.00    +0.000 C 
ATOM     23  C   UNL     1       2.357   1.938  18.552  0.00  0.00    +0.000 C 
ENDBRANCH  20  22
ENDBRANCH  19  20
ENDBRANCH   1  19
TORSDOF 7
ENDMDL
