MODEL 1
REMARK VINA RESULT:      -8.5      0.000      0.000
REMARK  Name = 
REMARK  11 active torsions:
REMARK  status: ('A' for Active; 'I' for Inactive)
REMARK    1  A    between atoms: C_2  and  O_3
REMARK    2  A    between atoms: C_2  and  C_4
REMARK    3  A    between atoms: C_4  and  C_5
REMARK    4  A    between atoms: C_5  and  N_6
REMARK    5  A    between atoms: C_5  and  C_23
REMARK    6  A    between atoms: C_7  and  C_9
REMARK    7  A    between atoms: C_9  and  C_10
REMARK    8  A    between atoms: C_10  and  C_11
REMARK    9  A    between atoms: C_11  and  C_12
REMARK   10  A    between atoms: C_12  and  C_13
REMARK   11  A    between atoms: C_26  and  C_27
REMARK                            x       y       z     vdW  Elec       q    Type
REMARK                         _______ _______ _______ _____ _____    ______ ____
ROOT
ATOM      1  N   UNL     1       5.699   4.570  18.312  0.00  0.00    +0.000 N 
ATOM      2  C   UNL     1       4.689   3.641  18.227  0.00  0.00    +0.000 C 
ATOM      3  O   UNL     1       4.082   3.384  17.190  0.00  0.00    +0.000 OA
ATOM      4  H   UNL     1       6.176   4.696  19.200  0.00  0.00    +0.000 HD
ENDROOT
BRANCH   1   5
ATOM      5  C   UNL     1       6.231   5.297  17.161  0.00  0.00    +0.000 C 
BRANCH   5   6
ATOM      6  C   UNL     1       6.970   6.555  17.616  0.00  0.00    +0.000 A 
ATOM      7  C   UNL     1       6.718   7.793  17.011  0.00  0.00    +0.000 A 
ATOM      8  C   UNL     1       7.420   8.945  17.404  0.00  0.00    +0.000 A 
ATOM      9  C   UNL     1       8.388   8.912  18.425  0.00  0.00    +0.000 A 
ATOM     10  C   UNL     1       8.589   7.676  19.057  0.00  0.00    +0.000 A 
ATOM     11  C   UNL     1       7.898   6.525  18.664  0.00  0.00    +0.000 A 
BRANCH   9  12
ATOM     12  C   UNL     1       9.171  10.110  18.813  0.00  0.00    +0.000 A 
ATOM     13  C   UNL     1       9.383  10.455  20.160  0.00  0.00    +0.000 A 
ATOM     14  C   UNL     1      10.109  11.597  20.518  0.00  0.00    +0.000 A 
ATOM     15  C   UNL     1      10.652  12.418  19.535  0.00  0.00    +0.000 A 
ATOM     16  C   UNL     1      10.466  12.102  18.195  0.00  0.00    +0.000 A 
ATOM     17  C   UNL     1       9.731  10.965  17.841  0.00  0.00    +0.000 A 
ENDBRANCH   9  12
ENDBRANCH   5   6
BRANCH   5  18
ATOM     18  C   UNL     1       7.056   4.426  16.198  0.00  0.00    +0.000 C 
BRANCH  18  20
ATOM     19  O   UNL     1       7.341   5.220  13.941  0.00  0.00    +0.000 OA
ATOM     20  C   UNL     1       6.644   4.651  14.769  0.00  0.00    +0.000 C 
BRANCH  20  21
ATOM     21  O   UNL     1       5.432   4.138  14.458  0.00  0.00    +0.000 OA
ATOM     22  H   UNL     1       5.161   4.277  13.528  0.00  0.00    +0.000 HD
ENDBRANCH  20  21
ENDBRANCH  18  20
ENDBRANCH   5  18
ENDBRANCH   1   5
BRANCH   2  23
ATOM     23  C   UNL     1       4.348   2.958  19.533  0.00  0.00    +0.000 C 
BRANCH  23  24
ATOM     24  C   UNL     1       2.837   2.842  19.727  0.00  0.00    +0.000 C 
BRANCH  24  25
ATOM     25  C   UNL     1       2.106   4.134  19.346  0.00  0.00    +0.000 C 
BRANCH  25  26
ATOM     26  C   UNL     1       2.337   5.241  20.374  0.00  0.00    +0.000 C 
BRANCH  26  27
ATOM     27  C   UNL     1       2.178   6.607  19.754  0.00  0.00    +0.000 A 
ATOM     28  C   UNL     1       2.667   6.861  18.476  0.00  0.00    +0.000 A 
ATOM     29  C   UNL     1       2.508   8.134  17.944  0.00  0.00    +0.000 A 
ATOM     30  C   UNL     1       1.843   9.111  18.686  0.00  0.00    +0.000 A 
ATOM     31  C   UNL     1       1.369   8.771  19.956  0.00  0.00    +0.000 A 
ATOM     32  N   UNL     1       1.529   7.544  20.488  0.00  0.00    +0.000 NA
ATOM     33  N   UNL     1       0.651   9.681  20.719  0.00  0.00    +0.000 N 
ATOM     34  C   UNL     1       0.890  11.083  20.458  0.00  0.00    +0.000 C 
ATOM     35  C   UNL     1       0.714  11.344  18.966  0.00  0.00    +0.000 C 
ATOM     36  C   UNL     1       1.727  10.520  18.174  0.00  0.00    +0.000 C 
ATOM     37  H   UNL     1       0.601   9.359  21.680  0.00  0.00    +0.000 HD
ENDBRANCH  26  27
ENDBRANCH  25  26
ENDBRANCH  24  25
ENDBRANCH  23  24
ENDBRANCH   2  23
TORSDOF 11
ENDMDL
MODEL 2
REMARK VINA RESULT:      -8.2      2.664      7.909
REMARK  Name = 
REMARK  11 active torsions:
REMARK  status: ('A' for Active; 'I' for Inactive)
REMARK    1  A    between atoms: C_2  and  O_3
REMARK    2  A    between atoms: C_2  and  C_4
REMARK    3  A    between atoms: C_4  and  C_5
REMARK    4  A    between atoms: C_5  and  N_6
REMARK    5  A    between atoms: C_5  and  C_23
REMARK    6  A    between atoms: C_7  and  C_9
REMARK    7  A    between atoms: C_9  and  C_10
REMARK    8  A    between atoms: C_10  and  C_11
REMARK    9  A    between atoms: C_11  and  C_12
REMARK   10  A    between atoms: C_12  and  C_13
REMARK   11  A    between atoms: C_26  and  C_27
REMARK                            x       y       z     vdW  Elec       q    Type
REMARK                         _______ _______ _______ _____ _____    ______ ____
ROOT
ATOM      1  N   UNL     1       4.741   5.921  17.963  0.00  0.00    +0.000 N 
ATOM      2  C   UNL     1       5.962   5.383  18.297  0.00  0.00    +0.000 C 
ATOM      3  O   UNL     1       6.116   4.529  19.167  0.00  0.00    +0.000 OA
ATOM      4  H   UNL     1       4.694   6.596  17.206  0.00  0.00    +0.000 HD
ENDROOT
BRANCH   1   5
ATOM      5  C   UNL     1       3.473   5.477  18.540  0.00  0.00    +0.000 C 
BRANCH   5   6
ATOM      6  C   UNL     1       2.660   6.673  19.031  0.00  0.00    +0.000 A 
ATOM      7  C   UNL     1       2.141   6.703  20.332  0.00  0.00    +0.000 A 
ATOM      8  C   UNL     1       1.364   7.787  20.775  0.00  0.00    +0.000 A 
ATOM      9  C   UNL     1       1.087   8.889  19.946  0.00  0.00    +0.000 A 
ATOM     10  C   UNL     1       1.658   8.869  18.665  0.00  0.00    +0.000 A 
ATOM     11  C   UNL     1       2.427   7.789  18.217  0.00  0.00    +0.000 A 
BRANCH   9  12
ATOM     12  C   UNL     1       0.225  10.014  20.386  0.00  0.00    +0.000 A 
ATOM     13  C   UNL     1       0.245  10.492  21.709  0.00  0.00    +0.000 A 
ATOM     14  C   UNL     1      -0.583  11.542  22.121  0.00  0.00    +0.000 A 
ATOM     15  C   UNL     1      -1.445  12.150  21.215  0.00  0.00    +0.000 A 
ATOM     16  C   UNL     1      -1.484  11.706  19.898  0.00  0.00    +0.000 A 
ATOM     17  C   UNL     1      -0.662  10.649  19.493  0.00  0.00    +0.000 A 
ENDBRANCH   9  12
ENDBRANCH   5   6
BRANCH   5  18
ATOM     18  C   UNL     1       2.670   4.531  17.630  0.00  0.00    +0.000 C 
BRANCH  18  20
ATOM     19  O   UNL     1       1.957   2.371  18.423  0.00  0.00    +0.000 OA
ATOM     20  C   UNL     1       2.862   3.095  18.032  0.00  0.00    +0.000 C 
BRANCH  20  21
ATOM     21  O   UNL     1       4.132   2.649  17.895  0.00  0.00    +0.000 OA
ATOM     22  H   UNL     1       4.436   2.573  16.967  0.00  0.00    +0.000 HD
ENDBRANCH  20  21
ENDBRANCH  18  20
ENDBRANCH   5  18
ENDBRANCH   1   5
BRANCH   2  23
ATOM     23  C   UNL     1       7.133   5.944  17.523  0.00  0.00    +0.000 C 
BRANCH  23  24
ATOM     24  C   UNL     1       7.886   6.999  18.332  0.00  0.00    +0.000 C 
BRANCH  24  25
ATOM     25  C   UNL     1       8.386   8.151  17.454  0.00  0.00    +0.000 C 
BRANCH  25  26
ATOM     26  C   UNL     1       7.668   9.462  17.776  0.00  0.00    +0.000 C 
BRANCH  26  27
ATOM     27  C   UNL     1       8.625  10.491  18.322  0.00  0.00    +0.000 A 
ATOM     28  C   UNL     1       9.450  10.184  19.399  0.00  0.00    +0.000 A 
ATOM     29  C   UNL     1      10.312  11.162  19.879  0.00  0.00    +0.000 A 
ATOM     30  C   UNL     1      10.350  12.410  19.254  0.00  0.00    +0.000 A 
ATOM     31  C   UNL     1       9.500  12.634  18.168  0.00  0.00    +0.000 A 
ATOM     32  N   UNL     1       8.650  11.697  17.704  0.00  0.00    +0.000 NA
ATOM     33  N   UNL     1       9.530  13.833  17.471  0.00  0.00    +0.000 N 
ATOM     34  C   UNL     1       9.998  14.996  18.193  0.00  0.00    +0.000 C 
ATOM     35  C   UNL     1      11.353  14.677  18.816  0.00  0.00    +0.000 C 
ATOM     36  C   UNL     1      11.211  13.517  19.799  0.00  0.00    +0.000 C 
ATOM     37  H   UNL     1       8.703  13.913  16.889  0.00  0.00    +0.000 HD
ENDBRANCH  26  27
ENDBRANCH  25  26
ENDBRANCH  24  25
ENDBRANCH  23  24
ENDBRANCH   2  23
TORSDOF 11
ENDMDL
MODEL 3
REMARK VINA RESULT:      -8.2      3.029      8.083
REMARK  Name = 
REMARK  11 active torsions:
REMARK  status: ('A' for Active; 'I' for Inactive)
REMARK    1  A    between atoms: C_2  and  O_3
REMARK    2  A    between atoms: C_2  and  C_4
REMARK    3  A    between atoms: C_4  and  C_5
REMARK    4  A    between atoms: C_5  and  N_6
REMARK    5  A    between atoms: C_5  and  C_23
REMARK    6  A    between atoms: C_7  and  C_9
REMARK    7  A    between atoms: C_9  and  C_10
REMARK    8  A    between atoms: C_10  and  C_11
REMARK    9  A    between atoms: C_11  and  C_12
REMARK   10  A    between atoms: C_12  and  C_13
REMARK   11  A    between atoms: C_26  and  C_27
REMARK                            x       y       z     vdW  Elec       q    Type
REMARK                         _______ _______ _______ _____ _____    ______ ____
ROOT
ATOM      1  N   UNL     1       4.832   5.877  17.666  0.00  0.00    +0.000 N 
ATOM      2  C   UNL     1       6.043   5.956  18.313  0.00  0.00    +0.000 C 
ATOM      3  O   UNL     1       6.228   5.567  19.464  0.00  0.00    +0.000 OA
ATOM      4  H   UNL     1       4.771   6.188  16.701  0.00  0.00    +0.000 HD
ENDROOT
BRANCH   1   5
ATOM      5  C   UNL     1       3.647   5.240  18.237  0.00  0.00    +0.000 C 
BRANCH   5   6
ATOM      6  C   UNL     1       2.782   6.269  18.963  0.00  0.00    +0.000 A 
ATOM      7  C   UNL     1       2.567   7.540  18.415  0.00  0.00    +0.000 A 
ATOM      8  C   UNL     1       1.801   8.501  19.098  0.00  0.00    +0.000 A 
ATOM      9  C   UNL     1       1.205   8.227  20.342  0.00  0.00    +0.000 A 
ATOM     10  C   UNL     1       1.385   6.932  20.851  0.00  0.00    +0.000 A 
ATOM     11  C   UNL     1       2.153   5.975  20.179  0.00  0.00    +0.000 A 
BRANCH   9  12
ATOM     12  C   UNL     1       0.437   9.249  21.095  0.00  0.00    +0.000 A 
ATOM     13  C   UNL     1       0.027  10.456  20.501  0.00  0.00    +0.000 A 
ATOM     14  C   UNL     1      -0.683  11.423  21.222  0.00  0.00    +0.000 A 
ATOM     15  C   UNL     1      -1.010  11.201  22.556  0.00  0.00    +0.000 A 
ATOM     16  C   UNL     1      -0.625  10.016  23.170  0.00  0.00    +0.000 A 
ATOM     17  C   UNL     1       0.093   9.056  22.449  0.00  0.00    +0.000 A 
ENDBRANCH   9  12
ENDBRANCH   5   6
BRANCH   5  18
ATOM     18  C   UNL     1       2.854   4.383  17.235  0.00  0.00    +0.000 C 
BRANCH  18  20
ATOM     19  O   UNL     1       1.119   2.928  18.058  0.00  0.00    +0.000 OA
ATOM     20  C   UNL     1       2.312   3.142  17.889  0.00  0.00    +0.000 C 
BRANCH  20  21
ATOM     21  O   UNL     1       3.261   2.250  18.253  0.00  0.00    +0.000 OA
ATOM     22  H   UNL     1       4.089   2.306  17.733  0.00  0.00    +0.000 HD
ENDBRANCH  20  21
ENDBRANCH  18  20
ENDBRANCH   5  18
ENDBRANCH   1   5
BRANCH   2  23
ATOM     23  C   UNL     1       7.150   6.593  17.505  0.00  0.00    +0.000 C 
BRANCH  23  24
ATOM     24  C   UNL     1       8.169   7.293  18.404  0.00  0.00    +0.000 C 
BRANCH  24  25
ATOM     25  C   UNL     1       8.249   8.797  18.123  0.00  0.00    +0.000 C 
BRANCH  25  26
ATOM     26  C   UNL     1       9.180   9.509  19.106  0.00  0.00    +0.000 C 
BRANCH  26  27
ATOM     27  C   UNL     1       9.308  10.974  18.776  0.00  0.00    +0.000 A 
ATOM     28  C   UNL     1       8.515  11.545  17.785  0.00  0.00    +0.000 A 
ATOM     29  C   UNL     1       8.669  12.897  17.504  0.00  0.00    +0.000 A 
ATOM     30  C   UNL     1       9.588  13.649  18.237  0.00  0.00    +0.000 A 
ATOM     31  C   UNL     1      10.335  13.005  19.227  0.00  0.00    +0.000 A 
ATOM     32  N   UNL     1      10.204  11.691  19.498  0.00  0.00    +0.000 NA
ATOM     33  N   UNL     1      11.223  13.710  20.027  0.00  0.00    +0.000 N 
ATOM     34  C   UNL     1      11.773  14.928  19.474  0.00  0.00    +0.000 C 
ATOM     35  C   UNL     1      10.627  15.813  18.996  0.00  0.00    +0.000 C 
ATOM     36  C   UNL     1       9.838  15.095  17.904  0.00  0.00    +0.000 C 
ATOM     37  H   UNL     1      11.839  13.063  20.508  0.00  0.00    +0.000 HD
ENDBRANCH  26  27
ENDBRANCH  25  26
ENDBRANCH  24  25
ENDBRANCH  23  24
ENDBRANCH   2  23
TORSDOF 11
ENDMDL
MODEL 4
REMARK VINA RESULT:      -8.1      2.910      8.128
REMARK  Name = 
REMARK  11 active torsions:
REMARK  status: ('A' for Active; 'I' for Inactive)
REMARK    1  A    between atoms: C_2  and  O_3
REMARK    2  A    between atoms: C_2  and  C_4
REMARK    3  A    between atoms: C_4  and  C_5
REMARK    4  A    between atoms: C_5  and  N_6
REMARK    5  A    between atoms: C_5  and  C_23
REMARK    6  A    between atoms: C_7  and  C_9
REMARK    7  A    between atoms: C_9  and  C_10
REMARK    8  A    between atoms: C_10  and  C_11
REMARK    9  A    between atoms: C_11  and  C_12
REMARK   10  A    between atoms: C_12  and  C_13
REMARK   11  A    between atoms: C_26  and  C_27
REMARK                            x       y       z     vdW  Elec       q    Type
REMARK                         _______ _______ _______ _____ _____    ______ ____
ROOT
ATOM      1  N   UNL     1       5.034   6.643  17.834  0.00  0.00    +0.000 N 
ATOM      2  C   UNL     1       6.301   6.116  17.922  0.00  0.00    +0.000 C 
ATOM      3  O   UNL     1       6.564   5.062  18.495  0.00  0.00    +0.000 OA
ATOM      4  H   UNL     1       4.896   7.502  17.311  0.00  0.00    +0.000 HD
ENDROOT
BRANCH   1   5
ATOM      5  C   UNL     1       3.837   5.967  18.332  0.00  0.00    +0.000 C 
BRANCH   5   6
ATOM      6  C   UNL     1       2.854   6.979  18.918  0.00  0.00    +0.000 A 
ATOM      7  C   UNL     1       2.480   8.118  18.194  0.00  0.00    +0.000 A 
ATOM      8  C   UNL     1       1.603   9.068  18.744  0.00  0.00    +0.000 A 
ATOM      9  C   UNL     1       1.051   8.912  20.029  0.00  0.00    +0.000 A 
ATOM     10  C   UNL     1       1.393   7.740  20.719  0.00  0.00    +0.000 A 
ATOM     11  C   UNL     1       2.272   6.795  20.178  0.00  0.00    +0.000 A 
BRANCH   9  12
ATOM     12  C   UNL     1       0.165   9.933  20.639  0.00  0.00    +0.000 A 
ATOM     13  C   UNL     1      -0.626  10.794  19.857  0.00  0.00    +0.000 A 
ATOM     14  C   UNL     1      -1.447  11.767  20.439  0.00  0.00    +0.000 A 
ATOM     15  C   UNL     1      -1.506  11.894  21.823  0.00  0.00    +0.000 A 
ATOM     16  C   UNL     1      -0.742  11.054  22.625  0.00  0.00    +0.000 A 
ATOM     17  C   UNL     1       0.085  10.091  22.038  0.00  0.00    +0.000 A 
ENDBRANCH   9  12
ENDBRANCH   5   6
BRANCH   5  18
ATOM     18  C   UNL     1       3.190   5.012  17.315  0.00  0.00    +0.000 C 
BRANCH  18  20
ATOM     19  O   UNL     1       3.654   3.114  18.724  0.00  0.00    +0.000 OA
ATOM     20  C   UNL     1       2.907   3.669  17.930  0.00  0.00    +0.000 C 
BRANCH  20  21
ATOM     21  O   UNL     1       1.727   3.127  17.553  0.00  0.00    +0.000 OA
ATOM     22  H   UNL     1       1.034   3.782  17.332  0.00  0.00    +0.000 HD
ENDBRANCH  20  21
ENDBRANCH  18  20
ENDBRANCH   5  18
ENDBRANCH   1   5
BRANCH   2  23
ATOM     23  C   UNL     1       7.380   6.955  17.275  0.00  0.00    +0.000 C 
BRANCH  23  24
ATOM     24  C   UNL     1       8.178   7.742  18.314  0.00  0.00    +0.000 C 
BRANCH  24  25
ATOM     25  C   UNL     1       8.315   9.221  17.939  0.00  0.00    +0.000 C 
BRANCH  25  26
ATOM     26  C   UNL     1       8.986  10.028  19.050  0.00  0.00    +0.000 C 
BRANCH  26  27
ATOM     27  C   UNL     1       9.544  11.326  18.524  0.00  0.00    +0.000 A 
ATOM     28  C   UNL     1      10.674  11.330  17.712  0.00  0.00    +0.000 A 
ATOM     29  C   UNL     1      11.162  12.547  17.254  0.00  0.00    +0.000 A 
ATOM     30  C   UNL     1      10.495  13.725  17.594  0.00  0.00    +0.000 A 
ATOM     31  C   UNL     1       9.358  13.635  18.401  0.00  0.00    +0.000 A 
ATOM     32  N   UNL     1       8.884  12.461  18.862  0.00  0.00    +0.000 NA
ATOM     33  N   UNL     1       8.620  14.764  18.726  0.00  0.00    +0.000 N 
ATOM     34  C   UNL     1       9.323  16.028  18.716  0.00  0.00    +0.000 C 
ATOM     35  C   UNL     1      10.028  16.189  17.373  0.00  0.00    +0.000 C 
ATOM     36  C   UNL     1      11.044  15.065  17.184  0.00  0.00    +0.000 C 
ATOM     37  H   UNL     1       7.993  14.554  19.495  0.00  0.00    +0.000 HD
ENDBRANCH  26  27
ENDBRANCH  25  26
ENDBRANCH  24  25
ENDBRANCH  23  24
ENDBRANCH   2  23
TORSDOF 11
ENDMDL
MODEL 5
REMARK VINA RESULT:      -8.1      2.802      8.234
REMARK  Name = 
REMARK  11 active torsions:
REMARK  status: ('A' for Active; 'I' for Inactive)
REMARK    1  A    between atoms: C_2  and  O_3
REMARK    2  A    between atoms: C_2  and  C_4
REMARK    3  A    between atoms: C_4  and  C_5
REMARK    4  A    between atoms: C_5  and  N_6
REMARK    5  A    between atoms: C_5  and  C_23
REMARK    6  A    between atoms: C_7  and  C_9
REMARK    7  A    between atoms: C_9  and  C_10
REMARK    8  A    between atoms: C_10  and  C_11
REMARK    9  A    between atoms: C_11  and  C_12
REMARK   10  A    between atoms: C_12  and  C_13
REMARK   11  A    between atoms: C_26  and  C_27
REMARK                            x       y       z     vdW  Elec       q    Type
REMARK                         _______ _______ _______ _____ _____    ______ ____
ROOT
ATOM      1  N   UNL     1       4.610   5.983  17.865  0.00  0.00    +0.000 N 
ATOM      2  C   UNL     1       5.881   5.679  18.294  0.00  0.00    +0.000 C 
ATOM      3  O   UNL     1       6.122   4.998  19.288  0.00  0.00    +0.000 OA
ATOM      4  H   UNL     1       4.497   6.521  17.012  0.00  0.00    +0.000 HD
ENDROOT
BRANCH   1   5
ATOM      5  C   UNL     1       3.397   5.458  18.488  0.00  0.00    +0.000 C 
BRANCH   5   6
ATOM      6  C   UNL     1       2.606   6.583  19.154  0.00  0.00    +0.000 A 
ATOM      7  C   UNL     1       2.093   6.430  20.449  0.00  0.00    +0.000 A 
ATOM      8  C   UNL     1       1.336   7.450  21.051  0.00  0.00    +0.000 A 
ATOM      9  C   UNL     1       1.076   8.667  20.394  0.00  0.00    +0.000 A 
ATOM     10  C   UNL     1       1.643   8.825  19.121  0.00  0.00    +0.000 A 
ATOM     11  C   UNL     1       2.390   7.810  18.515  0.00  0.00    +0.000 A 
BRANCH   9  12
ATOM     12  C   UNL     1       0.237   9.729  21.000  0.00  0.00    +0.000 A 
ATOM     13  C   UNL     1      -0.239  10.819  20.248  0.00  0.00    +0.000 A 
ATOM     14  C   UNL     1      -1.017  11.827  20.830  0.00  0.00    +0.000 A 
ATOM     15  C   UNL     1      -1.348  11.764  22.179  0.00  0.00    +0.000 A 
ATOM     16  C   UNL     1      -0.899  10.696  22.949  0.00  0.00    +0.000 A 
ATOM     17  C   UNL     1      -0.114   9.696  22.365  0.00  0.00    +0.000 A 
ENDBRANCH   9  12
ENDBRANCH   5   6
BRANCH   5  18
ATOM     18  C   UNL     1       2.540   4.588  17.552  0.00  0.00    +0.000 C 
BRANCH  18  20
ATOM     19  O   UNL     1       1.814   3.159  19.351  0.00  0.00    +0.000 OA
ATOM     20  C   UNL     1       2.194   3.273  18.194  0.00  0.00    +0.000 C 
BRANCH  20  21
ATOM     21  O   UNL     1       2.308   2.209  17.367  0.00  0.00    +0.000 OA
ATOM     22  H   UNL     1       3.204   1.815  17.337  0.00  0.00    +0.000 HD
ENDBRANCH  20  21
ENDBRANCH  18  20
ENDBRANCH   5  18
ENDBRANCH   1   5
BRANCH   2  23
ATOM     23  C   UNL     1       6.990   6.275  17.456  0.00  0.00    +0.000 C 
BRANCH  23  24
ATOM     24  C   UNL     1       7.887   7.194  18.285  0.00  0.00    +0.000 C 
BRANCH  24  25
ATOM     25  C   UNL     1       8.365   8.409  17.484  0.00  0.00    +0.000 C 
BRANCH  25  26
ATOM     26  C   UNL     1       7.779   9.713  18.029  0.00  0.00    +0.000 C 
BRANCH  26  27
ATOM     27  C   UNL     1       8.866  10.658  18.476  0.00  0.00    +0.000 A 
ATOM     28  C   UNL     1       9.559  10.424  19.659  0.00  0.00    +0.000 A 
ATOM     29  C   UNL     1      10.548  11.323  20.040  0.00  0.00    +0.000 A 
ATOM     30  C   UNL     1      10.838  12.413  19.219  0.00  0.00    +0.000 A 
ATOM     31  C   UNL     1      10.106  12.569  18.039  0.00  0.00    +0.000 A 
ATOM     32  N   UNL     1       9.135  11.711  17.666  0.00  0.00    +0.000 NA
ATOM     33  N   UNL     1      10.385  13.600  17.153  0.00  0.00    +0.000 N 
ATOM     34  C   UNL     1      11.003  14.784  17.706  0.00  0.00    +0.000 C 
ATOM     35  C   UNL     1      12.243  14.372  18.493  0.00  0.00    +0.000 C 
ATOM     36  C   UNL     1      11.843  13.449  19.642  0.00  0.00    +0.000 C 
ATOM     37  H   UNL     1       9.620  13.703  16.495  0.00  0.00    +0.000 HD
ENDBRANCH  26  27
ENDBRANCH  25  26
ENDBRANCH  24  25
ENDBRANCH  23  24
ENDBRANCH   2  23
TORSDOF 11
ENDMDL
MODEL 6
REMARK VINA RESULT:      -7.9      5.383      9.330
REMARK  Name = 
REMARK  11 active torsions:
REMARK  status: ('A' for Active; 'I' for Inactive)
REMARK    1  A    between atoms: C_2  and  O_3
REMARK    2  A    between atoms: C_2  and  C_4
REMARK    3  A    between atoms: C_4  and  C_5
REMARK    4  A    between atoms: C_5  and  N_6
REMARK    5  A    between atoms: C_5  and  C_23
REMARK    6  A    between atoms: C_7  and  C_9
REMARK    7  A    between atoms: C_9  and  C_10
REMARK    8  A    between atoms: C_10  and  C_11
REMARK    9  A    between atoms: C_11  and  C_12
REMARK   10  A    between atoms: C_12  and  C_13
REMARK   11  A    between atoms: C_26  and  C_27
REMARK                            x       y       z     vdW  Elec       q    Type
REMARK                         _______ _______ _______ _____ _____    ______ ____
ROOT
ATOM      1  N   UNL     1       0.062  10.466  20.914  0.00  0.00    +0.000 N 
ATOM      2  C   UNL     1      -0.111  11.522  21.778  0.00  0.00    +0.000 C 
ATOM      3  O   UNL     1       0.574  12.542  21.756  0.00  0.00    +0.000 OA
ATOM      4  H   UNL     1      -0.571   9.675  20.975  0.00  0.00    +0.000 HD
ENDROOT
BRANCH   1   5
ATOM      5  C   UNL     1       1.020  10.471  19.809  0.00  0.00    +0.000 C 
BRANCH   5   6
ATOM      6  C   UNL     1       1.480   9.048  19.494  0.00  0.00    +0.000 A 
ATOM      7  C   UNL     1       1.978   8.720  18.226  0.00  0.00    +0.000 A 
ATOM      8  C   UNL     1       2.370   7.404  17.923  0.00  0.00    +0.000 A 
ATOM      9  C   UNL     1       2.297   6.371  18.875  0.00  0.00    +0.000 A 
ATOM     10  C   UNL     1       1.849   6.728  20.154  0.00  0.00    +0.000 A 
ATOM     11  C   UNL     1       1.450   8.034  20.459  0.00  0.00    +0.000 A 
BRANCH   9  12
ATOM     12  C   UNL     1       2.660   4.969  18.550  0.00  0.00    +0.000 A 
ATOM     13  C   UNL     1       3.995   4.577  18.342  0.00  0.00    +0.000 A 
ATOM     14  C   UNL     1       4.328   3.256  18.019  0.00  0.00    +0.000 A 
ATOM     15  C   UNL     1       3.333   2.290  17.908  0.00  0.00    +0.000 A 
ATOM     16  C   UNL     1       2.005   2.645  18.115  0.00  0.00    +0.000 A 
ATOM     17  C   UNL     1       1.675   3.968  18.427  0.00  0.00    +0.000 A 
ENDBRANCH   9  12
ENDBRANCH   5   6
BRANCH   5  18
ATOM     18  C   UNL     1       0.539  11.240  18.568  0.00  0.00    +0.000 C 
BRANCH  18  20
ATOM     19  O   UNL     1      -1.840  11.427  18.901  0.00  0.00    +0.000 OA
ATOM     20  C   UNL     1      -0.906  10.949  18.271  0.00  0.00    +0.000 C 
BRANCH  20  21
ATOM     21  O   UNL     1      -1.098  10.129  17.213  0.00  0.00    +0.000 OA
ATOM     22  H   UNL     1      -1.442  10.574  16.413  0.00  0.00    +0.000 HD
ENDBRANCH  20  21
ENDBRANCH  18  20
ENDBRANCH   5  18
ENDBRANCH   1   5
BRANCH   2  23
ATOM     23  C   UNL     1      -1.208  11.328  22.800  0.00  0.00    +0.000 C 
BRANCH  23  24
ATOM     24  C   UNL     1      -1.583  12.646  23.477  0.00  0.00    +0.000 C 
BRANCH  24  25
ATOM     25  C   UNL     1      -2.713  13.372  22.741  0.00  0.00    +0.000 C 
BRANCH  25  26
ATOM     26  C   UNL     1      -4.084  12.795  23.097  0.00  0.00    +0.000 C 
BRANCH  26  27
ATOM     27  C   UNL     1      -5.002  12.782  21.901  0.00  0.00    +0.000 A 
ATOM     28  C   UNL     1      -6.370  12.974  22.061  0.00  0.00    +0.000 A 
ATOM     29  C   UNL     1      -7.183  12.946  20.935  0.00  0.00    +0.000 A 
ATOM     30  C   UNL     1      -6.608  12.757  19.678  0.00  0.00    +0.000 A 
ATOM     31  C   UNL     1      -5.223  12.587  19.600  0.00  0.00    +0.000 A 
ATOM     32  N   UNL     1      -4.427  12.598  20.687  0.00  0.00    +0.000 NA
ATOM     33  N   UNL     1      -4.585  12.451  18.375  0.00  0.00    +0.000 N 
ATOM     34  C   UNL     1      -5.376  11.926  17.284  0.00  0.00    +0.000 C 
ATOM     35  C   UNL     1      -6.653  12.750  17.160  0.00  0.00    +0.000 C 
ATOM     36  C   UNL     1      -7.467  12.639  18.448  0.00  0.00    +0.000 C 
ATOM     37  H   UNL     1      -3.643  12.101  18.516  0.00  0.00    +0.000 HD
ENDBRANCH  26  27
ENDBRANCH  25  26
ENDBRANCH  24  25
ENDBRANCH  23  24
ENDBRANCH   2  23
TORSDOF 11
ENDMDL
MODEL 7
REMARK VINA RESULT:      -7.8      2.660      7.734
REMARK  Name = 
REMARK  11 active torsions:
REMARK  status: ('A' for Active; 'I' for Inactive)
REMARK    1  A    between atoms: C_2  and  O_3
REMARK    2  A    between atoms: C_2  and  C_4
REMARK    3  A    between atoms: C_4  and  C_5
REMARK    4  A    between atoms: C_5  and  N_6
REMARK    5  A    between atoms: C_5  and  C_23
REMARK    6  A    between atoms: C_7  and  C_9
REMARK    7  A    between atoms: C_9  and  C_10
REMARK    8  A    between atoms: C_10  and  C_11
REMARK    9  A    between atoms: C_11  and  C_12
REMARK   10  A    between atoms: C_12  and  C_13
REMARK   11  A    between atoms: C_26  and  C_27
REMARK                            x       y       z     vdW  Elec       q    Type
REMARK                         _______ _______ _______ _____ _____    ______ ____
ROOT
ATOM      1  N   UNL     1       5.087   5.653  18.431  0.00  0.00    +0.000 N 
ATOM      2  C   UNL     1       5.297   6.146  17.164  0.00  0.00    +0.000 C 
ATOM      3  O   UNL     1       4.472   6.072  16.257  0.00  0.00    +0.000 OA
ATOM      4  H   UNL     1       5.806   5.788  19.135  0.00  0.00    +0.000 HD
ENDROOT
BRANCH   1   5
ATOM      5  C   UNL     1       3.824   5.065  18.873  0.00  0.00    +0.000 C 
BRANCH   5   6
ATOM      6  C   UNL     1       2.901   6.142  19.442  0.00  0.00    +0.000 A 
ATOM      7  C   UNL     1       2.756   7.376  18.797  0.00  0.00    +0.000 A 
ATOM      8  C   UNL     1       1.935   8.382  19.336  0.00  0.00    +0.000 A 
ATOM      9  C   UNL     1       1.214   8.190  20.529  0.00  0.00    +0.000 A 
ATOM     10  C   UNL     1       1.327   6.929  21.134  0.00  0.00    +0.000 A 
ATOM     11  C   UNL     1       2.150   5.928  20.604  0.00  0.00    +0.000 A 
BRANCH   9  12
ATOM     12  C   UNL     1       0.385   9.261  21.134  0.00  0.00    +0.000 A 
ATOM     13  C   UNL     1       0.002   9.229  22.487  0.00  0.00    +0.000 A 
ATOM     14  C   UNL     1      -0.795  10.234  23.047  0.00  0.00    +0.000 A 
ATOM     15  C   UNL     1      -1.220  11.305  22.268  0.00  0.00    +0.000 A 
ATOM     16  C   UNL     1      -0.854  11.370  20.929  0.00  0.00    +0.000 A 
ATOM     17  C   UNL     1      -0.066  10.357  20.371  0.00  0.00    +0.000 A 
ENDBRANCH   9  12
ENDBRANCH   5   6
BRANCH   5  18
ATOM     18  C   UNL     1       3.142   4.180  17.816  0.00  0.00    +0.000 C 
BRANCH  18  20
ATOM     19  O   UNL     1       2.753   2.576  19.571  0.00  0.00    +0.000 OA
ATOM     20  C   UNL     1       2.802   2.826  18.375  0.00  0.00    +0.000 C 
BRANCH  20  21
ATOM     21  O   UNL     1       2.518   1.897  17.434  0.00  0.00    +0.000 OA
ATOM     22  H   UNL     1       1.733   2.103  16.886  0.00  0.00    +0.000 HD
ENDBRANCH  20  21
ENDBRANCH  18  20
ENDBRANCH   5  18
ENDBRANCH   1   5
BRANCH   2  23
ATOM     23  C   UNL     1       6.655   6.775  16.949  0.00  0.00    +0.000 C 
BRANCH  23  24
ATOM     24  C   UNL     1       7.621   6.426  18.081  0.00  0.00    +0.000 C 
BRANCH  24  25
ATOM     25  C   UNL     1       8.325   7.666  18.641  0.00  0.00    +0.000 C 
BRANCH  25  26
ATOM     26  C   UNL     1       8.065   8.903  17.780  0.00  0.00    +0.000 C 
BRANCH  26  27
ATOM     27  C   UNL     1       8.700  10.132  18.381  0.00  0.00    +0.000 A 
ATOM     28  C   UNL     1       9.360  10.057  19.603  0.00  0.00    +0.000 A 
ATOM     29  C   UNL     1       9.924  11.213  20.127  0.00  0.00    +0.000 A 
ATOM     30  C   UNL     1       9.840  12.405  19.406  0.00  0.00    +0.000 A 
ATOM     31  C   UNL     1       9.173  12.394  18.179  0.00  0.00    +0.000 A 
ATOM     32  N   UNL     1       8.610  11.281  17.668  0.00  0.00    +0.000 NA
ATOM     33  N   UNL     1       9.105  13.533  17.390  0.00  0.00    +0.000 N 
ATOM     34  C   UNL     1       9.210  14.804  18.070  0.00  0.00    +0.000 C 
ATOM     35  C   UNL     1      10.466  14.798  18.935  0.00  0.00    +0.000 C 
ATOM     36  C   UNL     1      10.368  13.691  19.982  0.00  0.00    +0.000 C 
ATOM     37  H   UNL     1       8.395  13.413  16.674  0.00  0.00    +0.000 HD
ENDBRANCH  26  27
ENDBRANCH  25  26
ENDBRANCH  24  25
ENDBRANCH  23  24
ENDBRANCH   2  23
TORSDOF 11
ENDMDL
MODEL 8
REMARK VINA RESULT:      -7.8      2.709      7.868
REMARK  Name = 
REMARK  11 active torsions:
REMARK  status: ('A' for Active; 'I' for Inactive)
REMARK    1  A    between atoms: C_2  and  O_3
REMARK    2  A    between atoms: C_2  and  C_4
REMARK    3  A    between atoms: C_4  and  C_5
REMARK    4  A    between atoms: C_5  and  N_6
REMARK    5  A    between atoms: C_5  and  C_23
REMARK    6  A    between atoms: C_7  and  C_9
REMARK    7  A    between atoms: C_9  and  C_10
REMARK    8  A    between atoms: C_10  and  C_11
REMARK    9  A    between atoms: C_11  and  C_12
REMARK   10  A    between atoms: C_12  and  C_13
REMARK   11  A    between atoms: C_26  and  C_27
REMARK                            x       y       z     vdW  Elec       q    Type
REMARK                         _______ _______ _______ _____ _____    ______ ____
ROOT
ATOM      1  N   UNL     1       4.169   6.478  17.984  0.00  0.00    +0.000 N 
ATOM      2  C   UNL     1       5.391   5.858  18.103  0.00  0.00    +0.000 C 
ATOM      3  O   UNL     1       5.698   5.128  19.042  0.00  0.00    +0.000 OA
ATOM      4  H   UNL     1       3.981   7.037  17.157  0.00  0.00    +0.000 HD
ENDROOT
BRANCH   1   5
ATOM      5  C   UNL     1       3.060   6.269  18.914  0.00  0.00    +0.000 C 
BRANCH   5   6
ATOM      6  C   UNL     1       2.259   7.558  19.090  0.00  0.00    +0.000 A 
ATOM      7  C   UNL     1       2.033   8.416  18.006  0.00  0.00    +0.000 A 
ATOM      8  C   UNL     1       1.325   9.619  18.172  0.00  0.00    +0.000 A 
ATOM      9  C   UNL     1       0.802  10.006  19.419  0.00  0.00    +0.000 A 
ATOM     10  C   UNL     1       0.990   9.110  20.482  0.00  0.00    +0.000 A 
ATOM     11  C   UNL     1       1.700   7.915  20.323  0.00  0.00    +0.000 A 
BRANCH   9  12
ATOM     12  C   UNL     1       0.098  11.297  19.617  0.00  0.00    +0.000 A 
ATOM     13  C   UNL     1      -0.777  11.508  20.698  0.00  0.00    +0.000 A 
ATOM     14  C   UNL     1      -1.451  12.723  20.869  0.00  0.00    +0.000 A 
ATOM     15  C   UNL     1      -1.256  13.764  19.967  0.00  0.00    +0.000 A 
ATOM     16  C   UNL     1      -0.392  13.589  18.892  0.00  0.00    +0.000 A 
ATOM     17  C   UNL     1       0.271  12.370  18.719  0.00  0.00    +0.000 A 
ENDBRANCH   9  12
ENDBRANCH   5   6
BRANCH   5  18
ATOM     18  C   UNL     1       2.183   5.052  18.578  0.00  0.00    +0.000 C 
BRANCH  18  20
ATOM     19  O   UNL     1       1.247   4.307  20.669  0.00  0.00    +0.000 OA
ATOM     20  C   UNL     1       2.047   4.133  19.761  0.00  0.00    +0.000 C 
BRANCH  20  21
ATOM     21  O   UNL     1       2.873   3.063  19.725  0.00  0.00    +0.000 OA
ATOM     22  H   UNL     1       3.678   3.191  19.183  0.00  0.00    +0.000 HD
ENDBRANCH  20  21
ENDBRANCH  18  20
ENDBRANCH   5  18
ENDBRANCH   1   5
BRANCH   2  23
ATOM     23  C   UNL     1       6.365   6.164  16.987  0.00  0.00    +0.000 C 
BRANCH  23  24
ATOM     24  C   UNL     1       7.790   6.322  17.515  0.00  0.00    +0.000 C 
BRANCH  24  25
ATOM     25  C   UNL     1       7.955   7.587  18.363  0.00  0.00    +0.000 C 
BRANCH  25  26
ATOM     26  C   UNL     1       7.963   8.850  17.500  0.00  0.00    +0.000 C 
BRANCH  26  27
ATOM     27  C   UNL     1       8.627   9.999  18.217  0.00  0.00    +0.000 A 
ATOM     28  C   UNL     1       9.201   9.809  19.470  0.00  0.00    +0.000 A 
ATOM     29  C   UNL     1       9.795  10.894  20.103  0.00  0.00    +0.000 A 
ATOM     30  C   UNL     1       9.826  12.131  19.457  0.00  0.00    +0.000 A 
ATOM     31  C   UNL     1       9.241  12.235  18.193  0.00  0.00    +0.000 A 
ATOM     32  N   UNL     1       8.650  11.193  17.577  0.00  0.00    +0.000 NA
ATOM     33  N   UNL     1       9.289  13.423  17.476  0.00  0.00    +0.000 N 
ATOM     34  C   UNL     1       9.423  14.641  18.244  0.00  0.00    +0.000 C 
ATOM     35  C   UNL     1      10.617  14.506  19.182  0.00  0.00    +0.000 C 
ATOM     36  C   UNL     1      10.388  13.345  20.147  0.00  0.00    +0.000 C 
ATOM     37  H   UNL     1       8.623  13.391  16.713  0.00  0.00    +0.000 HD
ENDBRANCH  26  27
ENDBRANCH  25  26
ENDBRANCH  24  25
ENDBRANCH  23  24
ENDBRANCH   2  23
TORSDOF 11
ENDMDL
MODEL 9
REMARK VINA RESULT:      -7.7      2.667      7.804
REMARK  Name = 
REMARK  11 active torsions:
REMARK  status: ('A' for Active; 'I' for Inactive)
REMARK    1  A    between atoms: C_2  and  O_3
REMARK    2  A    between atoms: C_2  and  C_4
REMARK    3  A    between atoms: C_4  and  C_5
REMARK    4  A    between atoms: C_5  and  N_6
REMARK    5  A    between atoms: C_5  and  C_23
REMARK    6  A    between atoms: C_7  and  C_9
REMARK    7  A    between atoms: C_9  and  C_10
REMARK    8  A    between atoms: C_10  and  C_11
REMARK    9  A    between atoms: C_11  and  C_12
REMARK   10  A    between atoms: C_12  and  C_13
REMARK   11  A    between atoms: C_26  and  C_27
REMARK                            x       y       z     vdW  Elec       q    Type
REMARK                         _______ _______ _______ _____ _____    ______ ____
ROOT
ATOM      1  N   UNL     1       5.257   5.577  19.022  0.00  0.00    +0.000 N 
ATOM      2  C   UNL     1       6.149   5.028  18.131  0.00  0.00    +0.000 C 
ATOM      3  O   UNL     1       5.878   4.092  17.382  0.00  0.00    +0.000 OA
ATOM      4  H   UNL     1       5.549   6.374  19.579  0.00  0.00    +0.000 HD
ENDROOT
BRANCH   1   5
ATOM      5  C   UNL     1       3.855   5.173  19.121  0.00  0.00    +0.000 C 
BRANCH   5   6
ATOM      6  C   UNL     1       2.953   6.397  19.267  0.00  0.00    +0.000 A 
ATOM      7  C   UNL     1       2.838   7.332  18.230  0.00  0.00    +0.000 A 
ATOM      8  C   UNL     1       2.036   8.477  18.375  0.00  0.00    +0.000 A 
ATOM      9  C   UNL     1       1.304   8.726  19.550  0.00  0.00    +0.000 A 
ATOM     10  C   UNL     1       1.387   7.753  20.558  0.00  0.00    +0.000 A 
ATOM     11  C   UNL     1       2.190   6.616  20.421  0.00  0.00    +0.000 A 
BRANCH   9  12
ATOM     12  C   UNL     1       0.495   9.955  19.734  0.00  0.00    +0.000 A 
ATOM     13  C   UNL     1      -0.172  10.573  18.660  0.00  0.00    +0.000 A 
ATOM     14  C   UNL     1      -0.920  11.743  18.837  0.00  0.00    +0.000 A 
ATOM     15  C   UNL     1      -1.029  12.319  20.099  0.00  0.00    +0.000 A 
ATOM     16  C   UNL     1      -0.387  11.730  21.182  0.00  0.00    +0.000 A 
ATOM     17  C   UNL     1       0.368  10.566  20.998  0.00  0.00    +0.000 A 
ENDBRANCH   9  12
ENDBRANCH   5   6
BRANCH   5  18
ATOM     18  C   UNL     1       3.401   4.215  18.006  0.00  0.00    +0.000 C 
BRANCH  18  20
ATOM     19  O   UNL     1       1.638   3.079  19.192  0.00  0.00    +0.000 OA
ATOM     20  C   UNL     1       1.989   3.748  18.230  0.00  0.00    +0.000 C 
BRANCH  20  21
ATOM     21  O   UNL     1       1.116   4.159  17.283  0.00  0.00    +0.000 OA
ATOM     22  H   UNL     1       1.074   5.129  17.165  0.00  0.00    +0.000 HD
ENDBRANCH  20  21
ENDBRANCH  18  20
ENDBRANCH   5  18
ENDBRANCH   1   5
BRANCH   2  23
ATOM     23  C   UNL     1       7.526   5.650  18.152  0.00  0.00    +0.000 C 
BRANCH  23  24
ATOM     24  C   UNL     1       7.539   7.010  17.454  0.00  0.00    +0.000 C 
BRANCH  24  25
ATOM     25  C   UNL     1       8.229   8.086  18.298  0.00  0.00    +0.000 C 
BRANCH  25  26
ATOM     26  C   UNL     1       8.243   9.441  17.589  0.00  0.00    +0.000 C 
BRANCH  26  27
ATOM     27  C   UNL     1       8.890  10.500  18.444  0.00  0.00    +0.000 A 
ATOM     28  C   UNL     1       9.246  10.223  19.760  0.00  0.00    +0.000 A 
ATOM     29  C   UNL     1       9.832  11.229  20.518  0.00  0.00    +0.000 A 
ATOM     30  C   UNL     1      10.075  12.473  19.936  0.00  0.00    +0.000 A 
ATOM     31  C   UNL     1       9.703  12.667  18.604  0.00  0.00    +0.000 A 
ATOM     32  N   UNL     1       9.120  11.704  17.863  0.00  0.00    +0.000 NA
ATOM     33  N   UNL     1       9.969  13.863  17.952  0.00  0.00    +0.000 N 
ATOM     34  C   UNL     1      10.093  15.042  18.780  0.00  0.00    +0.000 C 
ATOM     35  C   UNL     1      11.112  14.767  19.880  0.00  0.00    +0.000 C 
ATOM     36  C   UNL     1      10.632  13.608  20.752  0.00  0.00    +0.000 C 
ATOM     37  H   UNL     1       9.427  13.916  17.096  0.00  0.00    +0.000 HD
ENDBRANCH  26  27
ENDBRANCH  25  26
ENDBRANCH  24  25
ENDBRANCH  23  24
ENDBRANCH   2  23
TORSDOF 11
ENDMDL
