MODEL 1
REMARK VINA RESULT:      -7.6      0.000      0.000
REMARK  Name = 
REMARK  3 active torsions:
REMARK  status: ('A' for Active; 'I' for Inactive)
REMARK    1  A    between atoms: N_3  and  C_4
REMARK    2  A    between atoms: C_4  and  C_5
REMARK    3  A    between atoms: C_8  and  C_9
REMARK                            x       y       z     vdW  Elec       q    Type
REMARK                         _______ _______ _______ _____ _____    ______ ____
ROOT
ATOM      1  O   UNL     1       2.187   9.173  17.371  0.00  0.00    +0.000 OA
ATOM      2  C   UNL     1       1.874   8.767  18.490  0.00  0.00    +0.000 C 
ATOM      3  N   UNL     1       1.095   9.513  19.336  0.00  0.00    +0.000 N 
ATOM      4  N   UNL     1       2.253   7.523  18.971  0.00  0.00    +0.000 N 
ATOM      5  C   UNL     1       1.947   7.009  20.303  0.00  0.00    +0.000 C 
ATOM      6  C   UNL     1       1.897   5.466  20.425  0.00  0.00    +0.000 C 
ATOM      7  N   UNL     1       2.771   4.694  19.531  0.00  0.00    +0.000 NA
ATOM      8  C   UNL     1       2.317   3.292  19.395  0.00  0.00    +0.000 C 
ATOM      9  C   UNL     1       3.333   2.494  18.561  0.00  0.00    +0.000 C 
ATOM     10  O   UNL     1       3.525   3.081  17.263  0.00  0.00    +0.000 OA
ATOM     11  C   UNL     1       3.924   4.459  17.381  0.00  0.00    +0.000 C 
ATOM     12  C   UNL     1       2.873   5.271  18.166  0.00  0.00    +0.000 C 
ATOM     13  C   UNL     1       3.249   6.759  18.216  0.00  0.00    +0.000 C 
ATOM     14  H   UNL     1       1.293   9.403  20.323  0.00  0.00    +0.000 HD
ENDROOT
BRANCH   3  15
ATOM     15  C   UNL     1       0.659  10.834  18.950  0.00  0.00    +0.000 C 
BRANCH  15  16
ATOM     16  C   UNL     1      -0.800  10.864  18.566  0.00  0.00    +0.000 A 
ATOM     17  C   UNL     1      -1.683  11.770  19.163  0.00  0.00    +0.000 A 
ATOM     18  C   UNL     1      -3.018  11.843  18.743  0.00  0.00    +0.000 A 
ATOM     19  C   UNL     1      -3.518  11.021  17.721  0.00  0.00    +0.000 A 
ATOM     20  C   UNL     1      -2.627  10.099  17.150  0.00  0.00    +0.000 A 
ATOM     21  C   UNL     1      -1.290  10.020  17.562  0.00  0.00    +0.000 A 
BRANCH  19  22
ATOM     22  C   UNL     1      -4.964  11.113  17.288  0.00  0.00    +0.000 C 
ATOM     23  C   UNL     1      -6.063  10.934  18.312  0.00  0.00    +0.000 C 
ATOM     24  C   UNL     1      -5.828  12.282  17.701  0.00  0.00    +0.000 C 
ENDBRANCH  19  22
ENDBRANCH  15  16
ENDBRANCH   3  15
TORSDOF 3
ENDMDL
MODEL 2
REMARK VINA RESULT:      -7.5      0.167      1.014
REMARK  Name = 
REMARK  3 active torsions:
REMARK  status: ('A' for Active; 'I' for Inactive)
REMARK    1  A    between atoms: N_3  and  C_4
REMARK    2  A    between atoms: C_4  and  C_5
REMARK    3  A    between atoms: C_8  and  C_9
REMARK                            x       y       z     vdW  Elec       q    Type
REMARK                         _______ _______ _______ _____ _____    ______ ____
ROOT
ATOM      1  O   UNL     1       2.190   9.208  17.309  0.00  0.00    +0.000 OA
ATOM      2  C   UNL     1       1.873   8.819  18.433  0.00  0.00    +0.000 C 
ATOM      3  N   UNL     1       1.099   9.581  19.268  0.00  0.00    +0.000 N 
ATOM      4  N   UNL     1       2.244   7.579  18.930  0.00  0.00    +0.000 N 
ATOM      5  C   UNL     1       1.934   7.084  20.268  0.00  0.00    +0.000 C 
ATOM      6  C   UNL     1       1.874   5.543  20.410  0.00  0.00    +0.000 C 
ATOM      7  N   UNL     1       2.744   4.753  19.528  0.00  0.00    +0.000 NA
ATOM      8  C   UNL     1       2.281   3.353  19.409  0.00  0.00    +0.000 C 
ATOM      9  C   UNL     1       3.293   2.538  18.587  0.00  0.00    +0.000 C 
ATOM     10  O   UNL     1       3.489   3.106  17.281  0.00  0.00    +0.000 OA
ATOM     11  C   UNL     1       3.898   4.483  17.382  0.00  0.00    +0.000 C 
ATOM     12  C   UNL     1       2.851   5.313  18.155  0.00  0.00    +0.000 C 
ATOM     13  C   UNL     1       3.236   6.798  18.186  0.00  0.00    +0.000 C 
ATOM     14  H   UNL     1       1.296   9.482  20.256  0.00  0.00    +0.000 HD
ENDROOT
BRANCH   3  15
ATOM     15  C   UNL     1       0.671  10.899  18.864  0.00  0.00    +0.000 C 
BRANCH  15  16
ATOM     16  C   UNL     1      -0.786  10.932  18.475  0.00  0.00    +0.000 A 
ATOM     17  C   UNL     1      -1.308  10.010  17.560  0.00  0.00    +0.000 A 
ATOM     18  C   UNL     1      -2.677   9.998  17.266  0.00  0.00    +0.000 A 
ATOM     19  C   UNL     1      -3.571  10.897  17.868  0.00  0.00    +0.000 A 
ATOM     20  C   UNL     1      -3.030  11.833  18.763  0.00  0.00    +0.000 A 
ATOM     21  C   UNL     1      -1.661  11.851  19.065  0.00  0.00    +0.000 A 
BRANCH  19  22
ATOM     22  C   UNL     1      -5.045  10.870  17.531  0.00  0.00    +0.000 C 
ATOM     23  C   UNL     1      -6.059  10.656  18.634  0.00  0.00    +0.000 C 
ATOM     24  C   UNL     1      -5.963  11.991  17.960  0.00  0.00    +0.000 C 
ENDBRANCH  19  22
ENDBRANCH  15  16
ENDBRANCH   3  15
TORSDOF 3
ENDMDL
MODEL 3
REMARK VINA RESULT:      -7.5      2.573      8.425
REMARK  Name = 
REMARK  3 active torsions:
REMARK  status: ('A' for Active; 'I' for Inactive)
REMARK    1  A    between atoms: N_3  and  C_4
REMARK    2  A    between atoms: C_4  and  C_5
REMARK    3  A    between atoms: C_8  and  C_9
REMARK                            x       y       z     vdW  Elec       q    Type
REMARK                         _______ _______ _______ _____ _____    ______ ____
ROOT
ATOM      1  O   UNL     1       0.555  11.077  19.592  0.00  0.00    +0.000 OA
ATOM      2  C   UNL     1       0.018  10.605  18.591  0.00  0.00    +0.000 C 
ATOM      3  N   UNL     1       0.666   9.713  17.777  0.00  0.00    +0.000 N 
ATOM      4  N   UNL     1      -1.285  10.909  18.224  0.00  0.00    +0.000 N 
ATOM      5  C   UNL     1      -1.957  10.413  17.026  0.00  0.00    +0.000 C 
ATOM      6  C   UNL     1      -3.501  10.344  17.112  0.00  0.00    +0.000 C 
ATOM      7  N   UNL     1      -4.172  11.338  17.962  0.00  0.00    +0.000 NA
ATOM      8  C   UNL     1      -5.536  10.906  18.340  0.00  0.00    +0.000 C 
ATOM      9  C   UNL     1      -6.242  12.032  19.114  0.00  0.00    +0.000 C 
ATOM     10  O   UNL     1      -5.500  12.410  20.286  0.00  0.00    +0.000 OA
ATOM     11  C   UNL     1      -4.156  12.790  19.936  0.00  0.00    +0.000 C 
ATOM     12  C   UNL     1      -3.428  11.637  19.213  0.00  0.00    +0.000 C 
ATOM     13  C   UNL     1      -1.967  12.004  18.919  0.00  0.00    +0.000 C 
ATOM     14  H   UNL     1       0.428   9.766  16.794  0.00  0.00    +0.000 HD
ENDROOT
BRANCH   3  15
ATOM     15  C   UNL     1       2.034   9.339  18.050  0.00  0.00    +0.000 C 
BRANCH  15  16
ATOM     16  C   UNL     1       2.132   7.996  18.732  0.00  0.00    +0.000 A 
ATOM     17  C   UNL     1       1.821   7.854  20.088  0.00  0.00    +0.000 A 
ATOM     18  C   UNL     1       1.839   6.590  20.692  0.00  0.00    +0.000 A 
ATOM     19  C   UNL     1       2.166   5.430  19.972  0.00  0.00    +0.000 A 
ATOM     20  C   UNL     1       2.501   5.592  18.619  0.00  0.00    +0.000 A 
ATOM     21  C   UNL     1       2.484   6.853  18.005  0.00  0.00    +0.000 A 
BRANCH  19  22
ATOM     22  C   UNL     1       2.184   4.077  20.646  0.00  0.00    +0.000 C 
ATOM     23  C   UNL     1       0.955   3.197  20.588  0.00  0.00    +0.000 C 
ATOM     24  C   UNL     1       2.188   2.802  19.834  0.00  0.00    +0.000 C 
ENDBRANCH  19  22
ENDBRANCH  15  16
ENDBRANCH   3  15
TORSDOF 3
ENDMDL
MODEL 4
REMARK VINA RESULT:      -7.3      2.557      8.539
REMARK  Name = 
REMARK  3 active torsions:
REMARK  status: ('A' for Active; 'I' for Inactive)
REMARK    1  A    between atoms: N_3  and  C_4
REMARK    2  A    between atoms: C_4  and  C_5
REMARK    3  A    between atoms: C_8  and  C_9
REMARK                            x       y       z     vdW  Elec       q    Type
REMARK                         _______ _______ _______ _____ _____    ______ ____
ROOT
ATOM      1  O   UNL     1       0.590  11.010  19.635  0.00  0.00    +0.000 OA
ATOM      2  C   UNL     1       0.053  10.555  18.626  0.00  0.00    +0.000 C 
ATOM      3  N   UNL     1       0.684   9.643  17.822  0.00  0.00    +0.000 N 
ATOM      4  N   UNL     1      -1.234  10.899  18.241  0.00  0.00    +0.000 N 
ATOM      5  C   UNL     1      -1.904  10.424  17.033  0.00  0.00    +0.000 C 
ATOM      6  C   UNL     1      -3.451  10.403  17.096  0.00  0.00    +0.000 C 
ATOM      7  N   UNL     1      -4.102  11.417  17.937  0.00  0.00    +0.000 NA
ATOM      8  C   UNL     1      -5.484  11.029  18.295  0.00  0.00    +0.000 C 
ATOM      9  C   UNL     1      -6.166  12.176  19.060  0.00  0.00    +0.000 C 
ATOM     10  O   UNL     1      -5.429  12.531  20.242  0.00  0.00    +0.000 OA
ATOM     11  C   UNL     1      -4.069  12.869  19.912  0.00  0.00    +0.000 C 
ATOM     12  C   UNL     1      -3.368  11.694  19.198  0.00  0.00    +0.000 C 
ATOM     13  C   UNL     1      -1.892  12.015  18.926  0.00  0.00    +0.000 C 
ATOM     14  H   UNL     1       0.463   9.703  16.835  0.00  0.00    +0.000 HD
ENDROOT
BRANCH   3  15
ATOM     15  C   UNL     1       2.036   9.226  18.114  0.00  0.00    +0.000 C 
BRANCH  15  16
ATOM     16  C   UNL     1       2.090   7.837  18.699  0.00  0.00    +0.000 A 
ATOM     17  C   UNL     1       2.432   6.735  17.908  0.00  0.00    +0.000 A 
ATOM     18  C   UNL     1       2.557   5.462  18.477  0.00  0.00    +0.000 A 
ATOM     19  C   UNL     1       2.346   5.240  19.847  0.00  0.00    +0.000 A 
ATOM     20  C   UNL     1       1.978   6.350  20.624  0.00  0.00    +0.000 A 
ATOM     21  C   UNL     1       1.853   7.628  20.063  0.00  0.00    +0.000 A 
BRANCH  19  22
ATOM     22  C   UNL     1       2.481   3.856  20.440  0.00  0.00    +0.000 C 
ATOM     23  C   UNL     1       1.267   3.177  21.035  0.00  0.00    +0.000 C 
ATOM     24  C   UNL     1       1.863   2.654  19.763  0.00  0.00    +0.000 C 
ENDBRANCH  19  22
ENDBRANCH  15  16
ENDBRANCH   3  15
TORSDOF 3
ENDMDL
MODEL 5
REMARK VINA RESULT:      -7.3      2.589      8.909
REMARK  Name = 
REMARK  3 active torsions:
REMARK  status: ('A' for Active; 'I' for Inactive)
REMARK    1  A    between atoms: N_3  and  C_4
REMARK    2  A    between atoms: C_4  and  C_5
REMARK    3  A    between atoms: C_8  and  C_9
REMARK                            x       y       z     vdW  Elec       q    Type
REMARK                         _______ _______ _______ _____ _____    ______ ____
ROOT
ATOM      1  O   UNL     1       1.788   7.747  21.492  0.00  0.00    +0.000 OA
ATOM      2  C   UNL     1       1.692   8.068  20.307  0.00  0.00    +0.000 C 
ATOM      3  N   UNL     1       2.188   7.279  19.303  0.00  0.00    +0.000 N 
ATOM      4  N   UNL     1       1.053   9.227  19.894  0.00  0.00    +0.000 N 
ATOM      5  C   UNL     1       0.946   9.679  18.510  0.00  0.00    +0.000 C 
ATOM      6  C   UNL     1      -0.267  10.590  18.199  0.00  0.00    +0.000 C 
ATOM      7  N   UNL     1      -0.754  11.453  19.284  0.00  0.00    +0.000 NA
ATOM      8  C   UNL     1      -2.144  11.902  19.049  0.00  0.00    +0.000 C 
ATOM      9  C   UNL     1      -2.559  12.905  20.138  0.00  0.00    +0.000 C 
ATOM     10  O   UNL     1      -2.440  12.333  21.452  0.00  0.00    +0.000 OA
ATOM     11  C   UNL     1      -1.102  11.852  21.678  0.00  0.00    +0.000 C 
ATOM     12  C   UNL     1      -0.709  10.801  20.618  0.00  0.00    +0.000 C 
ATOM     13  C   UNL     1       0.681  10.218  20.908  0.00  0.00    +0.000 C 
ATOM     14  H   UNL     1       2.537   7.774  18.491  0.00  0.00    +0.000 HD
ENDROOT
BRANCH   3  15
ATOM     15  C   UNL     1       2.892   6.058  19.616  0.00  0.00    +0.000 C 
BRANCH  15  16
ATOM     16  C   UNL     1       3.656   5.521  18.431  0.00  0.00    +0.000 A 
ATOM     17  C   UNL     1       4.599   6.312  17.764  0.00  0.00    +0.000 A 
ATOM     18  C   UNL     1       5.359   5.779  16.716  0.00  0.00    +0.000 A 
ATOM     19  C   UNL     1       5.210   4.447  16.296  0.00  0.00    +0.000 A 
ATOM     20  C   UNL     1       4.243   3.674  16.957  0.00  0.00    +0.000 A 
ATOM     21  C   UNL     1       3.478   4.198  18.008  0.00  0.00    +0.000 A 
BRANCH  19  22
ATOM     22  C   UNL     1       6.038   3.894  15.159  0.00  0.00    +0.000 C 
ATOM     23  C   UNL     1       5.567   4.080  13.733  0.00  0.00    +0.000 C 
ATOM     24  C   UNL     1       6.781   4.813  14.216  0.00  0.00    +0.000 C 
ENDBRANCH  19  22
ENDBRANCH  15  16
ENDBRANCH   3  15
TORSDOF 3
ENDMDL
MODEL 6
REMARK VINA RESULT:      -7.1      1.596      2.329
REMARK  Name = 
REMARK  3 active torsions:
REMARK  status: ('A' for Active; 'I' for Inactive)
REMARK    1  A    between atoms: N_3  and  C_4
REMARK    2  A    between atoms: C_4  and  C_5
REMARK    3  A    between atoms: C_8  and  C_9
REMARK                            x       y       z     vdW  Elec       q    Type
REMARK                         _______ _______ _______ _____ _____    ______ ____
ROOT
ATOM      1  O   UNL     1       0.967   8.011  21.387  0.00  0.00    +0.000 OA
ATOM      2  C   UNL     1       1.442   7.929  20.254  0.00  0.00    +0.000 C 
ATOM      3  N   UNL     1       1.562   9.025  19.441  0.00  0.00    +0.000 N 
ATOM      4  N   UNL     1       1.918   6.739  19.725  0.00  0.00    +0.000 N 
ATOM      5  C   UNL     1       2.452   6.574  18.376  0.00  0.00    +0.000 C 
ATOM      6  C   UNL     1       3.457   5.411  18.196  0.00  0.00    +0.000 C 
ATOM      7  N   UNL     1       3.280   4.232  19.055  0.00  0.00    +0.000 NA
ATOM      8  C   UNL     1       4.516   3.423  19.140  0.00  0.00    +0.000 C 
ATOM      9  C   UNL     1       4.244   2.138  19.939  0.00  0.00    +0.000 C 
ATOM     10  O   UNL     1       3.753   2.432  21.257  0.00  0.00    +0.000 OA
ATOM     11  C   UNL     1       2.575   3.255  21.190  0.00  0.00    +0.000 C 
ATOM     12  C   UNL     1       2.866   4.573  20.441  0.00  0.00    +0.000 C 
ATOM     13  C   UNL     1       1.638   5.495  20.446  0.00  0.00    +0.000 C 
ATOM     14  H   UNL     1       1.456   8.847  18.450  0.00  0.00    +0.000 HD
ENDROOT
BRANCH   3  15
ATOM     15  C   UNL     1       1.080  10.314  19.879  0.00  0.00    +0.000 C 
BRANCH  15  16
ATOM     16  C   UNL     1      -0.250  10.666  19.258  0.00  0.00    +0.000 A 
ATOM     17  C   UNL     1      -0.699  10.015  18.104  0.00  0.00    +0.000 A 
ATOM     18  C   UNL     1      -1.969  10.293  17.581  0.00  0.00    +0.000 A 
ATOM     19  C   UNL     1      -2.831  11.222  18.184  0.00  0.00    +0.000 A 
ATOM     20  C   UNL     1      -2.356  11.885  19.326  0.00  0.00    +0.000 A 
ATOM     21  C   UNL     1      -1.088  11.613  19.858  0.00  0.00    +0.000 A 
BRANCH  19  22
ATOM     22  C   UNL     1      -4.195  11.509  17.599  0.00  0.00    +0.000 C 
ATOM     23  C   UNL     1      -5.399  10.740  18.097  0.00  0.00    +0.000 C 
ATOM     24  C   UNL     1      -5.264  12.198  18.416  0.00  0.00    +0.000 C 
ENDBRANCH  19  22
ENDBRANCH  15  16
ENDBRANCH   3  15
TORSDOF 3
ENDMDL
MODEL 7
REMARK VINA RESULT:      -7.1      2.868      8.960
REMARK  Name = 
REMARK  3 active torsions:
REMARK  status: ('A' for Active; 'I' for Inactive)
REMARK    1  A    between atoms: N_3  and  C_4
REMARK    2  A    between atoms: C_4  and  C_5
REMARK    3  A    between atoms: C_8  and  C_9
REMARK                            x       y       z     vdW  Elec       q    Type
REMARK                         _______ _______ _______ _____ _____    ______ ____
ROOT
ATOM      1  O   UNL     1       1.228   7.695  21.559  0.00  0.00    +0.000 OA
ATOM      2  C   UNL     1       1.397   8.325  20.515  0.00  0.00    +0.000 C 
ATOM      3  N   UNL     1       2.062   7.785  19.446  0.00  0.00    +0.000 N 
ATOM      4  N   UNL     1       0.907   9.608  20.326  0.00  0.00    +0.000 N 
ATOM      5  C   UNL     1       1.113  10.417  19.128  0.00  0.00    +0.000 C 
ATOM      6  C   UNL     1       0.031  11.490  18.856  0.00  0.00    +0.000 C 
ATOM      7  N   UNL     1      -0.639  12.080  20.023  0.00  0.00    +0.000 NA
ATOM      8  C   UNL     1      -1.928  12.707  19.659  0.00  0.00    +0.000 C 
ATOM      9  C   UNL     1      -2.524  13.422  20.883  0.00  0.00    +0.000 C 
ATOM     10  O   UNL     1      -2.708  12.516  21.983  0.00  0.00    +0.000 OA
ATOM     11  C   UNL     1      -1.468  11.865  22.320  0.00  0.00    +0.000 C 
ATOM     12  C   UNL     1      -0.903  11.097  21.106  0.00  0.00    +0.000 C 
ATOM     13  C   UNL     1       0.370  10.327  21.484  0.00  0.00    +0.000 C 
ATOM     14  H   UNL     1       2.594   8.440  18.886  0.00  0.00    +0.000 HD
ENDROOT
BRANCH   3  15
ATOM     15  C   UNL     1       2.635   6.462  19.537  0.00  0.00    +0.000 C 
BRANCH  15  16
ATOM     16  C   UNL     1       3.487   6.127  18.338  0.00  0.00    +0.000 A 
ATOM     17  C   UNL     1       3.648   4.802  17.917  0.00  0.00    +0.000 A 
ATOM     18  C   UNL     1       4.376   4.508  16.757  0.00  0.00    +0.000 A 
ATOM     19  C   UNL     1       4.967   5.516  15.980  0.00  0.00    +0.000 A 
ATOM     20  C   UNL     1       4.820   6.838  16.429  0.00  0.00    +0.000 A 
ATOM     21  C   UNL     1       4.092   7.142  17.587  0.00  0.00    +0.000 A 
BRANCH  19  22
ATOM     22  C   UNL     1       5.754   5.176  14.734  0.00  0.00    +0.000 C 
ATOM     23  C   UNL     1       7.198   4.743  14.857  0.00  0.00    +0.000 C 
ATOM     24  C   UNL     1       6.159   3.751  14.433  0.00  0.00    +0.000 C 
ENDBRANCH  19  22
ENDBRANCH  15  16
ENDBRANCH   3  15
TORSDOF 3
ENDMDL
MODEL 8
REMARK VINA RESULT:      -7.1      1.653      2.386
REMARK  Name = 
REMARK  3 active torsions:
REMARK  status: ('A' for Active; 'I' for Inactive)
REMARK    1  A    between atoms: N_3  and  C_4
REMARK    2  A    between atoms: C_4  and  C_5
REMARK    3  A    between atoms: C_8  and  C_9
REMARK                            x       y       z     vdW  Elec       q    Type
REMARK                         _______ _______ _______ _____ _____    ______ ____
ROOT
ATOM      1  O   UNL     1       1.096   8.025  21.016  0.00  0.00    +0.000 OA
ATOM      2  C   UNL     1       1.474   8.407  19.909  0.00  0.00    +0.000 C 
ATOM      3  N   UNL     1       1.153   9.649  19.426  0.00  0.00    +0.000 N 
ATOM      4  N   UNL     1       2.274   7.634  19.080  0.00  0.00    +0.000 N 
ATOM      5  C   UNL     1       2.716   8.019  17.743  0.00  0.00    +0.000 C 
ATOM      6  C   UNL     1       4.032   7.360  17.263  0.00  0.00    +0.000 C 
ATOM      7  N   UNL     1       4.332   6.013  17.767  0.00  0.00    +0.000 NA
ATOM      8  C   UNL     1       5.769   5.686  17.641  0.00  0.00    +0.000 C 
ATOM      9  C   UNL     1       6.009   4.225  18.056  0.00  0.00    +0.000 C 
ATOM     10  O   UNL     1       5.562   3.980  19.400  0.00  0.00    +0.000 OA
ATOM     11  C   UNL     1       4.175   4.336  19.547  0.00  0.00    +0.000 C 
ATOM     12  C   UNL     1       3.946   5.819  19.188  0.00  0.00    +0.000 C 
ATOM     13  C   UNL     1       2.486   6.228  19.432  0.00  0.00    +0.000 C 
ATOM     14  H   UNL     1       1.029   9.708  18.422  0.00  0.00    +0.000 HD
ENDROOT
BRANCH   3  15
ATOM     15  C   UNL     1       0.307  10.533  20.193  0.00  0.00    +0.000 C 
BRANCH  15  16
ATOM     16  C   UNL     1      -0.967  10.878  19.463  0.00  0.00    +0.000 A 
ATOM     17  C   UNL     1      -1.337  10.196  18.299  0.00  0.00    +0.000 A 
ATOM     18  C   UNL     1      -2.560  10.469  17.674  0.00  0.00    +0.000 A 
ATOM     19  C   UNL     1      -3.453  11.426  18.181  0.00  0.00    +0.000 A 
ATOM     20  C   UNL     1      -3.056  12.121  19.334  0.00  0.00    +0.000 A 
ATOM     21  C   UNL     1      -1.835  11.853  19.968  0.00  0.00    +0.000 A 
BRANCH  19  22
ATOM     22  C   UNL     1      -4.765  11.710  17.486  0.00  0.00    +0.000 C 
ATOM     23  C   UNL     1      -6.045  11.120  18.037  0.00  0.00    +0.000 C 
ATOM     24  C   UNL     1      -5.809  12.597  18.124  0.00  0.00    +0.000 C 
ENDBRANCH  19  22
ENDBRANCH  15  16
ENDBRANCH   3  15
TORSDOF 3
ENDMDL
MODEL 9
REMARK VINA RESULT:      -7.1      2.952      8.933
REMARK  Name = 
REMARK  3 active torsions:
REMARK  status: ('A' for Active; 'I' for Inactive)
REMARK    1  A    between atoms: N_3  and  C_4
REMARK    2  A    between atoms: C_4  and  C_5
REMARK    3  A    between atoms: C_8  and  C_9
REMARK                            x       y       z     vdW  Elec       q    Type
REMARK                         _______ _______ _______ _____ _____    ______ ____
ROOT
ATOM      1  O   UNL     1       1.280   7.625  21.635  0.00  0.00    +0.000 OA
ATOM      2  C   UNL     1       1.412   8.283  20.604  0.00  0.00    +0.000 C 
ATOM      3  N   UNL     1       2.023   7.766  19.492  0.00  0.00    +0.000 N 
ATOM      4  N   UNL     1       0.931   9.577  20.473  0.00  0.00    +0.000 N 
ATOM      5  C   UNL     1       1.097  10.418  19.290  0.00  0.00    +0.000 C 
ATOM      6  C   UNL     1       0.018  11.512  19.096  0.00  0.00    +0.000 C 
ATOM      7  N   UNL     1      -0.593  12.075  20.308  0.00  0.00    +0.000 NA
ATOM      8  C   UNL     1      -1.889  12.728  20.018  0.00  0.00    +0.000 C 
ATOM      9  C   UNL     1      -2.422  13.414  21.287  0.00  0.00    +0.000 C 
ATOM     10  O   UNL     1      -2.570  12.479  22.368  0.00  0.00    +0.000 OA
ATOM     11  C   UNL     1      -1.326  11.803  22.632  0.00  0.00    +0.000 C 
ATOM     12  C   UNL     1      -0.824  11.065  21.373  0.00  0.00    +0.000 C 
ATOM     13  C   UNL     1       0.454  10.268  21.673  0.00  0.00    +0.000 C 
ATOM     14  H   UNL     1       2.539   8.431  18.928  0.00  0.00    +0.000 HD
ENDROOT
BRANCH   3  15
ATOM     15  C   UNL     1       2.581   6.435  19.520  0.00  0.00    +0.000 C 
BRANCH  15  16
ATOM     16  C   UNL     1       3.360   6.117  18.267  0.00  0.00    +0.000 A 
ATOM     17  C   UNL     1       3.903   7.137  17.479  0.00  0.00    +0.000 A 
ATOM     18  C   UNL     1       4.690   6.830  16.362  0.00  0.00    +0.000 A 
ATOM     19  C   UNL     1       4.963   5.504  15.991  0.00  0.00    +0.000 A 
ATOM     20  C   UNL     1       4.390   4.491  16.776  0.00  0.00    +0.000 A 
ATOM     21  C   UNL     1       3.602   4.789  17.896  0.00  0.00    +0.000 A 
BRANCH  19  22
ATOM     22  C   UNL     1       5.811   5.195  14.778  0.00  0.00    +0.000 C 
ATOM     23  C   UNL     1       7.225   4.690  14.965  0.00  0.00    +0.000 C 
ATOM     24  C   UNL     1       6.174   3.771  14.423  0.00  0.00    +0.000 C 
ENDBRANCH  19  22
ENDBRANCH  15  16
ENDBRANCH   3  15
TORSDOF 3
ENDMDL
