MODEL 1
REMARK VINA RESULT:      -7.1      0.000      0.000
REMARK  Name = 
REMARK  14 active torsions:
REMARK  status: ('A' for Active; 'I' for Inactive)
REMARK    1  A    between atoms: C_1  and  C_2
REMARK    2  A    between atoms: C_2  and  C_3
REMARK    3  A    between atoms: C_3  and  C_4
REMARK    4  A    between atoms: C_3  and  N_5
REMARK    5  A    between atoms: N_5  and  C_15
REMARK    6  A    between atoms: C_6  and  C_8
REMARK    7  A    between atoms: C_8  and  N_9
REMARK    8  A    between atoms: C_8  and  C_10
REMARK    9  A    between atoms: C_10  and  C_11
REMARK   10  A    between atoms: C_11  and  O_13
REMARK   11  A    between atoms: O_13  and  C_14
REMARK   12  A    between atoms: C_15  and  C_16
REMARK   13  A    between atoms: N_18  and  C_19
REMARK   14  A    between atoms: C_19  and  C_20
REMARK                            x       y       z     vdW  Elec       q    Type
REMARK                         _______ _______ _______ _____ _____    ______ ____
ROOT
ATOM      1  C   UNL     1       2.489   4.699  19.730  0.00  0.00    +0.000 C 
ATOM      2  C   UNL     1       2.415   4.779  21.295  0.00  0.00    +0.000 C 
ATOM      3  C   UNL     1       2.093   3.449  21.978  0.00  0.00    +0.000 C 
ATOM      4  N   UNL     1       0.835   2.872  21.532  0.00  0.00    +0.000 NA
ATOM      5  C   UNL     1       0.799   2.707  20.083  0.00  0.00    +0.000 C 
ATOM      6  C   UNL     1       1.162   3.966  19.302  0.00  0.00    +0.000 C 
ATOM      7  H   UNL     1       0.059   3.459  21.838  0.00  0.00    +0.000 HD
ENDROOT
BRANCH   1   8
ATOM      8  C   UNL     1       2.290   6.224  19.274  0.00  0.00    +0.000 C 
ATOM      9  O   UNL     1       2.053   6.493  18.089  0.00  0.00    +0.000 OA
ATOM     10  N   UNL     1       2.159   7.213  20.229  0.00  0.00    +0.000 N 
ATOM     11  H   UNL     1       2.337   7.004  21.198  0.00  0.00    +0.000 HD
BRANCH  10  12
ATOM     12  C   UNL     1       1.698   8.550  19.856  0.00  0.00    +0.000 C 
BRANCH  12  13
ATOM     13  C   UNL     1       0.850   9.254  20.890  0.00  0.00    +0.000 A 
ATOM     14  C   UNL     1       0.808   8.796  22.217  0.00  0.00    +0.000 A 
ATOM     15  C   UNL     1       0.034   9.456  23.182  0.00  0.00    +0.000 A 
ATOM     16  C   UNL     1      -0.733  10.567  22.829  0.00  0.00    +0.000 A 
ATOM     17  C   UNL     1      -0.683  11.049  21.522  0.00  0.00    +0.000 A 
ATOM     18  C   UNL     1       0.115  10.410  20.566  0.00  0.00    +0.000 A 
ENDBRANCH  12  13
ENDBRANCH  10  12
ENDBRANCH   1   8
BRANCH   1  19
ATOM     19  N   UNL     1       3.765   4.001  19.168  0.00  0.00    +0.000 N 
ATOM     20  C   UNL     1       4.857   4.830  18.846  0.00  0.00    +0.000 C 
ATOM     21  O   UNL     1       4.811   6.050  19.074  0.00  0.00    +0.000 OA
BRANCH  19  22
ATOM     22  C   UNL     1       3.870   2.484  19.199  0.00  0.00    +0.000 C 
ATOM     23  C   UNL     1       5.065   1.980  20.012  0.00  0.00    +0.000 C 
BRANCH  22  25
ATOM     24  C   UNL     1       2.778   2.185  16.835  0.00  0.00    +0.000 C 
ATOM     25  C   UNL     1       3.794   1.701  17.853  0.00  0.00    +0.000 C 
ENDBRANCH  22  25
ENDBRANCH  19  22
BRANCH  20  26
ATOM     26  C   UNL     1       6.109   4.264  18.102  0.00  0.00    +0.000 C 
BRANCH  26  27
ATOM     27  N   UNL     1       5.763   3.984  16.692  0.00  0.00    +0.000 NA
ATOM     28  H   UNL     1       6.546   3.492  16.257  0.00  0.00    +0.000 HD
ATOM     29  H   UNL     1       5.678   4.854  16.179  0.00  0.00    +0.000 HD
ENDBRANCH  26  27
BRANCH  26  30
ATOM     30  C   UNL     1       7.262   5.256  18.042  0.00  0.00    +0.000 C 
BRANCH  30  31
ATOM     31  C   UNL     1       7.245   5.950  16.721  0.00  0.00    +0.000 C 
ATOM     32  O   UNL     1       7.669   5.501  15.666  0.00  0.00    +0.000 OA
BRANCH  31  33
ATOM     33  O   UNL     1       6.750   7.193  16.912  0.00  0.00    +0.000 OA
ATOM     34  C   UNL     1       7.672   7.999  17.610  0.00  0.00    +0.000 C 
ENDBRANCH  31  33
ENDBRANCH  30  31
ENDBRANCH  26  30
ENDBRANCH  20  26
ENDBRANCH   1  19
TORSDOF 11
ENDMDL
MODEL 2
REMARK VINA RESULT:      -7.1      0.488      1.109
REMARK  Name = 
REMARK  14 active torsions:
REMARK  status: ('A' for Active; 'I' for Inactive)
REMARK    1  A    between atoms: C_1  and  C_2
REMARK    2  A    between atoms: C_2  and  C_3
REMARK    3  A    between atoms: C_3  and  C_4
REMARK    4  A    between atoms: C_3  and  N_5
REMARK    5  A    between atoms: N_5  and  C_15
REMARK    6  A    between atoms: C_6  and  C_8
REMARK    7  A    between atoms: C_8  and  N_9
REMARK    8  A    between atoms: C_8  and  C_10
REMARK    9  A    between atoms: C_10  and  C_11
REMARK   10  A    between atoms: C_11  and  O_13
REMARK   11  A    between atoms: O_13  and  C_14
REMARK   12  A    between atoms: C_15  and  C_16
REMARK   13  A    between atoms: N_18  and  C_19
REMARK   14  A    between atoms: C_19  and  C_20
REMARK                            x       y       z     vdW  Elec       q    Type
REMARK                         _______ _______ _______ _____ _____    ______ ____
ROOT
ATOM      1  C   UNL     1       2.608   4.884  19.360  0.00  0.00    +0.000 C 
ATOM      2  C   UNL     1       2.582   4.878  20.929  0.00  0.00    +0.000 C 
ATOM      3  C   UNL     1       2.283   3.512  21.548  0.00  0.00    +0.000 C 
ATOM      4  N   UNL     1       1.013   2.956  21.110  0.00  0.00    +0.000 NA
ATOM      5  C   UNL     1       0.932   2.870  19.655  0.00  0.00    +0.000 C 
ATOM      6  C   UNL     1       1.268   4.172  18.934  0.00  0.00    +0.000 C 
ATOM      7  H   UNL     1       0.246   3.523  21.471  0.00  0.00    +0.000 HD
ENDROOT
BRANCH   1   8
ATOM      8  C   UNL     1       2.392   6.430  18.995  0.00  0.00    +0.000 C 
ATOM      9  O   UNL     1       2.248   6.777  17.815  0.00  0.00    +0.000 OA
ATOM     10  N   UNL     1       2.144   7.344  20.000  0.00  0.00    +0.000 N 
ATOM     11  H   UNL     1       2.245   7.071  20.964  0.00  0.00    +0.000 HD
BRANCH  10  12
ATOM     12  C   UNL     1       1.668   8.690  19.681  0.00  0.00    +0.000 C 
BRANCH  12  13
ATOM     13  C   UNL     1       0.881   9.374  20.776  0.00  0.00    +0.000 A 
ATOM     14  C   UNL     1       0.627   8.721  21.993  0.00  0.00    +0.000 A 
ATOM     15  C   UNL     1      -0.088   9.360  23.016  0.00  0.00    +0.000 A 
ATOM     16  C   UNL     1      -0.585  10.650  22.828  0.00  0.00    +0.000 A 
ATOM     17  C   UNL     1      -0.320  11.321  21.635  0.00  0.00    +0.000 A 
ATOM     18  C   UNL     1       0.423  10.697  20.626  0.00  0.00    +0.000 A 
ENDBRANCH  12  13
ENDBRANCH  10  12
ENDBRANCH   1   8
BRANCH   1  19
ATOM     19  N   UNL     1       3.866   4.221  18.721  0.00  0.00    +0.000 N 
ATOM     20  C   UNL     1       5.113   4.806  19.015  0.00  0.00    +0.000 C 
ATOM     21  O   UNL     1       5.192   5.760  19.806  0.00  0.00    +0.000 OA
BRANCH  19  22
ATOM     22  C   UNL     1       3.736   2.881  18.015  0.00  0.00    +0.000 C 
ATOM     23  C   UNL     1       2.573   2.835  17.020  0.00  0.00    +0.000 C 
BRANCH  22  25
ATOM     24  C   UNL     1       4.657   1.550  20.076  0.00  0.00    +0.000 C 
ATOM     25  C   UNL     1       3.733   1.580  18.873  0.00  0.00    +0.000 C 
ENDBRANCH  22  25
ENDBRANCH  19  22
BRANCH  20  26
ATOM     26  C   UNL     1       6.414   4.345  18.282  0.00  0.00    +0.000 C 
BRANCH  26  27
ATOM     27  N   UNL     1       6.081   3.905  16.911  0.00  0.00    +0.000 NA
ATOM     28  H   UNL     1       6.680   3.112  16.669  0.00  0.00    +0.000 HD
ATOM     29  H   UNL     1       6.322   4.632  16.247  0.00  0.00    +0.000 HD
ENDBRANCH  26  27
BRANCH  26  30
ATOM     30  C   UNL     1       7.427   5.467  18.108  0.00  0.00    +0.000 C 
BRANCH  30  31
ATOM     31  C   UNL     1       7.241   6.092  16.766  0.00  0.00    +0.000 C 
ATOM     32  O   UNL     1       7.664   5.658  15.704  0.00  0.00    +0.000 OA
BRANCH  31  33
ATOM     33  O   UNL     1       6.590   7.264  16.940  0.00  0.00    +0.000 OA
ATOM     34  C   UNL     1       7.432   8.220  17.545  0.00  0.00    +0.000 C 
ENDBRANCH  31  33
ENDBRANCH  30  31
ENDBRANCH  26  30
ENDBRANCH  20  26
ENDBRANCH   1  19
TORSDOF 11
ENDMDL
MODEL 3
REMARK VINA RESULT:      -7.0      3.468      8.465
REMARK  Name = 
REMARK  14 active torsions:
REMARK  status: ('A' for Active; 'I' for Inactive)
REMARK    1  A    between atoms: C_1  and  C_2
REMARK    2  A    between atoms: C_2  and  C_3
REMARK    3  A    between atoms: C_3  and  C_4
REMARK    4  A    between atoms: C_3  and  N_5
REMARK    5  A    between atoms: N_5  and  C_15
REMARK    6  A    between atoms: C_6  and  C_8
REMARK    7  A    between atoms: C_8  and  N_9
REMARK    8  A    between atoms: C_8  and  C_10
REMARK    9  A    between atoms: C_10  and  C_11
REMARK   10  A    between atoms: C_11  and  O_13
REMARK   11  A    between atoms: O_13  and  C_14
REMARK   12  A    between atoms: C_15  and  C_16
REMARK   13  A    between atoms: N_18  and  C_19
REMARK   14  A    between atoms: C_19  and  C_20
REMARK                            x       y       z     vdW  Elec       q    Type
REMARK                         _______ _______ _______ _____ _____    ______ ____
ROOT
ATOM      1  C   UNL     1       6.026   5.637  16.835  0.00  0.00    +0.000 C 
ATOM      2  C   UNL     1       7.152   4.646  17.297  0.00  0.00    +0.000 C 
ATOM      3  C   UNL     1       7.685   4.914  18.705  0.00  0.00    +0.000 C 
ATOM      4  N   UNL     1       8.223   6.256  18.863  0.00  0.00    +0.000 NA
ATOM      5  C   UNL     1       7.244   7.276  18.501  0.00  0.00    +0.000 C 
ATOM      6  C   UNL     1       6.606   7.071  17.131  0.00  0.00    +0.000 C 
ATOM      7  H   UNL     1       9.064   6.360  18.297  0.00  0.00    +0.000 HD
ENDROOT
BRANCH   1   8
ATOM      8  C   UNL     1       6.048   5.499  15.237  0.00  0.00    +0.000 C 
ATOM      9  O   UNL     1       5.320   6.217  14.540  0.00  0.00    +0.000 OA
ATOM     10  N   UNL     1       7.032   4.744  14.628  0.00  0.00    +0.000 N 
ATOM     11  H   UNL     1       7.639   4.165  15.185  0.00  0.00    +0.000 HD
BRANCH  10  12
ATOM     12  C   UNL     1       7.247   4.829  13.184  0.00  0.00    +0.000 C 
BRANCH  12  13
ATOM     13  C   UNL     1       6.710   3.667  12.380  0.00  0.00    +0.000 A 
ATOM     14  C   UNL     1       7.583   2.739  11.790  0.00  0.00    +0.000 A 
ATOM     15  C   UNL     1       7.087   1.650  11.057  0.00  0.00    +0.000 A 
ATOM     16  C   UNL     1       5.712   1.490  10.880  0.00  0.00    +0.000 A 
ATOM     17  C   UNL     1       4.832   2.389  11.480  0.00  0.00    +0.000 A 
ATOM     18  C   UNL     1       5.325   3.457  12.239  0.00  0.00    +0.000 A 
ENDBRANCH  12  13
ENDBRANCH  10  12
ENDBRANCH   1   8
BRANCH   1  19
ATOM     19  N   UNL     1       4.635   5.406  17.501  0.00  0.00    +0.000 N 
ATOM     20  C   UNL     1       4.160   4.081  17.544  0.00  0.00    +0.000 C 
ATOM     21  O   UNL     1       4.864   3.145  17.130  0.00  0.00    +0.000 OA
BRANCH  19  22
ATOM     22  C   UNL     1       3.964   6.541  18.258  0.00  0.00    +0.000 C 
ATOM     23  C   UNL     1       3.485   6.133  19.654  0.00  0.00    +0.000 C 
BRANCH  22  25
ATOM     24  C   UNL     1       2.296   8.563  18.285  0.00  0.00    +0.000 C 
ATOM     25  C   UNL     1       2.842   7.355  17.545  0.00  0.00    +0.000 C 
ENDBRANCH  22  25
ENDBRANCH  19  22
BRANCH  20  26
ATOM     26  C   UNL     1       2.705   3.759  18.012  0.00  0.00    +0.000 C 
BRANCH  26  27
ATOM     27  N   UNL     1       1.938   3.183  16.887  0.00  0.00    +0.000 NA
ATOM     28  H   UNL     1       1.350   2.429  17.247  0.00  0.00    +0.000 HD
ATOM     29  H   UNL     1       2.570   2.737  16.231  0.00  0.00    +0.000 HD
ENDBRANCH  26  27
BRANCH  26  30
ATOM     30  C   UNL     1       2.654   2.707  19.111  0.00  0.00    +0.000 C 
BRANCH  30  31
ATOM     31  C   UNL     1       1.258   2.603  19.628  0.00  0.00    +0.000 C 
ATOM     32  O   UNL     1       0.259   2.374  18.961  0.00  0.00    +0.000 OA
BRANCH  31  33
ATOM     33  O   UNL     1       1.282   2.883  20.950  0.00  0.00    +0.000 OA
ATOM     34  C   UNL     1       2.587   2.752  21.466  0.00  0.00    +0.000 C 
ENDBRANCH  31  33
ENDBRANCH  30  31
ENDBRANCH  26  30
ENDBRANCH  20  26
ENDBRANCH   1  19
TORSDOF 11
ENDMDL
MODEL 4
REMARK VINA RESULT:      -7.0      3.170      6.820
REMARK  Name = 
REMARK  14 active torsions:
REMARK  status: ('A' for Active; 'I' for Inactive)
REMARK    1  A    between atoms: C_1  and  C_2
REMARK    2  A    between atoms: C_2  and  C_3
REMARK    3  A    between atoms: C_3  and  C_4
REMARK    4  A    between atoms: C_3  and  N_5
REMARK    5  A    between atoms: N_5  and  C_15
REMARK    6  A    between atoms: C_6  and  C_8
REMARK    7  A    between atoms: C_8  and  N_9
REMARK    8  A    between atoms: C_8  and  C_10
REMARK    9  A    between atoms: C_10  and  C_11
REMARK   10  A    between atoms: C_11  and  O_13
REMARK   11  A    between atoms: O_13  and  C_14
REMARK   12  A    between atoms: C_15  and  C_16
REMARK   13  A    between atoms: N_18  and  C_19
REMARK   14  A    between atoms: C_19  and  C_20
REMARK                            x       y       z     vdW  Elec       q    Type
REMARK                         _______ _______ _______ _____ _____    ______ ____
ROOT
ATOM      1  C   UNL     1       6.272   5.719  17.492  0.00  0.00    +0.000 C 
ATOM      2  C   UNL     1       5.888   6.748  16.371  0.00  0.00    +0.000 C 
ATOM      3  C   UNL     1       5.324   6.111  15.100  0.00  0.00    +0.000 C 
ATOM      4  N   UNL     1       6.235   5.156  14.491  0.00  0.00    +0.000 NA
ATOM      5  C   UNL     1       6.635   4.114  15.432  0.00  0.00    +0.000 C 
ATOM      6  C   UNL     1       7.163   4.644  16.762  0.00  0.00    +0.000 C 
ATOM      7  H   UNL     1       7.058   5.642  14.136  0.00  0.00    +0.000 HD
ENDROOT
BRANCH   1   8
ATOM      8  C   UNL     1       7.289   6.545  18.416  0.00  0.00    +0.000 C 
ATOM      9  O   UNL     1       7.870   5.987  19.357  0.00  0.00    +0.000 OA
ATOM     10  N   UNL     1       7.690   7.811  18.034  0.00  0.00    +0.000 N 
ATOM     11  H   UNL     1       7.234   8.271  17.263  0.00  0.00    +0.000 HD
BRANCH  10  12
ATOM     12  C   UNL     1       8.818   8.466  18.696  0.00  0.00    +0.000 C 
BRANCH  12  13
ATOM     13  C   UNL     1       8.859   9.971  18.566  0.00  0.00    +0.000 A 
ATOM     14  C   UNL     1       9.693  10.741  19.392  0.00  0.00    +0.000 A 
ATOM     15  C   UNL     1       9.745  12.137  19.263  0.00  0.00    +0.000 A 
ATOM     16  C   UNL     1       8.941  12.786  18.324  0.00  0.00    +0.000 A 
ATOM     17  C   UNL     1       8.126  12.034  17.480  0.00  0.00    +0.000 A 
ATOM     18  C   UNL     1       8.099  10.639  17.586  0.00  0.00    +0.000 A 
ENDBRANCH  12  13
ENDBRANCH  10  12
ENDBRANCH   1   8
BRANCH   1  19
ATOM     19  N   UNL     1       5.062   5.083  18.242  0.00  0.00    +0.000 N 
ATOM     20  C   UNL     1       3.994   5.940  18.572  0.00  0.00    +0.000 C 
ATOM     21  O   UNL     1       4.004   7.127  18.209  0.00  0.00    +0.000 OA
BRANCH  19  22
ATOM     22  C   UNL     1       4.974   3.572  18.386  0.00  0.00    +0.000 C 
ATOM     23  C   UNL     1       4.020   2.926  17.377  0.00  0.00    +0.000 C 
BRANCH  22  25
ATOM     24  C   UNL     1       4.344   1.499  19.861  0.00  0.00    +0.000 C 
ATOM     25  C   UNL     1       4.716   2.969  19.800  0.00  0.00    +0.000 C 
ENDBRANCH  22  25
ENDBRANCH  19  22
BRANCH  20  26
ATOM     26  C   UNL     1       2.823   5.456  19.485  0.00  0.00    +0.000 C 
BRANCH  26  27
ATOM     27  N   UNL     1       2.270   6.606  20.232  0.00  0.00    +0.000 NA
ATOM     28  H   UNL     1       1.501   7.006  19.690  0.00  0.00    +0.000 HD
ATOM     29  H   UNL     1       2.964   7.343  20.294  0.00  0.00    +0.000 HD
ENDBRANCH  26  27
BRANCH  26  30
ATOM     30  C   UNL     1       1.650   4.889  18.697  0.00  0.00    +0.000 C 
BRANCH  30  31
ATOM     31  C   UNL     1       1.123   3.683  19.400  0.00  0.00    +0.000 C 
ATOM     32  O   UNL     1       0.717   2.660  18.870  0.00  0.00    +0.000 OA
BRANCH  31  33
ATOM     33  O   UNL     1       1.101   3.952  20.725  0.00  0.00    +0.000 OA
ATOM     34  C   UNL     1       1.333   2.783  21.478  0.00  0.00    +0.000 C 
ENDBRANCH  31  33
ENDBRANCH  30  31
ENDBRANCH  26  30
ENDBRANCH  20  26
ENDBRANCH   1  19
TORSDOF 11
ENDMDL
MODEL 5
REMARK VINA RESULT:      -7.0      3.422      8.390
REMARK  Name = 
REMARK  14 active torsions:
REMARK  status: ('A' for Active; 'I' for Inactive)
REMARK    1  A    between atoms: C_1  and  C_2
REMARK    2  A    between atoms: C_2  and  C_3
REMARK    3  A    between atoms: C_3  and  C_4
REMARK    4  A    between atoms: C_3  and  N_5
REMARK    5  A    between atoms: N_5  and  C_15
REMARK    6  A    between atoms: C_6  and  C_8
REMARK    7  A    between atoms: C_8  and  N_9
REMARK    8  A    between atoms: C_8  and  C_10
REMARK    9  A    between atoms: C_10  and  C_11
REMARK   10  A    between atoms: C_11  and  O_13
REMARK   11  A    between atoms: O_13  and  C_14
REMARK   12  A    between atoms: C_15  and  C_16
REMARK   13  A    between atoms: N_18  and  C_19
REMARK   14  A    between atoms: C_19  and  C_20
REMARK                            x       y       z     vdW  Elec       q    Type
REMARK                         _______ _______ _______ _____ _____    ______ ____
ROOT
ATOM      1  C   UNL     1       6.056   5.696  16.805  0.00  0.00    +0.000 C 
ATOM      2  C   UNL     1       7.230   4.759  17.259  0.00  0.00    +0.000 C 
ATOM      3  C   UNL     1       7.794   5.083  18.643  0.00  0.00    +0.000 C 
ATOM      4  N   UNL     1       8.287   6.447  18.750  0.00  0.00    +0.000 NA
ATOM      5  C   UNL     1       7.263   7.422  18.391  0.00  0.00    +0.000 C 
ATOM      6  C   UNL     1       6.593   7.158  17.046  0.00  0.00    +0.000 C 
ATOM      7  H   UNL     1       9.107   6.565  18.155  0.00  0.00    +0.000 HD
ENDROOT
BRANCH   1   8
ATOM      8  C   UNL     1       6.036   5.516  15.212  0.00  0.00    +0.000 C 
ATOM      9  O   UNL     1       5.204   6.125  14.527  0.00  0.00    +0.000 OA
ATOM     10  N   UNL     1       7.079   4.864  14.583  0.00  0.00    +0.000 N 
ATOM     11  H   UNL     1       7.769   4.375  15.130  0.00  0.00    +0.000 HD
BRANCH  10  12
ATOM     12  C   UNL     1       7.230   4.932  13.130  0.00  0.00    +0.000 C 
BRANCH  12  13
ATOM     13  C   UNL     1       6.732   3.723  12.371  0.00  0.00    +0.000 A 
ATOM     14  C   UNL     1       5.357   3.492  12.209  0.00  0.00    +0.000 A 
ATOM     15  C   UNL     1       4.893   2.380  11.492  0.00  0.00    +0.000 A 
ATOM     16  C   UNL     1       5.797   1.466  10.950  0.00  0.00    +0.000 A 
ATOM     17  C   UNL     1       7.166   1.693  11.080  0.00  0.00    +0.000 A 
ATOM     18  C   UNL     1       7.630   2.821  11.767  0.00  0.00    +0.000 A 
ENDBRANCH  12  13
ENDBRANCH  10  12
ENDBRANCH   1   8
BRANCH   1  19
ATOM     19  N   UNL     1       4.694   5.436  17.519  0.00  0.00    +0.000 N 
ATOM     20  C   UNL     1       4.290   4.093  17.650  0.00  0.00    +0.000 C 
ATOM     21  O   UNL     1       5.032   3.171  17.273  0.00  0.00    +0.000 OA
BRANCH  19  22
ATOM     22  C   UNL     1       3.982   6.578  18.226  0.00  0.00    +0.000 C 
ATOM     23  C   UNL     1       3.465   6.196  19.616  0.00  0.00    +0.000 C 
BRANCH  22  25
ATOM     24  C   UNL     1       2.221   8.519  18.186  0.00  0.00    +0.000 C 
ATOM     25  C   UNL     1       2.872   7.357  17.458  0.00  0.00    +0.000 C 
ENDBRANCH  22  25
ENDBRANCH  19  22
BRANCH  20  26
ATOM     26  C   UNL     1       2.864   3.726  18.174  0.00  0.00    +0.000 C 
BRANCH  26  27
ATOM     27  N   UNL     1       1.946   3.549  17.028  0.00  0.00    +0.000 NA
ATOM     28  H   UNL     1       2.481   3.187  16.236  0.00  0.00    +0.000 HD
ATOM     29  H   UNL     1       1.598   4.451  16.723  0.00  0.00    +0.000 HD
ENDBRANCH  26  27
BRANCH  26  30
ATOM     30  C   UNL     1       2.829   2.402  18.923  0.00  0.00    +0.000 C 
BRANCH  30  31
ATOM     31  C   UNL     1       3.556   2.551  20.218  0.00  0.00    +0.000 C 
ATOM     32  O   UNL     1       4.626   2.038  20.507  0.00  0.00    +0.000 OA
BRANCH  31  33
ATOM     33  O   UNL     1       2.783   3.292  21.045  0.00  0.00    +0.000 OA
ATOM     34  C   UNL     1       1.713   2.526  21.550  0.00  0.00    +0.000 C 
ENDBRANCH  31  33
ENDBRANCH  30  31
ENDBRANCH  26  30
ENDBRANCH  20  26
ENDBRANCH   1  19
TORSDOF 11
ENDMDL
MODEL 6
REMARK VINA RESULT:      -6.8      2.598      7.413
REMARK  Name = 
REMARK  14 active torsions:
REMARK  status: ('A' for Active; 'I' for Inactive)
REMARK    1  A    between atoms: C_1  and  C_2
REMARK    2  A    between atoms: C_2  and  C_3
REMARK    3  A    between atoms: C_3  and  C_4
REMARK    4  A    between atoms: C_3  and  N_5
REMARK    5  A    between atoms: N_5  and  C_15
REMARK    6  A    between atoms: C_6  and  C_8
REMARK    7  A    between atoms: C_8  and  N_9
REMARK    8  A    between atoms: C_8  and  C_10
REMARK    9  A    between atoms: C_10  and  C_11
REMARK   10  A    between atoms: C_11  and  O_13
REMARK   11  A    between atoms: O_13  and  C_14
REMARK   12  A    between atoms: C_15  and  C_16
REMARK   13  A    between atoms: N_18  and  C_19
REMARK   14  A    between atoms: C_19  and  C_20
REMARK                            x       y       z     vdW  Elec       q    Type
REMARK                         _______ _______ _______ _____ _____    ______ ____
ROOT
ATOM      1  C   UNL     1       4.455   3.953  18.314  0.00  0.00    +0.000 C 
ATOM      2  C   UNL     1       4.200   2.645  17.485  0.00  0.00    +0.000 C 
ATOM      3  C   UNL     1       3.530   1.520  18.275  0.00  0.00    +0.000 C 
ATOM      4  N   UNL     1       4.288   1.124  19.452  0.00  0.00    +0.000 NA
ATOM      5  C   UNL     1       4.553   2.259  20.331  0.00  0.00    +0.000 C 
ATOM      6  C   UNL     1       5.173   3.462  19.628  0.00  0.00    +0.000 C 
ATOM      7  H   UNL     1       5.164   0.688  19.167  0.00  0.00    +0.000 HD
ENDROOT
BRANCH   1   8
ATOM      8  C   UNL     1       5.594   4.706  17.473  0.00  0.00    +0.000 C 
ATOM      9  O   UNL     1       6.768   4.694  17.865  0.00  0.00    +0.000 OA
ATOM     10  N   UNL     1       5.312   5.174  16.204  0.00  0.00    +0.000 N 
ATOM     11  H   UNL     1       4.363   5.178  15.869  0.00  0.00    +0.000 HD
BRANCH  10  12
ATOM     12  C   UNL     1       6.390   5.604  15.314  0.00  0.00    +0.000 C 
BRANCH  12  13
ATOM     13  C   UNL     1       6.496   4.843  14.012  0.00  0.00    +0.000 A 
ATOM     14  C   UNL     1       5.540   3.874  13.667  0.00  0.00    +0.000 A 
ATOM     15  C   UNL     1       5.627   3.177  12.453  0.00  0.00    +0.000 A 
ATOM     16  C   UNL     1       6.687   3.419  11.578  0.00  0.00    +0.000 A 
ATOM     17  C   UNL     1       7.630   4.395  11.894  0.00  0.00    +0.000 A 
ATOM     18  C   UNL     1       7.526   5.114  13.091  0.00  0.00    +0.000 A 
ENDBRANCH  12  13
ENDBRANCH  10  12
ENDBRANCH   1   8
BRANCH   1  19
ATOM     19  N   UNL     1       3.181   4.801  18.611  0.00  0.00    +0.000 N 
ATOM     20  C   UNL     1       3.337   6.200  18.637  0.00  0.00    +0.000 C 
ATOM     21  O   UNL     1       4.432   6.717  18.362  0.00  0.00    +0.000 OA
BRANCH  19  22
ATOM     22  C   UNL     1       1.817   4.129  18.637  0.00  0.00    +0.000 C 
ATOM     23  C   UNL     1       0.934   4.513  17.446  0.00  0.00    +0.000 C 
BRANCH  22  25
ATOM     24  C   UNL     1       1.115   3.032  20.912  0.00  0.00    +0.000 C 
ATOM     25  C   UNL     1       0.975   4.195  19.947  0.00  0.00    +0.000 C 
ENDBRANCH  22  25
ENDBRANCH  19  22
BRANCH  20  26
ATOM     26  C   UNL     1       2.177   7.134  19.110  0.00  0.00    +0.000 C 
BRANCH  26  27
ATOM     27  N   UNL     1       2.274   7.344  20.570  0.00  0.00    +0.000 NA
ATOM     28  H   UNL     1       2.966   6.693  20.947  0.00  0.00    +0.000 HD
ATOM     29  H   UNL     1       1.399   7.089  21.014  0.00  0.00    +0.000 HD
ENDBRANCH  26  27
BRANCH  26  30
ATOM     30  C   UNL     1       2.249   8.526  18.499  0.00  0.00    +0.000 C 
BRANCH  30  31
ATOM     31  C   UNL     1       1.070   9.322  18.949  0.00  0.00    +0.000 C 
ATOM     32  O   UNL     1       0.848   9.699  20.090  0.00  0.00    +0.000 OA
BRANCH  31  33
ATOM     33  O   UNL     1       0.250   9.487  17.886  0.00  0.00    +0.000 OA
ATOM     34  C   UNL     1      -0.694  10.503  18.134  0.00  0.00    +0.000 C 
ENDBRANCH  31  33
ENDBRANCH  30  31
ENDBRANCH  26  30
ENDBRANCH  20  26
ENDBRANCH   1  19
TORSDOF 11
ENDMDL
MODEL 7
REMARK VINA RESULT:      -6.8      1.847      2.920
REMARK  Name = 
REMARK  14 active torsions:
REMARK  status: ('A' for Active; 'I' for Inactive)
REMARK    1  A    between atoms: C_1  and  C_2
REMARK    2  A    between atoms: C_2  and  C_3
REMARK    3  A    between atoms: C_3  and  C_4
REMARK    4  A    between atoms: C_3  and  N_5
REMARK    5  A    between atoms: N_5  and  C_15
REMARK    6  A    between atoms: C_6  and  C_8
REMARK    7  A    between atoms: C_8  and  N_9
REMARK    8  A    between atoms: C_8  and  C_10
REMARK    9  A    between atoms: C_10  and  C_11
REMARK   10  A    between atoms: C_11  and  O_13
REMARK   11  A    between atoms: O_13  and  C_14
REMARK   12  A    between atoms: C_15  and  C_16
REMARK   13  A    between atoms: N_18  and  C_19
REMARK   14  A    between atoms: C_19  and  C_20
REMARK                            x       y       z     vdW  Elec       q    Type
REMARK                         _______ _______ _______ _____ _____    ______ ____
ROOT
ATOM      1  C   UNL     1       2.934   4.250  19.418  0.00  0.00    +0.000 C 
ATOM      2  C   UNL     1       3.273   2.905  20.154  0.00  0.00    +0.000 C 
ATOM      3  C   UNL     1       3.473   1.711  19.220  0.00  0.00    +0.000 C 
ATOM      4  N   UNL     1       2.314   1.445  18.383  0.00  0.00    +0.000 NA
ATOM      5  C   UNL     1       1.925   2.620  17.609  0.00  0.00    +0.000 C 
ATOM      6  C   UNL     1       1.752   3.886  18.442  0.00  0.00    +0.000 C 
ATOM      7  H   UNL     1       1.536   1.131  18.961  0.00  0.00    +0.000 HD
ENDROOT
BRANCH   1   8
ATOM      8  C   UNL     1       2.264   5.140  20.571  0.00  0.00    +0.000 C 
ATOM      9  O   UNL     1       2.001   4.638  21.672  0.00  0.00    +0.000 OA
ATOM     10  N   UNL     1       2.185   6.511  20.421  0.00  0.00    +0.000 N 
ATOM     11  H   UNL     1       2.409   6.933  19.534  0.00  0.00    +0.000 HD
BRANCH  10  12
ATOM     12  C   UNL     1       1.845   7.366  21.558  0.00  0.00    +0.000 C 
BRANCH  12  13
ATOM     13  C   UNL     1       0.983   8.564  21.231  0.00  0.00    +0.000 A 
ATOM     14  C   UNL     1       0.780   8.961  19.899  0.00  0.00    +0.000 A 
ATOM     15  C   UNL     1      -0.032  10.062  19.592  0.00  0.00    +0.000 A 
ATOM     16  C   UNL     1      -0.631  10.800  20.613  0.00  0.00    +0.000 A 
ATOM     17  C   UNL     1      -0.459  10.405  21.939  0.00  0.00    +0.000 A 
ATOM     18  C   UNL     1       0.324   9.286  22.244  0.00  0.00    +0.000 A 
ENDBRANCH  12  13
ENDBRANCH  10  12
ENDBRANCH   1   8
BRANCH   1  19
ATOM     19  N   UNL     1       4.135   4.915  18.681  0.00  0.00    +0.000 N 
ATOM     20  C   UNL     1       5.420   4.672  19.205  0.00  0.00    +0.000 C 
ATOM     21  O   UNL     1       5.573   3.902  20.167  0.00  0.00    +0.000 OA
BRANCH  19  22
ATOM     22  C   UNL     1       3.914   5.592  17.338  0.00  0.00    +0.000 C 
ATOM     23  C   UNL     1       4.466   4.786  16.159  0.00  0.00    +0.000 C 
BRANCH  22  25
ATOM     24  C   UNL     1       3.271   8.127  17.520  0.00  0.00    +0.000 C 
ATOM     25  C   UNL     1       4.323   7.088  17.177  0.00  0.00    +0.000 C 
ENDBRANCH  22  25
ENDBRANCH  19  22
BRANCH  20  26
ATOM     26  C   UNL     1       6.671   5.437  18.665  0.00  0.00    +0.000 C 
BRANCH  26  27
ATOM     27  N   UNL     1       7.595   5.725  19.782  0.00  0.00    +0.000 NA
ATOM     28  H   UNL     1       8.168   6.533  19.529  0.00  0.00    +0.000 HD
ATOM     29  H   UNL     1       8.251   4.959  19.893  0.00  0.00    +0.000 HD
ENDBRANCH  26  27
BRANCH  26  30
ATOM     30  C   UNL     1       7.484   4.619  17.672  0.00  0.00    +0.000 C 
BRANCH  30  31
ATOM     31  C   UNL     1       7.608   5.379  16.394  0.00  0.00    +0.000 C 
ATOM     32  O   UNL     1       7.624   6.596  16.278  0.00  0.00    +0.000 OA
BRANCH  31  33
ATOM     33  O   UNL     1       7.623   4.486  15.379  0.00  0.00    +0.000 OA
ATOM     34  C   UNL     1       7.350   5.119  14.150  0.00  0.00    +0.000 C 
ENDBRANCH  31  33
ENDBRANCH  30  31
ENDBRANCH  26  30
ENDBRANCH  20  26
ENDBRANCH   1  19
TORSDOF 11
ENDMDL
MODEL 8
REMARK VINA RESULT:      -6.8      2.115      4.963
REMARK  Name = 
REMARK  14 active torsions:
REMARK  status: ('A' for Active; 'I' for Inactive)
REMARK    1  A    between atoms: C_1  and  C_2
REMARK    2  A    between atoms: C_2  and  C_3
REMARK    3  A    between atoms: C_3  and  C_4
REMARK    4  A    between atoms: C_3  and  N_5
REMARK    5  A    between atoms: N_5  and  C_15
REMARK    6  A    between atoms: C_6  and  C_8
REMARK    7  A    between atoms: C_8  and  N_9
REMARK    8  A    between atoms: C_8  and  C_10
REMARK    9  A    between atoms: C_10  and  C_11
REMARK   10  A    between atoms: C_11  and  O_13
REMARK   11  A    between atoms: O_13  and  C_14
REMARK   12  A    between atoms: C_15  and  C_16
REMARK   13  A    between atoms: N_18  and  C_19
REMARK   14  A    between atoms: C_19  and  C_20
REMARK                            x       y       z     vdW  Elec       q    Type
REMARK                         _______ _______ _______ _____ _____    ______ ____
ROOT
ATOM      1  C   UNL     1       5.109   5.491  17.305  0.00  0.00    +0.000 C 
ATOM      2  C   UNL     1       5.258   5.277  15.758  0.00  0.00    +0.000 C 
ATOM      3  C   UNL     1       6.200   4.136  15.369  0.00  0.00    +0.000 C 
ATOM      4  N   UNL     1       7.545   4.307  15.895  0.00  0.00    +0.000 NA
ATOM      5  C   UNL     1       7.541   4.475  17.345  0.00  0.00    +0.000 C 
ATOM      6  C   UNL     1       6.588   5.556  17.846  0.00  0.00    +0.000 C 
ATOM      7  H   UNL     1       7.990   5.109  15.450  0.00  0.00    +0.000 HD
ENDROOT
BRANCH   1   8
ATOM      8  C   UNL     1       4.559   6.994  17.417  0.00  0.00    +0.000 C 
ATOM      9  O   UNL     1       5.230   7.937  16.978  0.00  0.00    +0.000 OA
ATOM     10  N   UNL     1       3.249   7.218  17.794  0.00  0.00    +0.000 N 
ATOM     11  H   UNL     1       2.689   6.457  18.141  0.00  0.00    +0.000 HD
BRANCH  10  12
ATOM     12  C   UNL     1       2.644   8.540  17.632  0.00  0.00    +0.000 C 
BRANCH  12  13
ATOM     13  C   UNL     1       1.634   8.922  18.689  0.00  0.00    +0.000 A 
ATOM     14  C   UNL     1       1.708   8.383  19.983  0.00  0.00    +0.000 A 
ATOM     15  C   UNL     1       0.782   8.748  20.970  0.00  0.00    +0.000 A 
ATOM     16  C   UNL     1      -0.251   9.637  20.669  0.00  0.00    +0.000 A 
ATOM     17  C   UNL     1      -0.325  10.201  19.397  0.00  0.00    +0.000 A 
ATOM     18  C   UNL     1       0.620   9.862  18.421  0.00  0.00    +0.000 A 
ENDBRANCH  12  13
ENDBRANCH  10  12
ENDBRANCH   1   8
BRANCH   1  19
ATOM     19  N   UNL     1       4.252   4.415  18.038  0.00  0.00    +0.000 N 
ATOM     20  C   UNL     1       4.377   4.345  19.439  0.00  0.00    +0.000 C 
ATOM     21  O   UNL     1       5.088   5.160  20.050  0.00  0.00    +0.000 OA
BRANCH  19  22
ATOM     22  C   UNL     1       3.179   3.657  17.274  0.00  0.00    +0.000 C 
ATOM     23  C   UNL     1       1.791   4.295  17.392  0.00  0.00    +0.000 C 
BRANCH  22  25
ATOM     24  C   UNL     1       1.794   1.612  18.151  0.00  0.00    +0.000 C 
ATOM     25  C   UNL     1       3.059   2.117  17.481  0.00  0.00    +0.000 C 
ENDBRANCH  22  25
ENDBRANCH  19  22
BRANCH  20  26
ATOM     26  C   UNL     1       3.715   3.188  20.253  0.00  0.00    +0.000 C 
BRANCH  26  27
ATOM     27  N   UNL     1       4.765   2.294  20.787  0.00  0.00    +0.000 NA
ATOM     28  H   UNL     1       5.040   1.640  20.052  0.00  0.00    +0.000 HD
ATOM     29  H   UNL     1       4.382   1.716  21.527  0.00  0.00    +0.000 HD
ENDBRANCH  26  27
BRANCH  26  30
ATOM     30  C   UNL     1       2.950   3.681  21.473  0.00  0.00    +0.000 C 
BRANCH  30  31
ATOM     31  C   UNL     1       1.652   2.950  21.567  0.00  0.00    +0.000 C 
ATOM     32  O   UNL     1       1.430   1.963  22.254  0.00  0.00    +0.000 OA
BRANCH  31  33
ATOM     33  O   UNL     1       0.788   3.524  20.701  0.00  0.00    +0.000 OA
ATOM     34  C   UNL     1       0.987   4.918  20.643  0.00  0.00    +0.000 C 
ENDBRANCH  31  33
ENDBRANCH  30  31
ENDBRANCH  26  30
ENDBRANCH  20  26
ENDBRANCH   1  19
TORSDOF 11
ENDMDL
MODEL 9
REMARK VINA RESULT:      -6.7      2.062      4.935
REMARK  Name = 
REMARK  14 active torsions:
REMARK  status: ('A' for Active; 'I' for Inactive)
REMARK    1  A    between atoms: C_1  and  C_2
REMARK    2  A    between atoms: C_2  and  C_3
REMARK    3  A    between atoms: C_3  and  C_4
REMARK    4  A    between atoms: C_3  and  N_5
REMARK    5  A    between atoms: N_5  and  C_15
REMARK    6  A    between atoms: C_6  and  C_8
REMARK    7  A    between atoms: C_8  and  N_9
REMARK    8  A    between atoms: C_8  and  C_10
REMARK    9  A    between atoms: C_10  and  C_11
REMARK   10  A    between atoms: C_11  and  O_13
REMARK   11  A    between atoms: O_13  and  C_14
REMARK   12  A    between atoms: C_15  and  C_16
REMARK   13  A    between atoms: N_18  and  C_19
REMARK   14  A    between atoms: C_19  and  C_20
REMARK                            x       y       z     vdW  Elec       q    Type
REMARK                         _______ _______ _______ _____ _____    ______ ____
ROOT
ATOM      1  C   UNL     1       5.119   5.367  17.288  0.00  0.00    +0.000 C 
ATOM      2  C   UNL     1       5.183   5.327  15.721  0.00  0.00    +0.000 C 
ATOM      3  C   UNL     1       6.130   4.267  15.157  0.00  0.00    +0.000 C 
ATOM      4  N   UNL     1       7.498   4.423  15.623  0.00  0.00    +0.000 NA
ATOM      5  C   UNL     1       7.575   4.431  17.080  0.00  0.00    +0.000 C 
ATOM      6  C   UNL     1       6.625   5.420  17.749  0.00  0.00    +0.000 C 
ATOM      7  H   UNL     1       7.896   5.282  15.245  0.00  0.00    +0.000 HD
ENDROOT
BRANCH   1   8
ATOM      8  C   UNL     1       4.538   6.829  17.595  0.00  0.00    +0.000 C 
ATOM      9  O   UNL     1       5.257   7.827  17.457  0.00  0.00    +0.000 OA
ATOM     10  N   UNL     1       3.181   7.000  17.795  0.00  0.00    +0.000 N 
ATOM     11  H   UNL     1       2.583   6.196  17.896  0.00  0.00    +0.000 HD
BRANCH  10  12
ATOM     12  C   UNL     1       2.592   8.338  17.794  0.00  0.00    +0.000 C 
BRANCH  12  13
ATOM     13  C   UNL     1       1.743   8.672  18.999  0.00  0.00    +0.000 A 
ATOM     14  C   UNL     1       0.815   9.725  18.955  0.00  0.00    +0.000 A 
ATOM     15  C   UNL     1       0.014  10.027  20.066  0.00  0.00    +0.000 A 
ATOM     16  C   UNL     1       0.150   9.298  21.248  0.00  0.00    +0.000 A 
ATOM     17  C   UNL     1       1.048   8.234  21.301  0.00  0.00    +0.000 A 
ATOM     18  C   UNL     1       1.824   7.911  20.181  0.00  0.00    +0.000 A 
ENDBRANCH  12  13
ENDBRANCH  10  12
ENDBRANCH   1   8
BRANCH   1  19
ATOM     19  N   UNL     1       4.335   4.190  17.944  0.00  0.00    +0.000 N 
ATOM     20  C   UNL     1       4.684   3.848  19.265  0.00  0.00    +0.000 C 
ATOM     21  O   UNL     1       5.531   4.512  19.885  0.00  0.00    +0.000 OA
BRANCH  19  22
ATOM     22  C   UNL     1       3.109   3.620  17.248  0.00  0.00    +0.000 C 
ATOM     23  C   UNL     1       1.841   4.442  17.494  0.00  0.00    +0.000 C 
BRANCH  22  25
ATOM     24  C   UNL     1       1.540   1.758  18.217  0.00  0.00    +0.000 C 
ATOM     25  C   UNL     1       2.786   2.106  17.423  0.00  0.00    +0.000 C 
ENDBRANCH  22  25
ENDBRANCH  19  22
BRANCH  20  26
ATOM     26  C   UNL     1       4.101   2.571  19.949  0.00  0.00    +0.000 C 
BRANCH  26  27
ATOM     27  N   UNL     1       5.110   1.491  19.926  0.00  0.00    +0.000 NA
ATOM     28  H   UNL     1       4.771   0.742  19.318  0.00  0.00    +0.000 HD
ATOM     29  H   UNL     1       5.189   1.071  20.846  0.00  0.00    +0.000 HD
ENDBRANCH  26  27
BRANCH  26  30
ATOM     30  C   UNL     1       3.775   2.782  21.421  0.00  0.00    +0.000 C 
BRANCH  30  31
ATOM     31  C   UNL     1       2.318   3.071  21.565  0.00  0.00    +0.000 C 
ATOM     32  O   UNL     1       1.459   2.280  21.926  0.00  0.00    +0.000 OA
BRANCH  31  33
ATOM     33  O   UNL     1       2.104   4.340  21.151  0.00  0.00    +0.000 OA
ATOM     34  C   UNL     1       0.844   4.458  20.528  0.00  0.00    +0.000 C 
ENDBRANCH  31  33
ENDBRANCH  30  31
ENDBRANCH  26  30
ENDBRANCH  20  26
ENDBRANCH   1  19
TORSDOF 11
ENDMDL
