MODEL 1
REMARK VINA RESULT:      -8.1      0.000      0.000
REMARK  Name = 
REMARK  6 active torsions:
REMARK  status: ('A' for Active; 'I' for Inactive)
REMARK    1  A    between atoms: C_1  and  C_2
REMARK    2  A    between atoms: C_5  and  S_6
REMARK    3  A    between atoms: S_6  and  C_7
REMARK    4  A    between atoms: C_7  and  C_8
REMARK    5  A    between atoms: C_14  and  C_15
REMARK    6  A    between atoms: C_16  and  C_17
REMARK                            x       y       z     vdW  Elec       q    Type
REMARK                         _______ _______ _______ _____ _____    ______ ____
ROOT
ATOM      1  C   UNL     1       2.127   5.627  19.819  0.00  0.00    +0.000 A 
ATOM      2  C   UNL     1       1.413   4.575  19.366  0.00  0.00    +0.000 A 
ATOM      3  C   UNL     1       1.970   3.691  18.305  0.00  0.00    +0.000 A 
ATOM      4  O   UNL     1       1.367   2.719  17.864  0.00  0.00    +0.000 OA
ATOM      5  N   UNL     1       3.242   4.068  17.844  0.00  0.00    +0.000 N 
ATOM      6  N   UNL     1       3.905   3.401  16.868  0.00  0.00    +0.000 NA
ATOM      7  C   UNL     1       5.059   4.063  16.732  0.00  0.00    +0.000 A 
ATOM      8  C   UNL     1       6.037   3.587  15.715  0.00  0.00    +0.000 C 
ATOM      9  C   UNL     1       5.156   5.178  17.627  0.00  0.00    +0.000 A 
ATOM     10  C   UNL     1       3.962   5.143  18.329  0.00  0.00    +0.000 A 
ATOM     11  N   UNL     1       3.406   5.883  19.325  0.00  0.00    +0.000 N 
ATOM     12  H   UNL     1       3.879   6.695  19.719  0.00  0.00    +0.000 HD
ENDROOT
BRANCH   9  13
ATOM     13  C   UNL     1       6.238   6.134  17.848  0.00  0.00    +0.000 A 
ATOM     14  C   UNL     1       6.291   7.357  17.158  0.00  0.00    +0.000 A 
ATOM     15  C   UNL     1       7.299   8.288  17.430  0.00  0.00    +0.000 A 
ATOM     16  C   UNL     1       8.282   7.985  18.362  0.00  0.00    +0.000 A 
ATOM     17  F   UNL     1       9.245   8.878  18.623  0.00  0.00    +0.000 F 
ATOM     18  C   UNL     1       8.276   6.770  19.028  0.00  0.00    +0.000 A 
ATOM     19  C   UNL     1       7.250   5.853  18.781  0.00  0.00    +0.000 A 
ENDBRANCH   9  13
BRANCH   1  20
ATOM     20  C   UNL     1       1.559   6.563  20.882  0.00  0.00    +0.000 C 
BRANCH  20  21
ATOM     21  S   UNL     1       1.684   8.276  20.285  0.00  0.00    +0.000 S 
BRANCH  21  26
ATOM     22  C   UNL     1      -1.736  11.543  23.154  0.00  0.00    +0.000 C 
ATOM     23  C   UNL     1      -0.686  10.586  22.709  0.00  0.00    +0.000 A 
ATOM     24  N   UNL     1       0.160   9.948  23.494  0.00  0.00    +0.000 NA
ATOM     25  N   UNL     1       1.021   9.126  22.780  0.00  0.00    +0.000 NA
ATOM     26  C   UNL     1       0.793   9.175  21.488  0.00  0.00    +0.000 A 
ATOM     27  S   UNL     1      -0.490  10.230  21.042  0.00  0.00    +0.000 S 
ENDBRANCH  21  26
ENDBRANCH  20  21
ENDBRANCH   1  20
TORSDOF 4
ENDMDL
MODEL 2
REMARK VINA RESULT:      -7.8      2.496      3.127
REMARK  Name = 
REMARK  6 active torsions:
REMARK  status: ('A' for Active; 'I' for Inactive)
REMARK    1  A    between atoms: C_1  and  C_2
REMARK    2  A    between atoms: C_5  and  S_6
REMARK    3  A    between atoms: S_6  and  C_7
REMARK    4  A    between atoms: C_7  and  C_8
REMARK    5  A    between atoms: C_14  and  C_15
REMARK    6  A    between atoms: C_16  and  C_17
REMARK                            x       y       z     vdW  Elec       q    Type
REMARK                         _______ _______ _______ _____ _____    ______ ____
ROOT
ATOM      1  C   UNL     1       2.206   6.388  19.838  0.00  0.00    +0.000 A 
ATOM      2  C   UNL     1       1.491   5.615  20.681  0.00  0.00    +0.000 A 
ATOM      3  C   UNL     1       1.648   4.134  20.657  0.00  0.00    +0.000 A 
ATOM      4  O   UNL     1       1.029   3.387  21.407  0.00  0.00    +0.000 OA
ATOM      5  N   UNL     1       2.559   3.663  19.699  0.00  0.00    +0.000 N 
ATOM      6  N   UNL     1       2.822   2.347  19.511  0.00  0.00    +0.000 NA
ATOM      7  C   UNL     1       3.731   2.322  18.530  0.00  0.00    +0.000 A 
ATOM      8  C   UNL     1       4.240   1.003  18.064  0.00  0.00    +0.000 C 
ATOM      9  C   UNL     1       4.068   3.636  18.067  0.00  0.00    +0.000 A 
ATOM     10  C   UNL     1       3.291   4.472  18.851  0.00  0.00    +0.000 A 
ATOM     11  N   UNL     1       3.123   5.817  18.956  0.00  0.00    +0.000 N 
ATOM     12  H   UNL     1       3.624   6.469  18.353  0.00  0.00    +0.000 HD
ENDROOT
BRANCH   9  13
ATOM     13  C   UNL     1       5.029   4.075  17.058  0.00  0.00    +0.000 A 
ATOM     14  C   UNL     1       6.333   4.465  17.407  0.00  0.00    +0.000 A 
ATOM     15  C   UNL     1       7.261   4.821  16.422  0.00  0.00    +0.000 A 
ATOM     16  C   UNL     1       6.878   4.828  15.087  0.00  0.00    +0.000 A 
ATOM     17  F   UNL     1       7.767   5.166  14.144  0.00  0.00    +0.000 F 
ATOM     18  C   UNL     1       5.586   4.485  14.719  0.00  0.00    +0.000 A 
ATOM     19  C   UNL     1       4.669   4.098  15.700  0.00  0.00    +0.000 A 
ENDBRANCH   9  13
BRANCH   1  20
ATOM     20  C   UNL     1       2.034   7.905  19.825  0.00  0.00    +0.000 C 
BRANCH  20  21
ATOM     21  S   UNL     1       1.039   8.397  21.264  0.00  0.00    +0.000 S 
BRANCH  21  26
ATOM     22  C   UNL     1      -0.591  13.306  19.304  0.00  0.00    +0.000 C 
ATOM     23  C   UNL     1      -0.006  12.186  20.092  0.00  0.00    +0.000 A 
ATOM     24  N   UNL     1       0.688  12.307  21.206  0.00  0.00    +0.000 NA
ATOM     25  N   UNL     1       1.101  11.078  21.703  0.00  0.00    +0.000 NA
ATOM     26  C   UNL     1       0.701  10.081  20.948  0.00  0.00    +0.000 A 
ATOM     27  S   UNL     1      -0.207  10.564  19.571  0.00  0.00    +0.000 S 
ENDBRANCH  21  26
ENDBRANCH  20  21
ENDBRANCH   1  20
TORSDOF 4
ENDMDL
MODEL 3
REMARK VINA RESULT:      -7.8      2.518      3.096
REMARK  Name = 
REMARK  6 active torsions:
REMARK  status: ('A' for Active; 'I' for Inactive)
REMARK    1  A    between atoms: C_1  and  C_2
REMARK    2  A    between atoms: C_5  and  S_6
REMARK    3  A    between atoms: S_6  and  C_7
REMARK    4  A    between atoms: C_7  and  C_8
REMARK    5  A    between atoms: C_14  and  C_15
REMARK    6  A    between atoms: C_16  and  C_17
REMARK                            x       y       z     vdW  Elec       q    Type
REMARK                         _______ _______ _______ _____ _____    ______ ____
ROOT
ATOM      1  C   UNL     1       2.239   6.381  19.818  0.00  0.00    +0.000 A 
ATOM      2  C   UNL     1       1.524   5.631  20.683  0.00  0.00    +0.000 A 
ATOM      3  C   UNL     1       1.669   4.149  20.689  0.00  0.00    +0.000 A 
ATOM      4  O   UNL     1       1.050   3.423  21.458  0.00  0.00    +0.000 OA
ATOM      5  N   UNL     1       2.569   3.650  19.733  0.00  0.00    +0.000 N 
ATOM      6  N   UNL     1       2.820   2.328  19.570  0.00  0.00    +0.000 NA
ATOM      7  C   UNL     1       3.721   2.276  18.583  0.00  0.00    +0.000 A 
ATOM      8  C   UNL     1       4.216   0.943  18.141  0.00  0.00    +0.000 C 
ATOM      9  C   UNL     1       4.065   3.577  18.090  0.00  0.00    +0.000 A 
ATOM     10  C   UNL     1       3.300   4.436  18.863  0.00  0.00    +0.000 A 
ATOM     11  N   UNL     1       3.144   5.783  18.941  0.00  0.00    +0.000 N 
ATOM     12  H   UNL     1       3.646   6.419  18.321  0.00  0.00    +0.000 HD
ENDROOT
BRANCH   9  13
ATOM     13  C   UNL     1       5.022   3.987  17.065  0.00  0.00    +0.000 A 
ATOM     14  C   UNL     1       4.667   4.038  15.707  0.00  0.00    +0.000 A 
ATOM     15  C   UNL     1       5.575   4.496  14.747  0.00  0.00    +0.000 A 
ATOM     16  C   UNL     1       6.856   4.867  15.134  0.00  0.00    +0.000 A 
ATOM     17  F   UNL     1       7.725   5.307  14.215  0.00  0.00    +0.000 F 
ATOM     18  C   UNL     1       7.245   4.789  16.462  0.00  0.00    +0.000 A 
ATOM     19  C   UNL     1       6.327   4.363  17.426  0.00  0.00    +0.000 A 
ENDBRANCH   9  13
BRANCH   1  20
ATOM     20  C   UNL     1       2.079   7.898  19.775  0.00  0.00    +0.000 C 
BRANCH  20  21
ATOM     21  S   UNL     1       1.061   8.423  21.186  0.00  0.00    +0.000 S 
BRANCH  21  26
ATOM     22  C   UNL     1       0.489  13.547  19.181  0.00  0.00    +0.000 C 
ATOM     23  C   UNL     1       0.629  12.338  20.038  0.00  0.00    +0.000 A 
ATOM     24  N   UNL     1       0.657  12.325  21.357  0.00  0.00    +0.000 NA
ATOM     25  N   UNL     1       0.800  11.041  21.867  0.00  0.00    +0.000 NA
ATOM     26  C   UNL     1       0.874  10.138  20.916  0.00  0.00    +0.000 A 
ATOM     27  S   UNL     1       0.777  10.784  19.326  0.00  0.00    +0.000 S 
ENDBRANCH  21  26
ENDBRANCH  20  21
ENDBRANCH   1  20
TORSDOF 4
ENDMDL
MODEL 4
REMARK VINA RESULT:      -7.7      0.335      1.003
REMARK  Name = 
REMARK  6 active torsions:
REMARK  status: ('A' for Active; 'I' for Inactive)
REMARK    1  A    between atoms: C_1  and  C_2
REMARK    2  A    between atoms: C_5  and  S_6
REMARK    3  A    between atoms: S_6  and  C_7
REMARK    4  A    between atoms: C_7  and  C_8
REMARK    5  A    between atoms: C_14  and  C_15
REMARK    6  A    between atoms: C_16  and  C_17
REMARK                            x       y       z     vdW  Elec       q    Type
REMARK                         _______ _______ _______ _____ _____    ______ ____
ROOT
ATOM      1  C   UNL     1       2.206   5.594  19.513  0.00  0.00    +0.000 A 
ATOM      2  C   UNL     1       1.582   4.517  18.993  0.00  0.00    +0.000 A 
ATOM      3  C   UNL     1       2.257   3.685  17.959  0.00  0.00    +0.000 A 
ATOM      4  O   UNL     1       1.739   2.692  17.460  0.00  0.00    +0.000 OA
ATOM      5  N   UNL     1       3.536   4.137  17.595  0.00  0.00    +0.000 N 
ATOM      6  N   UNL     1       4.299   3.526  16.656  0.00  0.00    +0.000 NA
ATOM      7  C   UNL     1       5.422   4.250  16.612  0.00  0.00    +0.000 A 
ATOM      8  C   UNL     1       6.492   3.846  15.658  0.00  0.00    +0.000 C 
ATOM      9  C   UNL     1       5.398   5.350  17.530  0.00  0.00    +0.000 A 
ATOM     10  C   UNL     1       4.163   5.238  18.147  0.00  0.00    +0.000 A 
ATOM     11  N   UNL     1       3.501   5.926  19.114  0.00  0.00    +0.000 N 
ATOM     12  H   UNL     1       3.902   6.753  19.555  0.00  0.00    +0.000 HD
ENDROOT
BRANCH   9  13
ATOM     13  C   UNL     1       6.411   6.355  17.843  0.00  0.00    +0.000 A 
ATOM     14  C   UNL     1       7.439   6.100  18.765  0.00  0.00    +0.000 A 
ATOM     15  C   UNL     1       8.438   7.050  19.003  0.00  0.00    +0.000 A 
ATOM     16  C   UNL     1       8.390   8.276  18.353  0.00  0.00    +0.000 A 
ATOM     17  F   UNL     1       9.348   9.184  18.580  0.00  0.00    +0.000 F 
ATOM     18  C   UNL     1       7.364   8.569  17.468  0.00  0.00    +0.000 A 
ATOM     19  C   UNL     1       6.385   7.607  17.204  0.00  0.00    +0.000 A 
ENDBRANCH   9  13
BRANCH   1  20
ATOM     20  C   UNL     1       1.517   6.478  20.551  0.00  0.00    +0.000 C 
BRANCH  20  21
ATOM     21  S   UNL     1       1.775   8.221  20.103  0.00  0.00    +0.000 S 
BRANCH  21  26
ATOM     22  C   UNL     1      -1.588  11.393  23.140  0.00  0.00    +0.000 C 
ATOM     23  C   UNL     1      -0.549  10.448  22.645  0.00  0.00    +0.000 A 
ATOM     24  N   UNL     1       0.302   9.775  23.394  0.00  0.00    +0.000 NA
ATOM     25  N   UNL     1       1.150   8.977  22.637  0.00  0.00    +0.000 NA
ATOM     26  C   UNL     1       0.905   9.077  21.351  0.00  0.00    +0.000 A 
ATOM     27  S   UNL     1      -0.377  10.155  20.964  0.00  0.00    +0.000 S 
ENDBRANCH  21  26
ENDBRANCH  20  21
ENDBRANCH   1  20
TORSDOF 4
ENDMDL
MODEL 5
REMARK VINA RESULT:      -7.7      3.032      3.500
REMARK  Name = 
REMARK  6 active torsions:
REMARK  status: ('A' for Active; 'I' for Inactive)
REMARK    1  A    between atoms: C_1  and  C_2
REMARK    2  A    between atoms: C_5  and  S_6
REMARK    3  A    between atoms: S_6  and  C_7
REMARK    4  A    between atoms: C_7  and  C_8
REMARK    5  A    between atoms: C_14  and  C_15
REMARK    6  A    between atoms: C_16  and  C_17
REMARK                            x       y       z     vdW  Elec       q    Type
REMARK                         _______ _______ _______ _____ _____    ______ ____
ROOT
ATOM      1  C   UNL     1       2.221   6.414  19.905  0.00  0.00    +0.000 A 
ATOM      2  C   UNL     1       1.499   5.634  20.736  0.00  0.00    +0.000 A 
ATOM      3  C   UNL     1       1.639   4.153  20.685  0.00  0.00    +0.000 A 
ATOM      4  O   UNL     1       1.013   3.400  21.423  0.00  0.00    +0.000 OA
ATOM      5  N   UNL     1       2.544   3.688  19.717  0.00  0.00    +0.000 N 
ATOM      6  N   UNL     1       2.791   2.373  19.505  0.00  0.00    +0.000 NA
ATOM      7  C   UNL     1       3.698   2.355  18.523  0.00  0.00    +0.000 A 
ATOM      8  C   UNL     1       4.192   1.039  18.032  0.00  0.00    +0.000 C 
ATOM      9  C   UNL     1       4.049   3.673  18.082  0.00  0.00    +0.000 A 
ATOM     10  C   UNL     1       3.283   4.504  18.882  0.00  0.00    +0.000 A 
ATOM     11  N   UNL     1       3.130   5.849  19.011  0.00  0.00    +0.000 N 
ATOM     12  H   UNL     1       3.637   6.506  18.419  0.00  0.00    +0.000 HD
ENDROOT
BRANCH   9  13
ATOM     13  C   UNL     1       5.014   4.120  17.079  0.00  0.00    +0.000 A 
ATOM     14  C   UNL     1       6.324   4.484  17.432  0.00  0.00    +0.000 A 
ATOM     15  C   UNL     1       7.254   4.847  16.452  0.00  0.00    +0.000 A 
ATOM     16  C   UNL     1       6.867   4.886  15.119  0.00  0.00    +0.000 A 
ATOM     17  F   UNL     1       7.758   5.232  14.180  0.00  0.00    +0.000 F 
ATOM     18  C   UNL     1       5.569   4.570  14.747  0.00  0.00    +0.000 A 
ATOM     19  C   UNL     1       4.650   4.175  15.724  0.00  0.00    +0.000 A 
ENDBRANCH   9  13
BRANCH   1  20
ATOM     20  C   UNL     1       2.066   7.933  19.919  0.00  0.00    +0.000 C 
BRANCH  20  21
ATOM     21  S   UNL     1       1.932   8.526  18.205  0.00  0.00    +0.000 S 
BRANCH  21  26
ATOM     22  C   UNL     1      -0.988  13.105  19.260  0.00  0.00    +0.000 C 
ATOM     23  C   UNL     1      -0.496  11.780  18.790  0.00  0.00    +0.000 A 
ATOM     24  N   UNL     1      -1.167  10.931  18.036  0.00  0.00    +0.000 NA
ATOM     25  N   UNL     1      -0.440   9.779  17.768  0.00  0.00    +0.000 NA
ATOM     26  C   UNL     1       0.749   9.805  18.326  0.00  0.00    +0.000 A 
ATOM     27  S   UNL     1       1.071  11.235  19.225  0.00  0.00    +0.000 S 
ENDBRANCH  21  26
ENDBRANCH  20  21
ENDBRANCH   1  20
TORSDOF 4
ENDMDL
MODEL 6
REMARK VINA RESULT:      -7.6      2.590      3.151
REMARK  Name = 
REMARK  6 active torsions:
REMARK  status: ('A' for Active; 'I' for Inactive)
REMARK    1  A    between atoms: C_1  and  C_2
REMARK    2  A    between atoms: C_5  and  S_6
REMARK    3  A    between atoms: S_6  and  C_7
REMARK    4  A    between atoms: C_7  and  C_8
REMARK    5  A    between atoms: C_14  and  C_15
REMARK    6  A    between atoms: C_16  and  C_17
REMARK                            x       y       z     vdW  Elec       q    Type
REMARK                         _______ _______ _______ _____ _____    ______ ____
ROOT
ATOM      1  C   UNL     1       2.222   6.457  19.869  0.00  0.00    +0.000 A 
ATOM      2  C   UNL     1       1.511   5.688  20.720  0.00  0.00    +0.000 A 
ATOM      3  C   UNL     1       1.665   4.207  20.700  0.00  0.00    +0.000 A 
ATOM      4  O   UNL     1       1.049   3.464  21.456  0.00  0.00    +0.000 OA
ATOM      5  N   UNL     1       2.568   3.731  19.736  0.00  0.00    +0.000 N 
ATOM      6  N   UNL     1       2.827   2.413  19.551  0.00  0.00    +0.000 NA
ATOM      7  C   UNL     1       3.729   2.383  18.564  0.00  0.00    +0.000 A 
ATOM      8  C   UNL     1       4.232   1.061  18.099  0.00  0.00    +0.000 C 
ATOM      9  C   UNL     1       4.066   3.695  18.094  0.00  0.00    +0.000 A 
ATOM     10  C   UNL     1       3.296   4.536  18.881  0.00  0.00    +0.000 A 
ATOM     11  N   UNL     1       3.132   5.881  18.982  0.00  0.00    +0.000 N 
ATOM     12  H   UNL     1       3.630   6.530  18.374  0.00  0.00    +0.000 HD
ENDROOT
BRANCH   9  13
ATOM     13  C   UNL     1       5.021   4.129  17.077  0.00  0.00    +0.000 A 
ATOM     14  C   UNL     1       6.315   4.553  17.419  0.00  0.00    +0.000 A 
ATOM     15  C   UNL     1       7.239   4.903  16.428  0.00  0.00    +0.000 A 
ATOM     16  C   UNL     1       6.859   4.870  15.093  0.00  0.00    +0.000 A 
ATOM     17  F   UNL     1       7.744   5.203  14.144  0.00  0.00    +0.000 F 
ATOM     18  C   UNL     1       5.576   4.493  14.730  0.00  0.00    +0.000 A 
ATOM     19  C   UNL     1       4.664   4.111  15.719  0.00  0.00    +0.000 A 
ENDBRANCH   9  13
BRANCH   1  20
ATOM     20  C   UNL     1       2.053   7.974  19.852  0.00  0.00    +0.000 C 
BRANCH  20  21
ATOM     21  S   UNL     1       1.074   8.474  21.299  0.00  0.00    +0.000 S 
BRANCH  21  26
ATOM     22  C   UNL     1      -1.888  13.077  20.497  0.00  0.00    +0.000 C 
ATOM     23  C   UNL     1      -1.146  11.793  20.359  0.00  0.00    +0.000 A 
ATOM     24  N   UNL     1      -0.995  11.103  19.245  0.00  0.00    +0.000 NA
ATOM     25  N   UNL     1      -0.253   9.947  19.440  0.00  0.00    +0.000 NA
ATOM     26  C   UNL     1       0.128   9.809  20.689  0.00  0.00    +0.000 A 
ATOM     27  S   UNL     1      -0.391  11.080  21.725  0.00  0.00    +0.000 S 
ENDBRANCH  21  26
ENDBRANCH  20  21
ENDBRANCH   1  20
TORSDOF 4
ENDMDL
MODEL 7
REMARK VINA RESULT:      -7.5      3.954      8.369
REMARK  Name = 
REMARK  6 active torsions:
REMARK  status: ('A' for Active; 'I' for Inactive)
REMARK    1  A    between atoms: C_1  and  C_2
REMARK    2  A    between atoms: C_5  and  S_6
REMARK    3  A    between atoms: S_6  and  C_7
REMARK    4  A    between atoms: C_7  and  C_8
REMARK    5  A    between atoms: C_14  and  C_15
REMARK    6  A    between atoms: C_16  and  C_17
REMARK                            x       y       z     vdW  Elec       q    Type
REMARK                         _______ _______ _______ _____ _____    ______ ____
ROOT
ATOM      1  C   UNL     1       3.171   7.051  18.276  0.00  0.00    +0.000 A 
ATOM      2  C   UNL     1       3.148   5.986  19.104  0.00  0.00    +0.000 A 
ATOM      3  C   UNL     1       2.315   6.012  20.338  0.00  0.00    +0.000 A 
ATOM      4  O   UNL     1       2.252   5.069  21.119  0.00  0.00    +0.000 OA
ATOM      5  N   UNL     1       1.611   7.211  20.538  0.00  0.00    +0.000 N 
ATOM      6  N   UNL     1       0.817   7.434  21.613  0.00  0.00    +0.000 NA
ATOM      7  C   UNL     1       0.336   8.668  21.426  0.00  0.00    +0.000 A 
ATOM      8  C   UNL     1      -0.584   9.236  22.450  0.00  0.00    +0.000 C 
ATOM      9  C   UNL     1       0.821   9.264  20.216  0.00  0.00    +0.000 A 
ATOM     10  C   UNL     1       1.639   8.287  19.672  0.00  0.00    +0.000 A 
ATOM     11  N   UNL     1       2.393   8.176  18.546  0.00  0.00    +0.000 N 
ATOM     12  H   UNL     1       2.466   8.937  17.871  0.00  0.00    +0.000 HD
ENDROOT
BRANCH   9  13
ATOM     13  C   UNL     1       0.528  10.558  19.605  0.00  0.00    +0.000 A 
ATOM     14  C   UNL     1      -0.694  10.805  18.959  0.00  0.00    +0.000 A 
ATOM     15  C   UNL     1      -0.984  12.070  18.436  0.00  0.00    +0.000 A 
ATOM     16  C   UNL     1      -0.038  13.082  18.520  0.00  0.00    +0.000 A 
ATOM     17  F   UNL     1      -0.316  14.293  18.022  0.00  0.00    +0.000 F 
ATOM     18  C   UNL     1       1.192  12.854  19.117  0.00  0.00    +0.000 A 
ATOM     19  C   UNL     1       1.469  11.599  19.669  0.00  0.00    +0.000 A 
ENDBRANCH   9  13
BRANCH   1  20
ATOM     20  C   UNL     1       4.045   7.055  17.025  0.00  0.00    +0.000 C 
BRANCH  20  21
ATOM     21  S   UNL     1       5.719   6.506  17.474  0.00  0.00    +0.000 S 
BRANCH  21  26
ATOM     22  C   UNL     1       6.410   3.654  12.785  0.00  0.00    +0.000 C 
ATOM     23  C   UNL     1       6.569   4.511  13.992  0.00  0.00    +0.000 A 
ATOM     24  N   UNL     1       7.669   5.143  14.351  0.00  0.00    +0.000 NA
ATOM     25  N   UNL     1       7.503   5.861  15.528  0.00  0.00    +0.000 NA
ATOM     26  C   UNL     1       6.286   5.745  16.009  0.00  0.00    +0.000 A 
ATOM     27  S   UNL     1       5.251   4.748  15.064  0.00  0.00    +0.000 S 
ENDBRANCH  21  26
ENDBRANCH  20  21
ENDBRANCH   1  20
TORSDOF 4
ENDMDL
MODEL 8
REMARK VINA RESULT:      -7.5      3.385      4.100
REMARK  Name = 
REMARK  6 active torsions:
REMARK  status: ('A' for Active; 'I' for Inactive)
REMARK    1  A    between atoms: C_1  and  C_2
REMARK    2  A    between atoms: C_5  and  S_6
REMARK    3  A    between atoms: S_6  and  C_7
REMARK    4  A    between atoms: C_7  and  C_8
REMARK    5  A    between atoms: C_14  and  C_15
REMARK    6  A    between atoms: C_16  and  C_17
REMARK                            x       y       z     vdW  Elec       q    Type
REMARK                         _______ _______ _______ _____ _____    ______ ____
ROOT
ATOM      1  C   UNL     1       2.202   8.425  18.509  0.00  0.00    +0.000 A 
ATOM      2  C   UNL     1       1.544   8.162  19.657  0.00  0.00    +0.000 A 
ATOM      3  C   UNL     1       1.759   6.870  20.366  0.00  0.00    +0.000 A 
ATOM      4  O   UNL     1       1.192   6.585  21.415  0.00  0.00    +0.000 OA
ATOM      5  N   UNL     1       2.659   6.001  19.729  0.00  0.00    +0.000 N 
ATOM      6  N   UNL     1       2.968   4.772  20.209  0.00  0.00    +0.000 NA
ATOM      7  C   UNL     1       3.848   4.280  19.330  0.00  0.00    +0.000 A 
ATOM      8  C   UNL     1       4.395   2.914  19.560  0.00  0.00    +0.000 C 
ATOM      9  C   UNL     1       4.118   5.193  18.260  0.00  0.00    +0.000 A 
ATOM     10  C   UNL     1       3.332   6.294  18.558  0.00  0.00    +0.000 A 
ATOM     11  N   UNL     1       3.114   7.508  17.988  0.00  0.00    +0.000 N 
ATOM     12  H   UNL     1       3.571   7.783  17.118  0.00  0.00    +0.000 HD
ENDROOT
BRANCH   9  13
ATOM     13  C   UNL     1       5.031   5.090  17.124  0.00  0.00    +0.000 A 
ATOM     14  C   UNL     1       4.725   4.297  16.005  0.00  0.00    +0.000 A 
ATOM     15  C   UNL     1       5.579   4.261  14.898  0.00  0.00    +0.000 A 
ATOM     16  C   UNL     1       6.764   4.985  14.920  0.00  0.00    +0.000 A 
ATOM     17  F   UNL     1       7.581   4.951  13.860  0.00  0.00    +0.000 F 
ATOM     18  C   UNL     1       7.109   5.745  16.027  0.00  0.00    +0.000 A 
ATOM     19  C   UNL     1       6.239   5.807  17.120  0.00  0.00    +0.000 A 
ENDBRANCH   9  13
BRANCH   1  20
ATOM     20  C   UNL     1       1.970   9.730  17.750  0.00  0.00    +0.000 C 
BRANCH  20  21
ATOM     21  S   UNL     1       1.095  10.894  18.838  0.00  0.00    +0.000 S 
BRANCH  21  26
ATOM     22  C   UNL     1      -4.296  11.494  17.753  0.00  0.00    +0.000 C 
ATOM     23  C   UNL     1      -2.880  11.043  17.834  0.00  0.00    +0.000 A 
ATOM     24  N   UNL     1      -2.374   9.977  17.244  0.00  0.00    +0.000 NA
ATOM     25  N   UNL     1      -1.021   9.821  17.512  0.00  0.00    +0.000 NA
ATOM     26  C   UNL     1      -0.559  10.772  18.291  0.00  0.00    +0.000 A 
ATOM     27  S   UNL     1      -1.740  11.930  18.759  0.00  0.00    +0.000 S 
ENDBRANCH  21  26
ENDBRANCH  20  21
ENDBRANCH   1  20
TORSDOF 4
ENDMDL
MODEL 9
REMARK VINA RESULT:      -7.5      3.015      3.430
REMARK  Name = 
REMARK  6 active torsions:
REMARK  status: ('A' for Active; 'I' for Inactive)
REMARK    1  A    between atoms: C_1  and  C_2
REMARK    2  A    between atoms: C_5  and  S_6
REMARK    3  A    between atoms: S_6  and  C_7
REMARK    4  A    between atoms: C_7  and  C_8
REMARK    5  A    between atoms: C_14  and  C_15
REMARK    6  A    between atoms: C_16  and  C_17
REMARK                            x       y       z     vdW  Elec       q    Type
REMARK                         _______ _______ _______ _____ _____    ______ ____
ROOT
ATOM      1  C   UNL     1       2.219   6.338  19.906  0.00  0.00    +0.000 A 
ATOM      2  C   UNL     1       1.475   5.562  20.721  0.00  0.00    +0.000 A 
ATOM      3  C   UNL     1       1.596   4.079  20.661  0.00  0.00    +0.000 A 
ATOM      4  O   UNL     1       0.949   3.328  21.383  0.00  0.00    +0.000 OA
ATOM      5  N   UNL     1       2.508   3.609  19.701  0.00  0.00    +0.000 N 
ATOM      6  N   UNL     1       2.741   2.292  19.482  0.00  0.00    +0.000 NA
ATOM      7  C   UNL     1       3.661   2.270  18.512  0.00  0.00    +0.000 A 
ATOM      8  C   UNL     1       4.144   0.951  18.019  0.00  0.00    +0.000 C 
ATOM      9  C   UNL     1       4.036   3.587  18.087  0.00  0.00    +0.000 A 
ATOM     10  C   UNL     1       3.269   4.422  18.883  0.00  0.00    +0.000 A 
ATOM     11  N   UNL     1       3.133   5.767  19.021  0.00  0.00    +0.000 N 
ATOM     12  H   UNL     1       3.657   6.422  18.441  0.00  0.00    +0.000 HD
ENDROOT
BRANCH   9  13
ATOM     13  C   UNL     1       5.020   4.028  17.102  0.00  0.00    +0.000 A 
ATOM     14  C   UNL     1       4.736   4.023  15.726  0.00  0.00    +0.000 A 
ATOM     15  C   UNL     1       5.666   4.510  14.802  0.00  0.00    +0.000 A 
ATOM     16  C   UNL     1       6.900   4.966  15.244  0.00  0.00    +0.000 A 
ATOM     17  F   UNL     1       7.790   5.434  14.359  0.00  0.00    +0.000 F 
ATOM     18  C   UNL     1       7.222   4.945  16.592  0.00  0.00    +0.000 A 
ATOM     19  C   UNL     1       6.280   4.490  17.519  0.00  0.00    +0.000 A 
ENDBRANCH   9  13
BRANCH   1  20
ATOM     20  C   UNL     1       2.085   7.859  19.930  0.00  0.00    +0.000 C 
BRANCH  20  21
ATOM     21  S   UNL     1       2.011   8.469  18.219  0.00  0.00    +0.000 S 
BRANCH  21  26
ATOM     22  C   UNL     1       0.020  13.605  18.732  0.00  0.00    +0.000 C 
ATOM     23  C   UNL     1       0.206  12.135  18.586  0.00  0.00    +0.000 A 
ATOM     24  N   UNL     1      -0.757  11.239  18.506  0.00  0.00    +0.000 NA
ATOM     25  N   UNL     1      -0.265   9.947  18.378  0.00  0.00    +0.000 NA
ATOM     26  C   UNL     1       1.048   9.919  18.364  0.00  0.00    +0.000 A 
ATOM     27  S   UNL     1       1.784  11.466  18.509  0.00  0.00    +0.000 S 
ENDBRANCH  21  26
ENDBRANCH  20  21
ENDBRANCH   1  20
TORSDOF 4
ENDMDL
