MODEL 1
REMARK VINA RESULT:      -7.8      0.000      0.000
REMARK  Name = 
REMARK  6 active torsions:
REMARK  status: ('A' for Active; 'I' for Inactive)
REMARK    1  A    between atoms: C_1  and  S_2
REMARK    2  A    between atoms: S_2  and  C_5
REMARK    3  A    between atoms: C_8  and  C_9
REMARK    4  A    between atoms: C_10  and  C_11
REMARK    5  A    between atoms: C_22  and  C_23
REMARK    6  A    between atoms: C_27  and  N_28
REMARK                            x       y       z     vdW  Elec       q    Type
REMARK                         _______ _______ _______ _____ _____    ______ ____
ROOT
ATOM      1  C   UNL     1       0.315  12.198  19.739  0.00  0.00    +0.000 C 
ATOM      2  C   UNL     1       0.941  13.300  19.306  0.00  0.00    +0.000 C 
ATOM      3  C   UNL     1       2.073  12.828  18.492  0.00  0.00    +0.000 C 
ATOM      4  O   UNL     1       2.877  13.552  17.927  0.00  0.00    +0.000 OA
ATOM      5  O   UNL     1       2.115  11.462  18.479  0.00  0.00    +0.000 OA
ATOM      6  C   UNL     1       1.032  11.050  19.250  0.00  0.00    +0.000 C 
ATOM      7  C   UNL     1       0.775   9.757  19.493  0.00  0.00    +0.000 C 
ENDROOT
BRANCH   2   8
ATOM      8  C   UNL     1       0.652  14.705  19.580  0.00  0.00    +0.000 A 
ATOM      9  C   UNL     1      -0.226  15.384  18.718  0.00  0.00    +0.000 A 
ATOM     10  C   UNL     1      -0.550  16.724  18.942  0.00  0.00    +0.000 A 
ATOM     11  C   UNL     1      -0.003  17.399  20.031  0.00  0.00    +0.000 A 
ATOM     12  C   UNL     1       0.877  16.740  20.890  0.00  0.00    +0.000 A 
ATOM     13  C   UNL     1       1.207  15.399  20.665  0.00  0.00    +0.000 A 
ATOM     14 CL   UNL     1       2.315  14.645  21.757  0.00  0.00    +0.000 Cl
ENDBRANCH   2   8
BRANCH   1  18
ATOM     15  C   UNL     1      -3.057  12.562  22.310  0.00  0.00    +0.000 A 
ATOM     16  C   UNL     1      -3.222  12.718  20.932  0.00  0.00    +0.000 A 
ATOM     17  C   UNL     1      -2.122  12.555  20.085  0.00  0.00    +0.000 A 
ATOM     18  C   UNL     1      -0.860  12.253  20.615  0.00  0.00    +0.000 A 
ATOM     19  C   UNL     1      -0.711  12.096  22.000  0.00  0.00    +0.000 A 
ATOM     20  C   UNL     1      -1.806  12.258  22.851  0.00  0.00    +0.000 A 
BRANCH  15  22
ATOM     21  C   UNL     1      -4.365  14.547  23.750  0.00  0.00    +0.000 C 
ATOM     22  S   UNL     1      -4.443  12.811  23.396  0.00  0.00    +0.000 S 
ATOM     23  O   UNL     1      -4.173  12.085  24.623  0.00  0.00    +0.000 OA
ATOM     24  O   UNL     1      -5.650  12.558  22.629  0.00  0.00    +0.000 OA
ENDBRANCH  15  22
ENDBRANCH   1  18
BRANCH   7  25
ATOM     25  C   UNL     1       1.644   8.678  19.009  0.00  0.00    +0.000 A 
ATOM     26  C   UNL     1       2.314   8.788  17.784  0.00  0.00    +0.000 A 
ATOM     27  C   UNL     1       3.152   7.761  17.338  0.00  0.00    +0.000 A 
ATOM     28  C   UNL     1       3.333   6.614  18.111  0.00  0.00    +0.000 A 
ATOM     29  C   UNL     1       2.668   6.506  19.340  0.00  0.00    +0.000 A 
ATOM     30  C   UNL     1       1.826   7.532  19.793  0.00  0.00    +0.000 A 
BRANCH  29  31
ATOM     31  N   UNL     1       2.855   5.305  20.162  0.00  0.00    +0.000 N 
ATOM     32  O   UNL     1       2.086   5.132  21.119  0.00  0.00    +0.000 OA
ATOM     33  O   UNL     1       3.778   4.534  19.856  0.00  0.00    +0.000 OA
ENDBRANCH  29  31
ENDBRANCH   7  25
TORSDOF 5
ENDMDL
MODEL 2
REMARK VINA RESULT:      -7.5      1.183      1.598
REMARK  Name = 
REMARK  6 active torsions:
REMARK  status: ('A' for Active; 'I' for Inactive)
REMARK    1  A    between atoms: C_1  and  S_2
REMARK    2  A    between atoms: S_2  and  C_5
REMARK    3  A    between atoms: C_8  and  C_9
REMARK    4  A    between atoms: C_10  and  C_11
REMARK    5  A    between atoms: C_22  and  C_23
REMARK    6  A    between atoms: C_27  and  N_28
REMARK                            x       y       z     vdW  Elec       q    Type
REMARK                         _______ _______ _______ _____ _____    ______ ____
ROOT
ATOM      1  C   UNL     1       0.115  12.510  20.494  0.00  0.00    +0.000 C 
ATOM      2  C   UNL     1       0.864  13.617  20.406  0.00  0.00    +0.000 C 
ATOM      3  C   UNL     1       2.078  13.225  19.673  0.00  0.00    +0.000 C 
ATOM      4  O   UNL     1       3.002  13.976  19.399  0.00  0.00    +0.000 OA
ATOM      5  O   UNL     1       2.042  11.894  19.364  0.00  0.00    +0.000 OA
ATOM      6  C   UNL     1       0.831  11.430  19.867  0.00  0.00    +0.000 C 
ATOM      7  C   UNL     1       0.464  10.143  19.780  0.00  0.00    +0.000 C 
ENDROOT
BRANCH   2   8
ATOM      8  C   UNL     1       0.618  14.953  20.941  0.00  0.00    +0.000 A 
ATOM      9  C   UNL     1       0.949  15.205  22.283  0.00  0.00    +0.000 A 
ATOM     10  C   UNL     1       0.750  16.470  22.840  0.00  0.00    +0.000 A 
ATOM     11  C   UNL     1       0.220  17.498  22.064  0.00  0.00    +0.000 A 
ATOM     12  C   UNL     1      -0.122  17.259  20.732  0.00  0.00    +0.000 A 
ATOM     13  C   UNL     1       0.072  15.992  20.172  0.00  0.00    +0.000 A 
ATOM     14 CL   UNL     1      -0.387  15.759  18.522  0.00  0.00    +0.000 Cl
ENDBRANCH   2   8
BRANCH   1  18
ATOM     15  C   UNL     1      -3.594  12.636  22.578  0.00  0.00    +0.000 A 
ATOM     16  C   UNL     1      -3.545  13.017  21.235  0.00  0.00    +0.000 A 
ATOM     17  C   UNL     1      -2.336  12.933  20.539  0.00  0.00    +0.000 A 
ATOM     18  C   UNL     1      -1.176  12.487  21.188  0.00  0.00    +0.000 A 
ATOM     19  C   UNL     1      -1.241  12.105  22.536  0.00  0.00    +0.000 A 
ATOM     20  C   UNL     1      -2.447  12.186  23.235  0.00  0.00    +0.000 A 
BRANCH  15  22
ATOM     21  C   UNL     1      -5.245  14.526  23.771  0.00  0.00    +0.000 C 
ATOM     22  S   UNL     1      -5.120  12.781  23.479  0.00  0.00    +0.000 S 
ATOM     23  O   UNL     1      -4.938  12.120  24.757  0.00  0.00    +0.000 OA
ATOM     24  O   UNL     1      -6.195  12.393  22.584  0.00  0.00    +0.000 OA
ENDBRANCH  15  22
ENDBRANCH   1  18
BRANCH   7  25
ATOM     25  C   UNL     1       1.332   9.116  19.195  0.00  0.00    +0.000 A 
ATOM     26  C   UNL     1       1.911   9.296  17.932  0.00  0.00    +0.000 A 
ATOM     27  C   UNL     1       2.750   8.318  17.388  0.00  0.00    +0.000 A 
ATOM     28  C   UNL     1       3.022   7.150  18.101  0.00  0.00    +0.000 A 
ATOM     29  C   UNL     1       2.449   6.972  19.368  0.00  0.00    +0.000 A 
ATOM     30  C   UNL     1       1.607   7.948  19.918  0.00  0.00    +0.000 A 
BRANCH  29  31
ATOM     31  N   UNL     1       2.733   5.748  20.125  0.00  0.00    +0.000 N 
ATOM     32  O   UNL     1       3.812   5.174  19.916  0.00  0.00    +0.000 OA
ATOM     33  O   UNL     1       1.873   5.353  20.928  0.00  0.00    +0.000 OA
ENDBRANCH  29  31
ENDBRANCH   7  25
TORSDOF 5
ENDMDL
MODEL 3
REMARK VINA RESULT:      -7.5      5.319      9.626
REMARK  Name = 
REMARK  6 active torsions:
REMARK  status: ('A' for Active; 'I' for Inactive)
REMARK    1  A    between atoms: C_1  and  S_2
REMARK    2  A    between atoms: S_2  and  C_5
REMARK    3  A    between atoms: C_8  and  C_9
REMARK    4  A    between atoms: C_10  and  C_11
REMARK    5  A    between atoms: C_22  and  C_23
REMARK    6  A    between atoms: C_27  and  N_28
REMARK                            x       y       z     vdW  Elec       q    Type
REMARK                         _______ _______ _______ _____ _____    ______ ____
ROOT
ATOM      1  C   UNL     1       3.769   4.741  17.755  0.00  0.00    +0.000 C 
ATOM      2  C   UNL     1       3.513   3.577  18.365  0.00  0.00    +0.000 C 
ATOM      3  C   UNL     1       4.239   2.551  17.600  0.00  0.00    +0.000 C 
ATOM      4  O   UNL     1       4.244   1.358  17.859  0.00  0.00    +0.000 OA
ATOM      5  O   UNL     1       4.887   3.118  16.538  0.00  0.00    +0.000 OA
ATOM      6  C   UNL     1       4.607   4.478  16.615  0.00  0.00    +0.000 C 
ATOM      7  C   UNL     1       5.053   5.355  15.704  0.00  0.00    +0.000 C 
ENDROOT
BRANCH   2   8
ATOM      8  C   UNL     1       2.665   3.297  19.521  0.00  0.00    +0.000 A 
ATOM      9  C   UNL     1       3.285   3.040  20.755  0.00  0.00    +0.000 A 
ATOM     10  C   UNL     1       2.521   2.783  21.896  0.00  0.00    +0.000 A 
ATOM     11  C   UNL     1       1.130   2.781  21.817  0.00  0.00    +0.000 A 
ATOM     12  C   UNL     1       0.502   3.026  20.596  0.00  0.00    +0.000 A 
ATOM     13  C   UNL     1       1.264   3.279  19.450  0.00  0.00    +0.000 A 
ATOM     14 CL   UNL     1       0.424   3.559  17.965  0.00  0.00    +0.000 Cl
ENDBRANCH   2   8
BRANCH   1  18
ATOM     15  C   UNL     1       1.911   8.351  19.032  0.00  0.00    +0.000 A 
ATOM     16  C   UNL     1       2.189   7.352  19.967  0.00  0.00    +0.000 A 
ATOM     17  C   UNL     1       2.839   6.185  19.555  0.00  0.00    +0.000 A 
ATOM     18  C   UNL     1       3.195   6.011  18.210  0.00  0.00    +0.000 A 
ATOM     19  C   UNL     1       2.912   7.024  17.283  0.00  0.00    +0.000 A 
ATOM     20  C   UNL     1       2.263   8.192  17.690  0.00  0.00    +0.000 A 
BRANCH  15  22
ATOM     21  C   UNL     1       1.074   9.702  21.312  0.00  0.00    +0.000 C 
ATOM     22  S   UNL     1       1.046   9.819  19.542  0.00  0.00    +0.000 S 
ATOM     23  O   UNL     1      -0.330   9.691  19.101  0.00  0.00    +0.000 OA
ATOM     24  O   UNL     1       1.853  10.960  19.150  0.00  0.00    +0.000 OA
ENDBRANCH  15  22
ENDBRANCH   1  18
BRANCH   7  25
ATOM     25  C   UNL     1       5.826   4.942  14.527  0.00  0.00    +0.000 A 
ATOM     26  C   UNL     1       7.109   5.453  14.294  0.00  0.00    +0.000 A 
ATOM     27  C   UNL     1       7.845   5.043  13.177  0.00  0.00    +0.000 A 
ATOM     28  C   UNL     1       7.310   4.114  12.284  0.00  0.00    +0.000 A 
ATOM     29  C   UNL     1       6.029   3.597  12.521  0.00  0.00    +0.000 A 
ATOM     30  C   UNL     1       5.286   4.005  13.638  0.00  0.00    +0.000 A 
BRANCH  29  31
ATOM     31  N   UNL     1       5.459   2.618  11.588  0.00  0.00    +0.000 N 
ATOM     32  O   UNL     1       6.151   1.633  11.289  0.00  0.00    +0.000 OA
ATOM     33  O   UNL     1       4.320   2.835  11.148  0.00  0.00    +0.000 OA
ENDBRANCH  29  31
ENDBRANCH   7  25
TORSDOF 5
ENDMDL
MODEL 4
REMARK VINA RESULT:      -7.4      1.204      1.773
REMARK  Name = 
REMARK  6 active torsions:
REMARK  status: ('A' for Active; 'I' for Inactive)
REMARK    1  A    between atoms: C_1  and  S_2
REMARK    2  A    between atoms: S_2  and  C_5
REMARK    3  A    between atoms: C_8  and  C_9
REMARK    4  A    between atoms: C_10  and  C_11
REMARK    5  A    between atoms: C_22  and  C_23
REMARK    6  A    between atoms: C_27  and  N_28
REMARK                            x       y       z     vdW  Elec       q    Type
REMARK                         _______ _______ _______ _____ _____    ______ ____
ROOT
ATOM      1  C   UNL     1       0.283  12.824  20.492  0.00  0.00    +0.000 C 
ATOM      2  C   UNL     1       1.094  13.882  20.368  0.00  0.00    +0.000 C 
ATOM      3  C   UNL     1       2.266  13.407  19.615  0.00  0.00    +0.000 C 
ATOM      4  O   UNL     1       3.225  14.096  19.307  0.00  0.00    +0.000 OA
ATOM      5  O   UNL     1       2.142  12.076  19.330  0.00  0.00    +0.000 OA
ATOM      6  C   UNL     1       0.918  11.694  19.868  0.00  0.00    +0.000 C 
ATOM      7  C   UNL     1       0.473  10.430  19.811  0.00  0.00    +0.000 C 
ENDROOT
BRANCH   2   8
ATOM      8  C   UNL     1       0.941  15.240  20.885  0.00  0.00    +0.000 A 
ATOM      9  C   UNL     1       1.427  15.520  22.173  0.00  0.00    +0.000 A 
ATOM     10  C   UNL     1       1.321  16.805  22.709  0.00  0.00    +0.000 A 
ATOM     11  C   UNL     1       0.731  17.824  21.965  0.00  0.00    +0.000 A 
ATOM     12  C   UNL     1       0.236  17.557  20.689  0.00  0.00    +0.000 A 
ATOM     13  C   UNL     1       0.336  16.270  20.150  0.00  0.00    +0.000 A 
ATOM     14 CL   UNL     1      -0.311  16.002  18.569  0.00  0.00    +0.000 Cl
ENDBRANCH   2   8
BRANCH   1  18
ATOM     15  C   UNL     1      -3.452  12.816  22.532  0.00  0.00    +0.000 A 
ATOM     16  C   UNL     1      -2.290  12.464  23.222  0.00  0.00    +0.000 A 
ATOM     17  C   UNL     1      -1.058  12.510  22.563  0.00  0.00    +0.000 A 
ATOM     18  C   UNL     1      -0.991  12.889  21.215  0.00  0.00    +0.000 A 
ATOM     19  C   UNL     1      -2.166  13.242  20.537  0.00  0.00    +0.000 A 
ATOM     20  C   UNL     1      -3.399  13.198  21.190  0.00  0.00    +0.000 A 
BRANCH  15  22
ATOM     21  C   UNL     1      -5.409  14.418  23.685  0.00  0.00    +0.000 C 
ATOM     22  S   UNL     1      -5.027  12.718  23.353  0.00  0.00    +0.000 S 
ATOM     23  O   UNL     1      -4.818  12.044  24.620  0.00  0.00    +0.000 OA
ATOM     24  O   UNL     1      -5.991  12.215  22.390  0.00  0.00    +0.000 OA
ENDBRANCH  15  22
ENDBRANCH   1  18
BRANCH   7  25
ATOM     25  C   UNL     1       1.264   9.343  19.225  0.00  0.00    +0.000 A 
ATOM     26  C   UNL     1       1.821   9.467  17.945  0.00  0.00    +0.000 A 
ATOM     27  C   UNL     1       2.587   8.431  17.399  0.00  0.00    +0.000 A 
ATOM     28  C   UNL     1       2.808   7.262  18.127  0.00  0.00    +0.000 A 
ATOM     29  C   UNL     1       2.257   7.139  19.410  0.00  0.00    +0.000 A 
ATOM     30  C   UNL     1       1.488   8.174  19.962  0.00  0.00    +0.000 A 
BRANCH  29  31
ATOM     31  N   UNL     1       2.489   5.914  20.184  0.00  0.00    +0.000 N 
ATOM     32  O   UNL     1       1.589   5.532  20.946  0.00  0.00    +0.000 OA
ATOM     33  O   UNL     1       3.576   5.335  20.035  0.00  0.00    +0.000 OA
ENDBRANCH  29  31
ENDBRANCH   7  25
TORSDOF 5
ENDMDL
MODEL 5
REMARK VINA RESULT:      -7.3      2.626      3.679
REMARK  Name = 
REMARK  6 active torsions:
REMARK  status: ('A' for Active; 'I' for Inactive)
REMARK    1  A    between atoms: C_1  and  S_2
REMARK    2  A    between atoms: S_2  and  C_5
REMARK    3  A    between atoms: C_8  and  C_9
REMARK    4  A    between atoms: C_10  and  C_11
REMARK    5  A    between atoms: C_22  and  C_23
REMARK    6  A    between atoms: C_27  and  N_28
REMARK                            x       y       z     vdW  Elec       q    Type
REMARK                         _______ _______ _______ _____ _____    ______ ____
ROOT
ATOM      1  C   UNL     1      -1.298  13.050  22.026  0.00  0.00    +0.000 C 
ATOM      2  C   UNL     1      -0.513  14.110  22.259  0.00  0.00    +0.000 C 
ATOM      3  C   UNL     1       0.848  13.694  21.888  0.00  0.00    +0.000 C 
ATOM      4  O   UNL     1       1.841  14.401  21.965  0.00  0.00    +0.000 OA
ATOM      5  O   UNL     1       0.853  12.393  21.468  0.00  0.00    +0.000 OA
ATOM      6  C   UNL     1      -0.471  11.973  21.548  0.00  0.00    +0.000 C 
ATOM      7  C   UNL     1      -0.847  10.722  21.246  0.00  0.00    +0.000 C 
ENDROOT
BRANCH   2   8
ATOM      8  C   UNL     1      -0.854  15.419  22.810  0.00  0.00    +0.000 A 
ATOM      9  C   UNL     1      -0.672  15.629  24.187  0.00  0.00    +0.000 A 
ATOM     10  C   UNL     1      -0.967  16.867  24.764  0.00  0.00    +0.000 A 
ATOM     11  C   UNL     1      -1.445  17.908  23.971  0.00  0.00    +0.000 A 
ATOM     12  C   UNL     1      -1.639  17.710  22.604  0.00  0.00    +0.000 A 
ATOM     13  C   UNL     1      -1.350  16.470  22.024  0.00  0.00    +0.000 A 
ATOM     14 CL   UNL     1      -1.628  16.285  20.328  0.00  0.00    +0.000 Cl
ENDBRANCH   2   8
BRANCH   1  18
ATOM     15  C   UNL     1      -5.479  12.873  22.801  0.00  0.00    +0.000 A 
ATOM     16  C   UNL     1      -4.578  12.816  23.867  0.00  0.00    +0.000 A 
ATOM     17  C   UNL     1      -3.207  12.919  23.615  0.00  0.00    +0.000 A 
ATOM     18  C   UNL     1      -2.738  13.061  22.301  0.00  0.00    +0.000 A 
ATOM     19  C   UNL     1      -3.655  13.120  21.243  0.00  0.00    +0.000 A 
ATOM     20  C   UNL     1      -5.025  13.018  21.489  0.00  0.00    +0.000 A 
BRANCH  15  22
ATOM     21  C   UNL     1      -7.579  14.084  24.162  0.00  0.00    +0.000 C 
ATOM     22  S   UNL     1      -7.222  12.700  23.112  0.00  0.00    +0.000 S 
ATOM     23  O   UNL     1      -7.410  11.486  23.882  0.00  0.00    +0.000 OA
ATOM     24  O   UNL     1      -7.912  12.897  21.850  0.00  0.00    +0.000 OA
ENDBRANCH  15  22
ENDBRANCH   1  18
BRANCH   7  25
ATOM     25  C   UNL     1       0.115   9.684  20.858  0.00  0.00    +0.000 A 
ATOM     26  C   UNL     1       0.388   8.603  21.705  0.00  0.00    +0.000 A 
ATOM     27  C   UNL     1       1.296   7.610  21.321  0.00  0.00    +0.000 A 
ATOM     28  C   UNL     1       1.938   7.685  20.084  0.00  0.00    +0.000 A 
ATOM     29  C   UNL     1       1.660   8.763  19.233  0.00  0.00    +0.000 A 
ATOM     30  C   UNL     1       0.752   9.762  19.613  0.00  0.00    +0.000 A 
BRANCH  29  31
ATOM     31  N   UNL     1       2.329   8.848  17.929  0.00  0.00    +0.000 N 
ATOM     32  O   UNL     1       2.140   9.865  17.246  0.00  0.00    +0.000 OA
ATOM     33  O   UNL     1       3.039   7.892  17.582  0.00  0.00    +0.000 OA
ENDBRANCH  29  31
ENDBRANCH   7  25
TORSDOF 5
ENDMDL
MODEL 6
REMARK VINA RESULT:      -7.3      2.604      3.543
REMARK  Name = 
REMARK  6 active torsions:
REMARK  status: ('A' for Active; 'I' for Inactive)
REMARK    1  A    between atoms: C_1  and  S_2
REMARK    2  A    between atoms: S_2  and  C_5
REMARK    3  A    between atoms: C_8  and  C_9
REMARK    4  A    between atoms: C_10  and  C_11
REMARK    5  A    between atoms: C_22  and  C_23
REMARK    6  A    between atoms: C_27  and  N_28
REMARK                            x       y       z     vdW  Elec       q    Type
REMARK                         _______ _______ _______ _____ _____    ______ ____
ROOT
ATOM      1  C   UNL     1      -1.290  12.747  21.964  0.00  0.00    +0.000 C 
ATOM      2  C   UNL     1      -0.540  13.841  22.146  0.00  0.00    +0.000 C 
ATOM      3  C   UNL     1       0.819  13.474  21.719  0.00  0.00    +0.000 C 
ATOM      4  O   UNL     1       1.784  14.221  21.741  0.00  0.00    +0.000 OA
ATOM      5  O   UNL     1       0.858  12.167  21.320  0.00  0.00    +0.000 OA
ATOM      6  C   UNL     1      -0.442  11.696  21.466  0.00  0.00    +0.000 C 
ATOM      7  C   UNL     1      -0.779  10.426  21.200  0.00  0.00    +0.000 C 
ENDROOT
BRANCH   2   8
ATOM      8  C   UNL     1      -0.910  15.144  22.692  0.00  0.00    +0.000 A 
ATOM      9  C   UNL     1      -0.825  15.333  24.081  0.00  0.00    +0.000 A 
ATOM     10  C   UNL     1      -1.151  16.564  24.654  0.00  0.00    +0.000 A 
ATOM     11  C   UNL     1      -1.563  17.621  23.846  0.00  0.00    +0.000 A 
ATOM     12  C   UNL     1      -1.660  17.445  22.466  0.00  0.00    +0.000 A 
ATOM     13  C   UNL     1      -1.339  16.212  21.889  0.00  0.00    +0.000 A 
ATOM     14 CL   UNL     1      -1.497  16.056  20.174  0.00  0.00    +0.000 Cl
ENDBRANCH   2   8
BRANCH   1  18
ATOM     15  C   UNL     1      -5.420  12.829  22.992  0.00  0.00    +0.000 A 
ATOM     16  C   UNL     1      -5.039  12.994  21.659  0.00  0.00    +0.000 A 
ATOM     17  C   UNL     1      -3.686  12.923  21.316  0.00  0.00    +0.000 A 
ATOM     18  C   UNL     1      -2.716  12.705  22.304  0.00  0.00    +0.000 A 
ATOM     19  C   UNL     1      -3.114  12.538  23.638  0.00  0.00    +0.000 A 
ATOM     20  C   UNL     1      -4.464  12.608  23.986  0.00  0.00    +0.000 A 
BRANCH  15  22
ATOM     21  C   UNL     1      -7.910  13.437  21.917  0.00  0.00    +0.000 C 
ATOM     22  S   UNL     1      -7.136  12.962  23.441  0.00  0.00    +0.000 S 
ATOM     23  O   UNL     1      -7.260  14.064  24.375  0.00  0.00    +0.000 OA
ATOM     24  O   UNL     1      -7.600  11.631  23.790  0.00  0.00    +0.000 OA
ENDBRANCH  15  22
ENDBRANCH   1  18
BRANCH   7  25
ATOM     25  C   UNL     1       0.206   9.422  20.785  0.00  0.00    +0.000 A 
ATOM     26  C   UNL     1       0.483   8.309  21.589  0.00  0.00    +0.000 A 
ATOM     27  C   UNL     1       1.414   7.349  21.179  0.00  0.00    +0.000 A 
ATOM     28  C   UNL     1       2.075   7.487  19.958  0.00  0.00    +0.000 A 
ATOM     29  C   UNL     1       1.793   8.596  19.149  0.00  0.00    +0.000 A 
ATOM     30  C   UNL     1       0.862   9.562  19.556  0.00  0.00    +0.000 A 
BRANCH  29  31
ATOM     31  N   UNL     1       2.482   8.747  17.862  0.00  0.00    +0.000 N 
ATOM     32  O   UNL     1       3.248   7.840  17.505  0.00  0.00    +0.000 OA
ATOM     33  O   UNL     1       2.262   9.778  17.208  0.00  0.00    +0.000 OA
ENDBRANCH  29  31
ENDBRANCH   7  25
TORSDOF 5
ENDMDL
MODEL 7
REMARK VINA RESULT:      -7.2      5.262      9.610
REMARK  Name = 
REMARK  6 active torsions:
REMARK  status: ('A' for Active; 'I' for Inactive)
REMARK    1  A    between atoms: C_1  and  S_2
REMARK    2  A    between atoms: S_2  and  C_5
REMARK    3  A    between atoms: C_8  and  C_9
REMARK    4  A    between atoms: C_10  and  C_11
REMARK    5  A    between atoms: C_22  and  C_23
REMARK    6  A    between atoms: C_27  and  N_28
REMARK                            x       y       z     vdW  Elec       q    Type
REMARK                         _______ _______ _______ _____ _____    ______ ____
ROOT
ATOM      1  C   UNL     1       3.759   4.728  17.719  0.00  0.00    +0.000 C 
ATOM      2  C   UNL     1       3.499   3.567  18.332  0.00  0.00    +0.000 C 
ATOM      3  C   UNL     1       4.208   2.534  17.560  0.00  0.00    +0.000 C 
ATOM      4  O   UNL     1       4.204   1.342  17.820  0.00  0.00    +0.000 OA
ATOM      5  O   UNL     1       4.851   3.094  16.491  0.00  0.00    +0.000 OA
ATOM      6  C   UNL     1       4.583   4.457  16.570  0.00  0.00    +0.000 C 
ATOM      7  C   UNL     1       5.029   5.329  15.654  0.00  0.00    +0.000 C 
ENDROOT
BRANCH   2   8
ATOM      8  C   UNL     1       2.659   3.296  19.496  0.00  0.00    +0.000 A 
ATOM      9  C   UNL     1       1.291   3.607  19.417  0.00  0.00    +0.000 A 
ATOM     10  C   UNL     1       0.440   3.353  20.495  0.00  0.00    +0.000 A 
ATOM     11  C   UNL     1       0.946   2.785  21.663  0.00  0.00    +0.000 A 
ATOM     12  C   UNL     1       2.304   2.480  21.758  0.00  0.00    +0.000 A 
ATOM     13  C   UNL     1       3.159   2.737  20.682  0.00  0.00    +0.000 A 
ATOM     14 CL   UNL     1       4.834   2.350  20.870  0.00  0.00    +0.000 Cl
ENDBRANCH   2   8
BRANCH   1  18
ATOM     15  C   UNL     1       1.947   8.357  19.009  0.00  0.00    +0.000 A 
ATOM     16  C   UNL     1       2.220   7.354  19.942  0.00  0.00    +0.000 A 
ATOM     17  C   UNL     1       2.855   6.181  19.525  0.00  0.00    +0.000 A 
ATOM     18  C   UNL     1       3.201   6.004  18.177  0.00  0.00    +0.000 A 
ATOM     19  C   UNL     1       2.923   7.021  17.254  0.00  0.00    +0.000 A 
ATOM     20  C   UNL     1       2.289   8.195  17.665  0.00  0.00    +0.000 A 
BRANCH  15  22
ATOM     21  C   UNL     1       1.913  11.105  18.596  0.00  0.00    +0.000 C 
ATOM     22  S   UNL     1       1.100   9.833  19.526  0.00  0.00    +0.000 S 
ATOM     23  O   UNL     1       1.397  10.038  20.931  0.00  0.00    +0.000 OA
ATOM     24  O   UNL     1      -0.271   9.735  19.060  0.00  0.00    +0.000 OA
ENDBRANCH  15  22
ENDBRANCH   1  18
BRANCH   7  25
ATOM     25  C   UNL     1       5.787   4.908  14.471  0.00  0.00    +0.000 A 
ATOM     26  C   UNL     1       7.070   5.411  14.222  0.00  0.00    +0.000 A 
ATOM     27  C   UNL     1       7.792   4.993  13.099  0.00  0.00    +0.000 A 
ATOM     28  C   UNL     1       7.241   4.066  12.214  0.00  0.00    +0.000 A 
ATOM     29  C   UNL     1       5.959   3.557  12.466  0.00  0.00    +0.000 A 
ATOM     30  C   UNL     1       5.231   3.973  13.589  0.00  0.00    +0.000 A 
BRANCH  29  31
ATOM     31  N   UNL     1       5.374   2.579  11.542  0.00  0.00    +0.000 N 
ATOM     32  O   UNL     1       4.236   2.805  11.103  0.00  0.00    +0.000 OA
ATOM     33  O   UNL     1       6.049   1.577  11.259  0.00  0.00    +0.000 OA
ENDBRANCH  29  31
ENDBRANCH   7  25
TORSDOF 5
ENDMDL
MODEL 8
REMARK VINA RESULT:      -6.9      0.953      1.060
REMARK  Name = 
REMARK  6 active torsions:
REMARK  status: ('A' for Active; 'I' for Inactive)
REMARK    1  A    between atoms: C_1  and  S_2
REMARK    2  A    between atoms: S_2  and  C_5
REMARK    3  A    between atoms: C_8  and  C_9
REMARK    4  A    between atoms: C_10  and  C_11
REMARK    5  A    between atoms: C_22  and  C_23
REMARK    6  A    between atoms: C_27  and  N_28
REMARK                            x       y       z     vdW  Elec       q    Type
REMARK                         _______ _______ _______ _____ _____    ______ ____
ROOT
ATOM      1  C   UNL     1       0.386  11.520  19.935  0.00  0.00    +0.000 C 
ATOM      2  C   UNL     1       1.040  12.512  19.318  0.00  0.00    +0.000 C 
ATOM      3  C   UNL     1       2.087  11.865  18.511  0.00  0.00    +0.000 C 
ATOM      4  O   UNL     1       2.890  12.455  17.805  0.00  0.00    +0.000 OA
ATOM      5  O   UNL     1       2.054  10.510  18.684  0.00  0.00    +0.000 OA
ATOM      6  C   UNL     1       1.005  10.274  19.567  0.00  0.00    +0.000 C 
ATOM      7  C   UNL     1       0.695   9.044  20.000  0.00  0.00    +0.000 C 
ENDROOT
BRANCH   2   8
ATOM      8  C   UNL     1       0.846  13.957  19.412  0.00  0.00    +0.000 A 
ATOM      9  C   UNL     1      -0.124  14.554  18.589  0.00  0.00    +0.000 A 
ATOM     10  C   UNL     1      -0.361  15.928  18.651  0.00  0.00    +0.000 A 
ATOM     11  C   UNL     1       0.366  16.722  19.535  0.00  0.00    +0.000 A 
ATOM     12  C   UNL     1       1.338  16.144  20.351  0.00  0.00    +0.000 A 
ATOM     13  C   UNL     1       1.582  14.768  20.289  0.00  0.00    +0.000 A 
ATOM     14 CL   UNL     1       2.811  14.117  21.316  0.00  0.00    +0.000 Cl
ENDBRANCH   2   8
BRANCH   1  18
ATOM     15  C   UNL     1      -2.769  12.432  22.642  0.00  0.00    +0.000 A 
ATOM     16  C   UNL     1      -2.992  12.531  21.267  0.00  0.00    +0.000 A 
ATOM     17  C   UNL     1      -1.969  12.189  20.378  0.00  0.00    +0.000 A 
ATOM     18  C   UNL     1      -0.723  11.766  20.862  0.00  0.00    +0.000 A 
ATOM     19  C   UNL     1      -0.516  11.669  22.245  0.00  0.00    +0.000 A 
ATOM     20  C   UNL     1      -1.534  12.009  23.137  0.00  0.00    +0.000 A 
BRANCH  15  22
ATOM     21  C   UNL     1      -3.304  14.227  24.695  0.00  0.00    +0.000 C 
ATOM     22  S   UNL     1      -4.053  12.907  23.778  0.00  0.00    +0.000 S 
ATOM     23  O   UNL     1      -4.271  11.794  24.681  0.00  0.00    +0.000 OA
ATOM     24  O   UNL     1      -5.145  13.460  22.996  0.00  0.00    +0.000 OA
ENDBRANCH  15  22
ENDBRANCH   1  18
BRANCH   7  25
ATOM     25  C   UNL     1       1.469   7.857  19.619  0.00  0.00    +0.000 A 
ATOM     26  C   UNL     1       2.356   7.894  18.535  0.00  0.00    +0.000 A 
ATOM     27  C   UNL     1       3.101   6.762  18.188  0.00  0.00    +0.000 A 
ATOM     28  C   UNL     1       2.972   5.583  18.921  0.00  0.00    +0.000 A 
ATOM     29  C   UNL     1       2.090   5.547  20.010  0.00  0.00    +0.000 A 
ATOM     30  C   UNL     1       1.339   6.678  20.362  0.00  0.00    +0.000 A 
BRANCH  29  31
ATOM     31  N   UNL     1       1.950   4.311  20.789  0.00  0.00    +0.000 N 
ATOM     32  O   UNL     1       1.196   3.431  20.348  0.00  0.00    +0.000 OA
ATOM     33  O   UNL     1       2.589   4.222  21.848  0.00  0.00    +0.000 OA
ENDBRANCH  29  31
ENDBRANCH   7  25
TORSDOF 5
ENDMDL
MODEL 9
REMARK VINA RESULT:      -6.8      1.320      1.908
REMARK  Name = 
REMARK  6 active torsions:
REMARK  status: ('A' for Active; 'I' for Inactive)
REMARK    1  A    between atoms: C_1  and  S_2
REMARK    2  A    between atoms: S_2  and  C_5
REMARK    3  A    between atoms: C_8  and  C_9
REMARK    4  A    between atoms: C_10  and  C_11
REMARK    5  A    between atoms: C_22  and  C_23
REMARK    6  A    between atoms: C_27  and  N_28
REMARK                            x       y       z     vdW  Elec       q    Type
REMARK                         _______ _______ _______ _____ _____    ______ ____
ROOT
ATOM      1  C   UNL     1       0.043  12.203  19.078  0.00  0.00    +0.000 C 
ATOM      2  C   UNL     1       0.776  13.323  19.065  0.00  0.00    +0.000 C 
ATOM      3  C   UNL     1       2.148  12.905  18.735  0.00  0.00    +0.000 C 
ATOM      4  O   UNL     1       3.103  13.658  18.633  0.00  0.00    +0.000 OA
ATOM      5  O   UNL     1       2.210  11.547  18.586  0.00  0.00    +0.000 OA
ATOM      6  C   UNL     1       0.913  11.092  18.797  0.00  0.00    +0.000 C 
ATOM      7  C   UNL     1       0.596   9.789  18.765  0.00  0.00    +0.000 C 
ENDROOT
BRANCH   2   8
ATOM      8  C   UNL     1       0.381  14.699  19.354  0.00  0.00    +0.000 A 
ATOM      9  C   UNL     1      -0.221  15.449  18.330  0.00  0.00    +0.000 A 
ATOM     10  C   UNL     1      -0.632  16.764  18.557  0.00  0.00    +0.000 A 
ATOM     11  C   UNL     1      -0.450  17.344  19.810  0.00  0.00    +0.000 A 
ATOM     12  C   UNL     1       0.154  16.614  20.834  0.00  0.00    +0.000 A 
ATOM     13  C   UNL     1       0.572  15.299  20.609  0.00  0.00    +0.000 A 
ATOM     14 CL   UNL     1       1.328  14.455  21.915  0.00  0.00    +0.000 Cl
ENDBRANCH   2   8
BRANCH   1  18
ATOM     15  C   UNL     1      -4.119  12.401  19.946  0.00  0.00    +0.000 A 
ATOM     16  C   UNL     1      -3.697  11.948  18.694  0.00  0.00    +0.000 A 
ATOM     17  C   UNL     1      -2.330  11.842  18.425  0.00  0.00    +0.000 A 
ATOM     18  C   UNL     1      -1.388  12.202  19.398  0.00  0.00    +0.000 A 
ATOM     19  C   UNL     1      -1.826  12.652  20.652  0.00  0.00    +0.000 A 
ATOM     20  C   UNL     1      -3.191  12.760  20.925  0.00  0.00    +0.000 A 
BRANCH  15  22
ATOM     21  C   UNL     1      -6.611  11.679  18.948  0.00  0.00    +0.000 C 
ATOM     22  S   UNL     1      -5.857  12.579  20.278  0.00  0.00    +0.000 S 
ATOM     23  O   UNL     1      -6.191  13.981  20.123  0.00  0.00    +0.000 OA
ATOM     24  O   UNL     1      -6.139  11.877  21.518  0.00  0.00    +0.000 OA
ENDBRANCH  15  22
ENDBRANCH   1  18
BRANCH   7  25
ATOM     25  C   UNL     1       1.601   8.740  18.558  0.00  0.00    +0.000 A 
ATOM     26  C   UNL     1       2.517   8.818  17.501  0.00  0.00    +0.000 A 
ATOM     27  C   UNL     1       3.481   7.821  17.320  0.00  0.00    +0.000 A 
ATOM     28  C   UNL     1       3.545   6.737  18.195  0.00  0.00    +0.000 A 
ATOM     29  C   UNL     1       2.634   6.662  19.258  0.00  0.00    +0.000 A 
ATOM     30  C   UNL     1       1.664   7.657  19.444  0.00  0.00    +0.000 A 
BRANCH  29  31
ATOM     31  N   UNL     1       2.696   5.527  20.186  0.00  0.00    +0.000 N 
ATOM     32  O   UNL     1       3.665   4.759  20.097  0.00  0.00    +0.000 OA
ATOM     33  O   UNL     1       1.770   5.397  21.001  0.00  0.00    +0.000 OA
ENDBRANCH  29  31
ENDBRANCH   7  25
TORSDOF 5
ENDMDL
