MODEL 1
REMARK VINA RESULT:      -6.7      0.000      0.000
REMARK  Name = 
REMARK  8 active torsions:
REMARK  status: ('A' for Active; 'I' for Inactive)
REMARK    1  A    between atoms: C_1  and  C_2
REMARK    2  A    between atoms: C_2  and  O_3
REMARK    3  A    between atoms: O_3  and  C_4
REMARK    4  A    between atoms: C_8  and  C_10
REMARK    5  A    between atoms: C_10  and  C_11
REMARK    6  A    between atoms: C_10  and  C_12
REMARK    7  A    between atoms: C_14  and  N_15
REMARK    8  A    between atoms: C_16  and  C_17
REMARK                            x       y       z     vdW  Elec       q    Type
REMARK                         _______ _______ _______ _____ _____    ______ ____
ROOT
ATOM      1  C   UNL     1       6.850   5.527  16.175  0.00  0.00    +0.000 A 
ATOM      2  N   UNL     1       6.058   5.077  17.178  0.00  0.00    +0.000 NA
ATOM      3  C   UNL     1       5.198   4.088  16.884  0.00  0.00    +0.000 A 
ATOM      4  N   UNL     1       4.401   3.673  17.951  0.00  0.00    +0.000 N 
ATOM      5  C   UNL     1       3.058   3.380  17.823  0.00  0.00    +0.000 C 
ATOM      6  O   UNL     1       2.441   3.466  16.761  0.00  0.00    +0.000 OA
ATOM      7  C   UNL     1       5.157   3.469  15.640  0.00  0.00    +0.000 A 
ATOM      8  C   UNL     1       6.002   3.917  14.615  0.00  0.00    +0.000 A 
ATOM      9  C   UNL     1       6.876   4.975  14.898  0.00  0.00    +0.000 A 
ATOM     10  H   UNL     1       4.727   4.020  18.842  0.00  0.00    +0.000 HD
ENDROOT
BRANCH   5  11
ATOM     11  C   UNL     1       2.393   2.869  19.109  0.00  0.00    +0.000 C 
ATOM     12  C   UNL     1       2.367   3.890  20.244  0.00  0.00    +0.000 C 
ATOM     13  C   UNL     1       0.965   2.399  18.817  0.00  0.00    +0.000 C 
ENDBRANCH   5  11
BRANCH   8  14
ATOM     14  N   UNL     1       6.111   3.133  13.452  0.00  0.00    +0.000 N 
ATOM     15  H   UNL     1       6.559   3.593  12.663  0.00  0.00    +0.000 HD
ATOM     16  H   UNL     1       6.448   2.182  13.581  0.00  0.00    +0.000 HD
ENDBRANCH   8  14
BRANCH   9  17
ATOM     17  C   UNL     1       7.788   5.481  13.913  0.00  0.00    +0.000 C 
ATOM     18  N   UNL     1       8.525   5.848  13.098  0.00  0.00    +0.000 NA
ENDBRANCH   9  17
BRANCH   1  19
ATOM     19  O   UNL     1       7.651   6.625  16.429  0.00  0.00    +0.000 OA
BRANCH  19  21
ATOM     20  C   UNL     1       7.985   8.550  17.809  0.00  0.00    +0.000 C 
ATOM     21  C   UNL     1       7.525   7.105  17.769  0.00  0.00    +0.000 C 
ENDBRANCH  19  21
ENDBRANCH   1  19
TORSDOF 5
ENDMDL
MODEL 2
REMARK VINA RESULT:      -6.7      1.289      1.632
REMARK  Name = 
REMARK  8 active torsions:
REMARK  status: ('A' for Active; 'I' for Inactive)
REMARK    1  A    between atoms: C_1  and  C_2
REMARK    2  A    between atoms: C_2  and  O_3
REMARK    3  A    between atoms: O_3  and  C_4
REMARK    4  A    between atoms: C_8  and  C_10
REMARK    5  A    between atoms: C_10  and  C_11
REMARK    6  A    between atoms: C_10  and  C_12
REMARK    7  A    between atoms: C_14  and  N_15
REMARK    8  A    between atoms: C_16  and  C_17
REMARK                            x       y       z     vdW  Elec       q    Type
REMARK                         _______ _______ _______ _____ _____    ______ ____
ROOT
ATOM      1  C   UNL     1       5.887   6.125  16.843  0.00  0.00    +0.000 A 
ATOM      2  N   UNL     1       4.961   5.988  17.822  0.00  0.00    +0.000 NA
ATOM      3  C   UNL     1       4.224   4.865  17.817  0.00  0.00    +0.000 A 
ATOM      4  N   UNL     1       3.280   4.782  18.840  0.00  0.00    +0.000 N 
ATOM      5  C   UNL     1       1.999   4.303  18.651  0.00  0.00    +0.000 C 
ATOM      6  O   UNL     1       1.572   3.913  17.564  0.00  0.00    +0.000 OA
ATOM      7  C   UNL     1       4.437   3.827  16.916  0.00  0.00    +0.000 A 
ATOM      8  C   UNL     1       5.420   3.961  15.925  0.00  0.00    +0.000 A 
ATOM      9  C   UNL     1       6.167   5.146  15.895  0.00  0.00    +0.000 A 
ATOM     10  H   UNL     1       3.425   5.472  19.564  0.00  0.00    +0.000 HD
ENDROOT
BRANCH   5  11
ATOM     11  C   UNL     1       1.152   4.230  19.929  0.00  0.00    +0.000 C 
ATOM     12  C   UNL     1       1.227   2.885  20.649  0.00  0.00    +0.000 C 
ATOM     13  C   UNL     1       1.556   5.346  20.897  0.00  0.00    +0.000 C 
ENDBRANCH   5  11
BRANCH   8  14
ATOM     14  N   UNL     1       5.775   2.821  15.182  0.00  0.00    +0.000 N 
ATOM     15  H   UNL     1       5.030   2.141  15.053  0.00  0.00    +0.000 HD
ATOM     16  H   UNL     1       6.291   2.989  14.320  0.00  0.00    +0.000 HD
ENDBRANCH   8  14
BRANCH   9  17
ATOM     17  C   UNL     1       7.205   5.356  14.928  0.00  0.00    +0.000 C 
ATOM     18  N   UNL     1       8.016   5.509  14.114  0.00  0.00    +0.000 NA
ENDBRANCH   9  17
BRANCH   1  19
ATOM     19  O   UNL     1       6.566   7.327  16.762  0.00  0.00    +0.000 OA
BRANCH  19  21
ATOM     20  C   UNL     1       8.023   8.900  17.823  0.00  0.00    +0.000 C 
ATOM     21  C   UNL     1       7.604   7.444  17.737  0.00  0.00    +0.000 C 
ENDBRANCH  19  21
ENDBRANCH   1  19
TORSDOF 5
ENDMDL
MODEL 3
REMARK VINA RESULT:      -6.2      3.112      7.324
REMARK  Name = 
REMARK  8 active torsions:
REMARK  status: ('A' for Active; 'I' for Inactive)
REMARK    1  A    between atoms: C_1  and  C_2
REMARK    2  A    between atoms: C_2  and  O_3
REMARK    3  A    between atoms: O_3  and  C_4
REMARK    4  A    between atoms: C_8  and  C_10
REMARK    5  A    between atoms: C_10  and  C_11
REMARK    6  A    between atoms: C_10  and  C_12
REMARK    7  A    between atoms: C_14  and  N_15
REMARK    8  A    between atoms: C_16  and  C_17
REMARK                            x       y       z     vdW  Elec       q    Type
REMARK                         _______ _______ _______ _____ _____    ______ ____
ROOT
ATOM      1  C   UNL     1       6.200   6.684  17.488  0.00  0.00    +0.000 A 
ATOM      2  N   UNL     1       6.860   7.821  17.162  0.00  0.00    +0.000 NA
ATOM      3  C   UNL     1       7.934   8.142  17.902  0.00  0.00    +0.000 A 
ATOM      4  N   UNL     1       8.567   9.327  17.528  0.00  0.00    +0.000 N 
ATOM      5  C   UNL     1       9.046  10.249  18.438  0.00  0.00    +0.000 C 
ATOM      6  O   UNL     1       8.951  10.113  19.658  0.00  0.00    +0.000 OA
ATOM      7  C   UNL     1       8.429   7.320  18.909  0.00  0.00    +0.000 A 
ATOM      8  C   UNL     1       7.760   6.127  19.220  0.00  0.00    +0.000 A 
ATOM      9  C   UNL     1       6.614   5.803  18.481  0.00  0.00    +0.000 A 
ATOM     10  H   UNL     1       8.263   9.666  16.627  0.00  0.00    +0.000 HD
ENDROOT
BRANCH   5  11
ATOM     11  C   UNL     1       9.774  11.445  17.809  0.00  0.00    +0.000 C 
ATOM     12  C   UNL     1       8.988  12.754  17.869  0.00  0.00    +0.000 C 
ATOM     13  C   UNL     1      11.141  11.642  18.471  0.00  0.00    +0.000 C 
ENDBRANCH   5  11
BRANCH   8  14
ATOM     14  N   UNL     1       8.401   5.208  20.070  0.00  0.00    +0.000 N 
ATOM     15  H   UNL     1       8.791   4.392  19.606  0.00  0.00    +0.000 HD
ATOM     16  H   UNL     1       9.045   5.601  20.754  0.00  0.00    +0.000 HD
ENDBRANCH   8  14
BRANCH   9  17
ATOM     17  C   UNL     1       5.883   4.592  18.722  0.00  0.00    +0.000 C 
ATOM     18  N   UNL     1       5.276   3.633  18.954  0.00  0.00    +0.000 NA
ENDBRANCH   9  17
BRANCH   1  19
ATOM     19  O   UNL     1       5.024   6.406  16.817  0.00  0.00    +0.000 OA
BRANCH  19  21
ATOM     20  C   UNL     1       5.686   4.971  15.021  0.00  0.00    +0.000 C 
ATOM     21  C   UNL     1       5.193   6.355  15.398  0.00  0.00    +0.000 C 
ENDBRANCH  19  21
ENDBRANCH   1  19
TORSDOF 5
ENDMDL
MODEL 4
REMARK VINA RESULT:      -6.2      2.004      3.489
REMARK  Name = 
REMARK  8 active torsions:
REMARK  status: ('A' for Active; 'I' for Inactive)
REMARK    1  A    between atoms: C_1  and  C_2
REMARK    2  A    between atoms: C_2  and  O_3
REMARK    3  A    between atoms: O_3  and  C_4
REMARK    4  A    between atoms: C_8  and  C_10
REMARK    5  A    between atoms: C_10  and  C_11
REMARK    6  A    between atoms: C_10  and  C_12
REMARK    7  A    between atoms: C_14  and  N_15
REMARK    8  A    between atoms: C_16  and  C_17
REMARK                            x       y       z     vdW  Elec       q    Type
REMARK                         _______ _______ _______ _____ _____    ______ ____
ROOT
ATOM      1  C   UNL     1       6.007   4.019  14.705  0.00  0.00    +0.000 A 
ATOM      2  N   UNL     1       5.053   3.568  15.555  0.00  0.00    +0.000 NA
ATOM      3  C   UNL     1       5.029   4.098  16.789  0.00  0.00    +0.000 A 
ATOM      4  N   UNL     1       4.034   3.589  17.623  0.00  0.00    +0.000 N 
ATOM      5  C   UNL     1       4.242   3.294  18.956  0.00  0.00    +0.000 C 
ATOM      6  O   UNL     1       5.322   3.444  19.525  0.00  0.00    +0.000 OA
ATOM      7  C   UNL     1       5.874   5.130  17.183  0.00  0.00    +0.000 A 
ATOM      8  C   UNL     1       6.838   5.616  16.288  0.00  0.00    +0.000 A 
ATOM      9  C   UNL     1       6.899   5.042  15.010  0.00  0.00    +0.000 A 
ATOM     10  H   UNL     1       3.339   3.054  17.122  0.00  0.00    +0.000 HD
ENDROOT
BRANCH   5  11
ATOM     11  C   UNL     1       2.989   2.816  19.704  0.00  0.00    +0.000 C 
ATOM     12  C   UNL     1       2.358   3.878  20.602  0.00  0.00    +0.000 C 
ATOM     13  C   UNL     1       1.942   2.303  18.711  0.00  0.00    +0.000 C 
ENDBRANCH   5  11
BRANCH   8  14
ATOM     14  N   UNL     1       7.516   6.802  16.619  0.00  0.00    +0.000 N 
ATOM     15  H   UNL     1       7.432   7.552  15.938  0.00  0.00    +0.000 HD
ATOM     16  H   UNL     1       7.393   7.139  17.572  0.00  0.00    +0.000 HD
ENDBRANCH   8  14
BRANCH   9  17
ATOM     17  C   UNL     1       7.841   5.493  14.028  0.00  0.00    +0.000 C 
ATOM     18  N   UNL     1       8.580   5.836  13.202  0.00  0.00    +0.000 NA
ENDBRANCH   9  17
BRANCH   1  19
ATOM     19  O   UNL     1       6.122   3.396  13.476  0.00  0.00    +0.000 OA
BRANCH  19  21
ATOM     20  C   UNL     1       5.055   2.672  11.461  0.00  0.00    +0.000 C 
ATOM     21  C   UNL     1       5.007   3.651  12.618  0.00  0.00    +0.000 C 
ENDBRANCH  19  21
ENDBRANCH   1  19
TORSDOF 5
ENDMDL
MODEL 5
REMARK VINA RESULT:      -6.1      1.184      1.477
REMARK  Name = 
REMARK  8 active torsions:
REMARK  status: ('A' for Active; 'I' for Inactive)
REMARK    1  A    between atoms: C_1  and  C_2
REMARK    2  A    between atoms: C_2  and  O_3
REMARK    3  A    between atoms: O_3  and  C_4
REMARK    4  A    between atoms: C_8  and  C_10
REMARK    5  A    between atoms: C_10  and  C_11
REMARK    6  A    between atoms: C_10  and  C_12
REMARK    7  A    between atoms: C_14  and  N_15
REMARK    8  A    between atoms: C_16  and  C_17
REMARK                            x       y       z     vdW  Elec       q    Type
REMARK                         _______ _______ _______ _____ _____    ______ ____
ROOT
ATOM      1  C   UNL     1       6.643   5.029  17.075  0.00  0.00    +0.000 A 
ATOM      2  N   UNL     1       5.764   4.701  18.052  0.00  0.00    +0.000 NA
ATOM      3  C   UNL     1       4.545   4.288  17.668  0.00  0.00    +0.000 A 
ATOM      4  N   UNL     1       3.679   3.974  18.715  0.00  0.00    +0.000 N 
ATOM      5  C   UNL     1       2.343   4.322  18.722  0.00  0.00    +0.000 C 
ATOM      6  O   UNL     1       1.798   4.946  17.812  0.00  0.00    +0.000 OA
ATOM      7  C   UNL     1       4.195   4.109  16.334  0.00  0.00    +0.000 A 
ATOM      8  C   UNL     1       5.121   4.420  15.327  0.00  0.00    +0.000 A 
ATOM      9  C   UNL     1       6.383   4.890  15.716  0.00  0.00    +0.000 A 
ATOM     10  H   UNL     1       4.152   3.894  19.604  0.00  0.00    +0.000 HD
ENDROOT
BRANCH   5  11
ATOM     11  C   UNL     1       1.558   3.810  19.938  0.00  0.00    +0.000 C 
ATOM     12  C   UNL     1       1.432   2.289  20.001  0.00  0.00    +0.000 C 
ATOM     13  C   UNL     1       2.197   4.320  21.234  0.00  0.00    +0.000 C 
ENDBRANCH   5  11
BRANCH   8  14
ATOM     14  N   UNL     1       4.834   4.014  14.012  0.00  0.00    +0.000 N 
ATOM     15  H   UNL     1       4.627   3.025  13.901  0.00  0.00    +0.000 HD
ATOM     16  H   UNL     1       4.183   4.600  13.492  0.00  0.00    +0.000 HD
ENDBRANCH   8  14
BRANCH   9  17
ATOM     17  C   UNL     1       7.395   5.211  14.752  0.00  0.00    +0.000 C 
ATOM     18  N   UNL     1       8.198   5.514  13.973  0.00  0.00    +0.000 NA
ENDBRANCH   9  17
BRANCH   1  19
ATOM     19  O   UNL     1       7.857   5.571  17.456  0.00  0.00    +0.000 OA
BRANCH  19  21
ATOM     20  C   UNL     1       7.746   7.958  17.570  0.00  0.00    +0.000 C 
ATOM     21  C   UNL     1       7.716   6.666  18.364  0.00  0.00    +0.000 C 
ENDBRANCH  19  21
ENDBRANCH   1  19
TORSDOF 5
ENDMDL
MODEL 6
REMARK VINA RESULT:      -6.0      4.199      6.499
REMARK  Name = 
REMARK  8 active torsions:
REMARK  status: ('A' for Active; 'I' for Inactive)
REMARK    1  A    between atoms: C_1  and  C_2
REMARK    2  A    between atoms: C_2  and  O_3
REMARK    3  A    between atoms: O_3  and  C_4
REMARK    4  A    between atoms: C_8  and  C_10
REMARK    5  A    between atoms: C_10  and  C_11
REMARK    6  A    between atoms: C_10  and  C_12
REMARK    7  A    between atoms: C_14  and  N_15
REMARK    8  A    between atoms: C_16  and  C_17
REMARK                            x       y       z     vdW  Elec       q    Type
REMARK                         _______ _______ _______ _____ _____    ______ ____
ROOT
ATOM      1  C   UNL     1       2.813   5.330  18.538  0.00  0.00    +0.000 A 
ATOM      2  N   UNL     1       2.716   6.509  19.198  0.00  0.00    +0.000 NA
ATOM      3  C   UNL     1       1.902   6.550  20.265  0.00  0.00    +0.000 A 
ATOM      4  N   UNL     1       1.832   7.791  20.899  0.00  0.00    +0.000 N 
ATOM      5  C   UNL     1       0.654   8.336  21.367  0.00  0.00    +0.000 C 
ATOM      6  O   UNL     1      -0.440   7.783  21.263  0.00  0.00    +0.000 OA
ATOM      7  C   UNL     1       1.241   5.428  20.754  0.00  0.00    +0.000 A 
ATOM      8  C   UNL     1       1.372   4.202  20.085  0.00  0.00    +0.000 A 
ATOM      9  C   UNL     1       2.187   4.157  18.946  0.00  0.00    +0.000 A 
ATOM     10  H   UNL     1       2.561   8.423  20.601  0.00  0.00    +0.000 HD
ENDROOT
BRANCH   5  11
ATOM     11  C   UNL     1       0.820   9.676  22.098  0.00  0.00    +0.000 C 
ATOM     12  C   UNL     1       0.658  10.900  21.198  0.00  0.00    +0.000 C 
ATOM     13  C   UNL     1      -0.169   9.770  23.264  0.00  0.00    +0.000 C 
ENDBRANCH   5  11
BRANCH   8  14
ATOM     14  N   UNL     1       0.891   3.043  20.722  0.00  0.00    +0.000 N 
ATOM     15  H   UNL     1       0.760   2.240  20.112  0.00  0.00    +0.000 HD
ATOM     16  H   UNL     1       1.347   2.789  21.596  0.00  0.00    +0.000 HD
ENDBRANCH   8  14
BRANCH   9  17
ATOM     17  C   UNL     1       2.391   2.939  18.217  0.00  0.00    +0.000 C 
ATOM     18  N   UNL     1       2.595   1.972  17.611  0.00  0.00    +0.000 NA
ENDBRANCH   9  17
BRANCH   1  19
ATOM     19  O   UNL     1       3.550   5.304  17.368  0.00  0.00    +0.000 OA
BRANCH  19  21
ATOM     20  C   UNL     1       5.154   6.490  16.047  0.00  0.00    +0.000 C 
ATOM     21  C   UNL     1       4.748   6.080  17.450  0.00  0.00    +0.000 C 
ENDBRANCH  19  21
ENDBRANCH   1  19
TORSDOF 5
ENDMDL
MODEL 7
REMARK VINA RESULT:      -6.0      3.379      7.346
REMARK  Name = 
REMARK  8 active torsions:
REMARK  status: ('A' for Active; 'I' for Inactive)
REMARK    1  A    between atoms: C_1  and  C_2
REMARK    2  A    between atoms: C_2  and  O_3
REMARK    3  A    between atoms: O_3  and  C_4
REMARK    4  A    between atoms: C_8  and  C_10
REMARK    5  A    between atoms: C_10  and  C_11
REMARK    6  A    between atoms: C_10  and  C_12
REMARK    7  A    between atoms: C_14  and  N_15
REMARK    8  A    between atoms: C_16  and  C_17
REMARK                            x       y       z     vdW  Elec       q    Type
REMARK                         _______ _______ _______ _____ _____    ______ ____
ROOT
ATOM      1  C   UNL     1       6.078   6.734  17.568  0.00  0.00    +0.000 A 
ATOM      2  N   UNL     1       6.721   7.876  17.226  0.00  0.00    +0.000 NA
ATOM      3  C   UNL     1       7.849   8.169  17.893  0.00  0.00    +0.000 A 
ATOM      4  N   UNL     1       8.461   9.362  17.507  0.00  0.00    +0.000 N 
ATOM      5  C   UNL     1       9.013  10.254  18.404  0.00  0.00    +0.000 C 
ATOM      6  O   UNL     1       9.008  10.084  19.623  0.00  0.00    +0.000 OA
ATOM      7  C   UNL     1       8.411   7.317  18.837  0.00  0.00    +0.000 A 
ATOM      8  C   UNL     1       7.758   6.119  19.164  0.00  0.00    +0.000 A 
ATOM      9  C   UNL     1       6.558   5.822  18.503  0.00  0.00    +0.000 A 
ATOM     10  H   UNL     1       8.094   9.728  16.640  0.00  0.00    +0.000 HD
ENDROOT
BRANCH   5  11
ATOM     11  C   UNL     1       9.702  11.464  17.756  0.00  0.00    +0.000 C 
ATOM     12  C   UNL     1       8.928  12.773  17.904  0.00  0.00    +0.000 C 
ATOM     13  C   UNL     1      11.112  11.640  18.327  0.00  0.00    +0.000 C 
ENDBRANCH   5  11
BRANCH   8  14
ATOM     14  N   UNL     1       8.453   5.172  19.937  0.00  0.00    +0.000 N 
ATOM     15  H   UNL     1       8.449   5.347  20.939  0.00  0.00    +0.000 HD
ATOM     16  H   UNL     1       8.273   4.194  19.720  0.00  0.00    +0.000 HD
ENDBRANCH   8  14
BRANCH   9  17
ATOM     17  C   UNL     1       5.838   4.609  18.763  0.00  0.00    +0.000 C 
ATOM     18  N   UNL     1       5.261   3.618  18.929  0.00  0.00    +0.000 NA
ENDBRANCH   9  17
BRANCH   1  19
ATOM     19  O   UNL     1       4.853   6.481  16.978  0.00  0.00    +0.000 OA
BRANCH  19  21
ATOM     20  C   UNL     1       2.722   6.368  18.059  0.00  0.00    +0.000 C 
ATOM     21  C   UNL     1       3.802   7.285  17.517  0.00  0.00    +0.000 C 
ENDBRANCH  19  21
ENDBRANCH   1  19
TORSDOF 5
ENDMDL
MODEL 8
REMARK VINA RESULT:      -6.0      2.551      6.226
REMARK  Name = 
REMARK  8 active torsions:
REMARK  status: ('A' for Active; 'I' for Inactive)
REMARK    1  A    between atoms: C_1  and  C_2
REMARK    2  A    between atoms: C_2  and  O_3
REMARK    3  A    between atoms: O_3  and  C_4
REMARK    4  A    between atoms: C_8  and  C_10
REMARK    5  A    between atoms: C_10  and  C_11
REMARK    6  A    between atoms: C_10  and  C_12
REMARK    7  A    between atoms: C_14  and  N_15
REMARK    8  A    between atoms: C_16  and  C_17
REMARK                            x       y       z     vdW  Elec       q    Type
REMARK                         _______ _______ _______ _____ _____    ______ ____
ROOT
ATOM      1  C   UNL     1       2.806   4.703  18.937  0.00  0.00    +0.000 A 
ATOM      2  N   UNL     1       3.254   4.944  17.682  0.00  0.00    +0.000 NA
ATOM      3  C   UNL     1       4.286   4.204  17.246  0.00  0.00    +0.000 A 
ATOM      4  N   UNL     1       4.713   4.502  15.952  0.00  0.00    +0.000 N 
ATOM      5  C   UNL     1       6.044   4.568  15.590  0.00  0.00    +0.000 C 
ATOM      6  O   UNL     1       6.972   4.378  16.375  0.00  0.00    +0.000 OA
ATOM      7  C   UNL     1       4.837   3.166  17.989  0.00  0.00    +0.000 A 
ATOM      8  C   UNL     1       4.347   2.899  19.276  0.00  0.00    +0.000 A 
ATOM      9  C   UNL     1       3.296   3.693  19.757  0.00  0.00    +0.000 A 
ATOM     10  H   UNL     1       4.056   5.079  15.446  0.00  0.00    +0.000 HD
ENDROOT
BRANCH   5  11
ATOM     11  C   UNL     1       6.284   4.836  14.097  0.00  0.00    +0.000 C 
ATOM     12  C   UNL     1       7.734   5.170  13.751  0.00  0.00    +0.000 C 
ATOM     13  C   UNL     1       5.827   3.637  13.262  0.00  0.00    +0.000 C 
ENDBRANCH   5  11
BRANCH   8  14
ATOM     14  N   UNL     1       4.753   1.711  19.910  0.00  0.00    +0.000 N 
ATOM     15  H   UNL     1       5.549   1.246  19.483  0.00  0.00    +0.000 HD
ATOM     16  H   UNL     1       4.831   1.747  20.924  0.00  0.00    +0.000 HD
ENDBRANCH   8  14
BRANCH   9  17
ATOM     17  C   UNL     1       2.723   3.474  21.053  0.00  0.00    +0.000 C 
ATOM     18  N   UNL     1       2.218   3.301  22.083  0.00  0.00    +0.000 NA
ENDBRANCH   9  17
BRANCH   1  19
ATOM     19  O   UNL     1       1.827   5.539  19.443  0.00  0.00    +0.000 OA
BRANCH  19  21
ATOM     20  C   UNL     1       1.524   7.469  20.824  0.00  0.00    +0.000 C 
ATOM     21  C   UNL     1       2.294   6.872  19.661  0.00  0.00    +0.000 C 
ENDBRANCH  19  21
ENDBRANCH   1  19
TORSDOF 5
ENDMDL
MODEL 9
REMARK VINA RESULT:      -5.9      2.027      6.471
REMARK  Name = 
REMARK  8 active torsions:
REMARK  status: ('A' for Active; 'I' for Inactive)
REMARK    1  A    between atoms: C_1  and  C_2
REMARK    2  A    between atoms: C_2  and  O_3
REMARK    3  A    between atoms: O_3  and  C_4
REMARK    4  A    between atoms: C_8  and  C_10
REMARK    5  A    between atoms: C_10  and  C_11
REMARK    6  A    between atoms: C_10  and  C_12
REMARK    7  A    between atoms: C_14  and  N_15
REMARK    8  A    between atoms: C_16  and  C_17
REMARK                            x       y       z     vdW  Elec       q    Type
REMARK                         _______ _______ _______ _____ _____    ______ ____
ROOT
ATOM      1  C   UNL     1       3.346   4.010  17.614  0.00  0.00    +0.000 A 
ATOM      2  N   UNL     1       3.903   3.722  16.413  0.00  0.00    +0.000 NA
ATOM      3  C   UNL     1       5.190   4.062  16.236  0.00  0.00    +0.000 A 
ATOM      4  N   UNL     1       5.707   3.751  14.978  0.00  0.00    +0.000 N 
ATOM      5  C   UNL     1       6.538   4.598  14.271  0.00  0.00    +0.000 C 
ATOM      6  O   UNL     1       6.889   5.704  14.681  0.00  0.00    +0.000 OA
ATOM      7  C   UNL     1       5.972   4.607  17.247  0.00  0.00    +0.000 A 
ATOM      8  C   UNL     1       5.399   4.873  18.500  0.00  0.00    +0.000 A 
ATOM      9  C   UNL     1       4.046   4.559  18.684  0.00  0.00    +0.000 A 
ATOM     10  H   UNL     1       5.113   3.125  14.454  0.00  0.00    +0.000 HD
ENDROOT
BRANCH   5  11
ATOM     11  C   UNL     1       7.050   4.023  12.943  0.00  0.00    +0.000 C 
ATOM     12  C   UNL     1       6.001   3.235  12.161  0.00  0.00    +0.000 C 
ATOM     13  C   UNL     1       7.605   5.144  12.059  0.00  0.00    +0.000 C 
ENDBRANCH   5  11
BRANCH   8  14
ATOM     14  N   UNL     1       6.254   5.201  19.567  0.00  0.00    +0.000 N 
ATOM     15  H   UNL     1       6.186   4.590  20.377  0.00  0.00    +0.000 HD
ATOM     16  H   UNL     1       7.222   5.402  19.322  0.00  0.00    +0.000 HD
ENDBRANCH   8  14
BRANCH   9  17
ATOM     17  C   UNL     1       3.387   4.780  19.938  0.00  0.00    +0.000 C 
ATOM     18  N   UNL     1       2.819   4.977  20.930  0.00  0.00    +0.000 NA
ENDBRANCH   9  17
BRANCH   1  19
ATOM     19  O   UNL     1       1.992   3.778  17.769  0.00  0.00    +0.000 OA
BRANCH  19  21
ATOM     20  C   UNL     1       0.657   2.482  19.273  0.00  0.00    +0.000 C 
ATOM     21  C   UNL     1       1.701   2.438  18.173  0.00  0.00    +0.000 C 
ENDBRANCH  19  21
ENDBRANCH   1  19
TORSDOF 5
ENDMDL
