MODEL 1
REMARK VINA RESULT:      -7.3      0.000      0.000
REMARK  Name = 
REMARK  14 active torsions:
REMARK  status: ('A' for Active; 'I' for Inactive)
REMARK    1  A    between atoms: C_1  and  C_2
REMARK    2  A    between atoms: C_2  and  C_3
REMARK    3  A    between atoms: C_3  and  C_4
REMARK    4  A    between atoms: C_4  and  C_5
REMARK    5  A    between atoms: C_5  and  C_6
REMARK    6  A    between atoms: C_6  and  C_7
REMARK    7  A    between atoms: C_7  and  C_8
REMARK    8  A    between atoms: C_8  and  C_9
REMARK    9  A    between atoms: C_9  and  C_10
REMARK   10  A    between atoms: C_10  and  C_11
REMARK   11  A    between atoms: N_13  and  C_14
REMARK   12  A    between atoms: C_18  and  C_19
REMARK   13  A    between atoms: C_21  and  C_22
REMARK   14  A    between atoms: C_23  and  O_24
REMARK                            x       y       z     vdW  Elec       q    Type
REMARK                         _______ _______ _______ _____ _____    ______ ____
ROOT
ATOM      1  C   UNL     1       5.566   4.137  16.020  0.00  0.00    +0.000 C 
ATOM      2  O   UNL     1       4.912   4.160  14.982  0.00  0.00    +0.000 OA
ATOM      3  N   UNL     1       5.053   3.726  17.222  0.00  0.00    +0.000 N 
ATOM      4  H   UNL     1       5.563   3.907  18.074  0.00  0.00    +0.000 HD
ENDROOT
BRANCH   3   5
ATOM      5  C   UNL     1       3.653   3.399  17.317  0.00  0.00    +0.000 C 
ATOM      6  C   UNL     1       3.442   1.912  17.642  0.00  0.00    +0.000 C 
ATOM      7  C   UNL     1       2.705   1.804  18.984  0.00  0.00    +0.000 C 
ATOM      8  C   UNL     1       2.472   3.225  19.394  0.00  0.00    +0.000 A 
ATOM      9  C   UNL     1       1.824   3.701  20.527  0.00  0.00    +0.000 A 
ATOM     10  C   UNL     1       1.228   2.792  21.559  0.00  0.00    +0.000 C 
ATOM     11  C   UNL     1       1.732   5.096  20.694  0.00  0.00    +0.000 A 
ATOM     12  C   UNL     1       2.274   5.999  19.755  0.00  0.00    +0.000 A 
ATOM     13  C   UNL     1       2.146   7.477  19.989  0.00  0.00    +0.000 C 
ATOM     14  C   UNL     1       2.918   5.487  18.630  0.00  0.00    +0.000 A 
ATOM     15  C   UNL     1       3.012   4.113  18.462  0.00  0.00    +0.000 A 
BRANCH  14  16
ATOM     16  O   UNL     1       3.484   6.280  17.676  0.00  0.00    +0.000 OA
ATOM     17  H   UNL     1       3.422   7.210  17.944  0.00  0.00    +0.000 HD
ENDBRANCH  14  16
ENDBRANCH   3   5
BRANCH   1  18
ATOM     18  C   UNL     1       7.021   4.540  16.099  0.00  0.00    +0.000 C 
BRANCH  18  19
ATOM     19  C   UNL     1       7.136   5.887  16.795  0.00  0.00    +0.000 C 
BRANCH  19  20
ATOM     20  C   UNL     1       7.620   5.757  18.229  0.00  0.00    +0.000 C 
BRANCH  20  21
ATOM     21  C   UNL     1       8.107   7.116  18.717  0.00  0.00    +0.000 C 
BRANCH  21  22
ATOM     22  C   UNL     1       8.243   8.092  17.558  0.00  0.00    +0.000 C 
BRANCH  22  23
ATOM     23  C   UNL     1       7.801   9.488  17.983  0.00  0.00    +0.000 C 
BRANCH  23  24
ATOM     24  C   UNL     1       8.975  10.457  17.932  0.00  0.00    +0.000 C 
BRANCH  24  25
ATOM     25  C   UNL     1       9.622  10.597  19.306  0.00  0.00    +0.000 C 
BRANCH  25  27
ATOM     26  C   UNL     1      11.449  12.095  20.153  0.00  0.00    +0.000 C 
ATOM     27  C   UNL     1      10.052  12.039  19.560  0.00  0.00    +0.000 C 
ENDBRANCH  25  27
ENDBRANCH  24  25
ENDBRANCH  23  24
ENDBRANCH  22  23
ENDBRANCH  21  22
ENDBRANCH  20  21
ENDBRANCH  19  20
ENDBRANCH  18  19
ENDBRANCH   1  18
TORSDOF 11
ENDMDL
MODEL 2
REMARK VINA RESULT:      -7.2      1.106      1.499
REMARK  Name = 
REMARK  14 active torsions:
REMARK  status: ('A' for Active; 'I' for Inactive)
REMARK    1  A    between atoms: C_1  and  C_2
REMARK    2  A    between atoms: C_2  and  C_3
REMARK    3  A    between atoms: C_3  and  C_4
REMARK    4  A    between atoms: C_4  and  C_5
REMARK    5  A    between atoms: C_5  and  C_6
REMARK    6  A    between atoms: C_6  and  C_7
REMARK    7  A    between atoms: C_7  and  C_8
REMARK    8  A    between atoms: C_8  and  C_9
REMARK    9  A    between atoms: C_9  and  C_10
REMARK   10  A    between atoms: C_10  and  C_11
REMARK   11  A    between atoms: N_13  and  C_14
REMARK   12  A    between atoms: C_18  and  C_19
REMARK   13  A    between atoms: C_21  and  C_22
REMARK   14  A    between atoms: C_23  and  O_24
REMARK                            x       y       z     vdW  Elec       q    Type
REMARK                         _______ _______ _______ _____ _____    ______ ____
ROOT
ATOM      1  C   UNL     1       5.950   4.847  16.802  0.00  0.00    +0.000 C 
ATOM      2  O   UNL     1       5.318   5.152  15.796  0.00  0.00    +0.000 OA
ATOM      3  N   UNL     1       5.449   4.038  17.787  0.00  0.00    +0.000 N 
ATOM      4  H   UNL     1       5.924   3.975  18.676  0.00  0.00    +0.000 HD
ENDROOT
BRANCH   3   5
ATOM      5  C   UNL     1       4.080   3.596  17.710  0.00  0.00    +0.000 C 
ATOM      6  C   UNL     1       3.955   2.096  18.023  0.00  0.00    +0.000 C 
ATOM      7  C   UNL     1       3.065   1.929  19.263  0.00  0.00    +0.000 C 
ATOM      8  C   UNL     1       2.665   3.325  19.623  0.00  0.00    +0.000 A 
ATOM      9  C   UNL     1       1.841   3.747  20.659  0.00  0.00    +0.000 A 
ATOM     10  C   UNL     1       1.197   2.792  21.619  0.00  0.00    +0.000 C 
ATOM     11  C   UNL     1       1.614   5.130  20.797  0.00  0.00    +0.000 A 
ATOM     12  C   UNL     1       2.193   6.074  19.923  0.00  0.00    +0.000 A 
ATOM     13  C   UNL     1       1.915   7.536  20.121  0.00  0.00    +0.000 C 
ATOM     14  C   UNL     1       3.014   5.615  18.894  0.00  0.00    +0.000 A 
ATOM     15  C   UNL     1       3.243   4.254  18.756  0.00  0.00    +0.000 A 
BRANCH  14  16
ATOM     16  O   UNL     1       3.629   6.453  18.009  0.00  0.00    +0.000 OA
ATOM     17  H   UNL     1       4.326   5.973  17.535  0.00  0.00    +0.000 HD
ENDBRANCH  14  16
ENDBRANCH   3   5
BRANCH   1  18
ATOM     18  C   UNL     1       7.364   5.311  17.072  0.00  0.00    +0.000 C 
BRANCH  18  19
ATOM     19  C   UNL     1       7.338   6.462  18.064  0.00  0.00    +0.000 C 
BRANCH  19  20
ATOM     20  C   UNL     1       7.626   7.800  17.404  0.00  0.00    +0.000 C 
BRANCH  20  21
ATOM     21  C   UNL     1       8.420   8.673  18.369  0.00  0.00    +0.000 C 
BRANCH  21  22
ATOM     22  C   UNL     1       8.435  10.121  17.905  0.00  0.00    +0.000 C 
BRANCH  22  23
ATOM     23  C   UNL     1       9.818  10.729  18.102  0.00  0.00    +0.000 C 
BRANCH  23  24
ATOM     24  C   UNL     1       9.763  12.243  17.943  0.00  0.00    +0.000 C 
BRANCH  24  25
ATOM     25  C   UNL     1      10.698  12.927  18.935  0.00  0.00    +0.000 C 
BRANCH  25  27
ATOM     26  C   UNL     1      12.104  13.415  16.915  0.00  0.00    +0.000 C 
ATOM     27  C   UNL     1      12.116  13.008  18.377  0.00  0.00    +0.000 C 
ENDBRANCH  25  27
ENDBRANCH  24  25
ENDBRANCH  23  24
ENDBRANCH  22  23
ENDBRANCH  21  22
ENDBRANCH  20  21
ENDBRANCH  19  20
ENDBRANCH  18  19
ENDBRANCH   1  18
TORSDOF 11
ENDMDL
MODEL 3
REMARK VINA RESULT:      -7.1      1.535      2.506
REMARK  Name = 
REMARK  14 active torsions:
REMARK  status: ('A' for Active; 'I' for Inactive)
REMARK    1  A    between atoms: C_1  and  C_2
REMARK    2  A    between atoms: C_2  and  C_3
REMARK    3  A    between atoms: C_3  and  C_4
REMARK    4  A    between atoms: C_4  and  C_5
REMARK    5  A    between atoms: C_5  and  C_6
REMARK    6  A    between atoms: C_6  and  C_7
REMARK    7  A    between atoms: C_7  and  C_8
REMARK    8  A    between atoms: C_8  and  C_9
REMARK    9  A    between atoms: C_9  and  C_10
REMARK   10  A    between atoms: C_10  and  C_11
REMARK   11  A    between atoms: N_13  and  C_14
REMARK   12  A    between atoms: C_18  and  C_19
REMARK   13  A    between atoms: C_21  and  C_22
REMARK   14  A    between atoms: C_23  and  O_24
REMARK                            x       y       z     vdW  Elec       q    Type
REMARK                         _______ _______ _______ _____ _____    ______ ____
ROOT
ATOM      1  C   UNL     1       6.386   6.486  17.070  0.00  0.00    +0.000 C 
ATOM      2  O   UNL     1       6.010   6.817  15.950  0.00  0.00    +0.000 OA
ATOM      3  N   UNL     1       5.715   5.582  17.851  0.00  0.00    +0.000 N 
ATOM      4  H   UNL     1       5.951   5.489  18.828  0.00  0.00    +0.000 HD
ENDROOT
BRANCH   3   5
ATOM      5  C   UNL     1       4.451   5.060  17.399  0.00  0.00    +0.000 C 
ATOM      6  C   UNL     1       4.540   3.557  17.090  0.00  0.00    +0.000 C 
ATOM      7  C   UNL     1       3.572   2.809  18.018  0.00  0.00    +0.000 C 
ATOM      8  C   UNL     1       2.917   3.890  18.819  0.00  0.00    +0.000 A 
ATOM      9  C   UNL     1       1.938   3.767  19.798  0.00  0.00    +0.000 A 
ATOM     10  C   UNL     1       1.367   2.442  20.206  0.00  0.00    +0.000 C 
ATOM     11  C   UNL     1       1.477   4.943  20.418  0.00  0.00    +0.000 A 
ATOM     12  C   UNL     1       1.978   6.217  20.073  0.00  0.00    +0.000 A 
ATOM     13  C   UNL     1       1.448   7.436  20.771  0.00  0.00    +0.000 C 
ATOM     14  C   UNL     1       2.960   6.303  19.088  0.00  0.00    +0.000 A 
ATOM     15  C   UNL     1       3.419   5.146  18.475  0.00  0.00    +0.000 A 
BRANCH  14  16
ATOM     16  O   UNL     1       3.514   7.487  18.697  0.00  0.00    +0.000 OA
ATOM     17  H   UNL     1       2.875   8.205  18.826  0.00  0.00    +0.000 HD
ENDBRANCH  14  16
ENDBRANCH   3   5
BRANCH   1  18
ATOM     18  C   UNL     1       7.643   7.018  17.720  0.00  0.00    +0.000 C 
BRANCH  18  19
ATOM     19  C   UNL     1       7.685   8.531  17.574  0.00  0.00    +0.000 C 
BRANCH  19  20
ATOM     20  C   UNL     1       8.697   9.173  18.508  0.00  0.00    +0.000 C 
BRANCH  20  21
ATOM     21  C   UNL     1       8.740  10.673  18.243  0.00  0.00    +0.000 C 
BRANCH  21  22
ATOM     22  C   UNL     1      10.157  11.128  17.925  0.00  0.00    +0.000 C 
BRANCH  22  23
ATOM     23  C   UNL     1      10.568  12.271  18.845  0.00  0.00    +0.000 C 
BRANCH  23  24
ATOM     24  C   UNL     1      10.822  11.756  20.256  0.00  0.00    +0.000 C 
BRANCH  24  25
ATOM     25  C   UNL     1       9.970  12.511  21.270  0.00  0.00    +0.000 C 
BRANCH  25  27
ATOM     26  C   UNL     1       8.073  12.336  22.904  0.00  0.00    +0.000 C 
ATOM     27  C   UNL     1       8.880  11.610  21.843  0.00  0.00    +0.000 C 
ENDBRANCH  25  27
ENDBRANCH  24  25
ENDBRANCH  23  24
ENDBRANCH  22  23
ENDBRANCH  21  22
ENDBRANCH  20  21
ENDBRANCH  19  20
ENDBRANCH  18  19
ENDBRANCH   1  18
TORSDOF 11
ENDMDL
MODEL 4
REMARK VINA RESULT:      -7.0      0.881      1.078
REMARK  Name = 
REMARK  14 active torsions:
REMARK  status: ('A' for Active; 'I' for Inactive)
REMARK    1  A    between atoms: C_1  and  C_2
REMARK    2  A    between atoms: C_2  and  C_3
REMARK    3  A    between atoms: C_3  and  C_4
REMARK    4  A    between atoms: C_4  and  C_5
REMARK    5  A    between atoms: C_5  and  C_6
REMARK    6  A    between atoms: C_6  and  C_7
REMARK    7  A    between atoms: C_7  and  C_8
REMARK    8  A    between atoms: C_8  and  C_9
REMARK    9  A    between atoms: C_9  and  C_10
REMARK   10  A    between atoms: C_10  and  C_11
REMARK   11  A    between atoms: N_13  and  C_14
REMARK   12  A    between atoms: C_18  and  C_19
REMARK   13  A    between atoms: C_21  and  C_22
REMARK   14  A    between atoms: C_23  and  O_24
REMARK                            x       y       z     vdW  Elec       q    Type
REMARK                         _______ _______ _______ _____ _____    ______ ____
ROOT
ATOM      1  C   UNL     1       5.881   4.092  16.332  0.00  0.00    +0.000 C 
ATOM      2  O   UNL     1       5.331   3.994  15.240  0.00  0.00    +0.000 OA
ATOM      3  N   UNL     1       5.265   3.778  17.514  0.00  0.00    +0.000 N 
ATOM      4  H   UNL     1       5.685   4.057  18.390  0.00  0.00    +0.000 HD
ENDROOT
BRANCH   3   5
ATOM      5  C   UNL     1       3.871   3.414  17.509  0.00  0.00    +0.000 C 
ATOM      6  C   UNL     1       3.678   1.924  17.833  0.00  0.00    +0.000 C 
ATOM      7  C   UNL     1       2.846   1.807  19.118  0.00  0.00    +0.000 C 
ATOM      8  C   UNL     1       2.544   3.224  19.494  0.00  0.00    +0.000 A 
ATOM      9  C   UNL     1       1.800   3.692  20.571  0.00  0.00    +0.000 A 
ATOM     10  C   UNL     1       1.154   2.775  21.565  0.00  0.00    +0.000 C 
ATOM     11  C   UNL     1       1.659   5.085  20.716  0.00  0.00    +0.000 A 
ATOM     12  C   UNL     1       2.244   5.995  19.810  0.00  0.00    +0.000 A 
ATOM     13  C   UNL     1       2.059   7.471  20.018  0.00  0.00    +0.000 C 
ATOM     14  C   UNL     1       2.984   5.491  18.742  0.00  0.00    +0.000 A 
ATOM     15  C   UNL     1       3.127   4.119  18.596  0.00  0.00    +0.000 A 
BRANCH  14  16
ATOM     16  O   UNL     1       3.597   6.292  17.823  0.00  0.00    +0.000 OA
ATOM     17  H   UNL     1       3.395   5.978  16.929  0.00  0.00    +0.000 HD
ENDBRANCH  14  16
ENDBRANCH   3   5
BRANCH   1  18
ATOM     18  C   UNL     1       7.311   4.551  16.508  0.00  0.00    +0.000 C 
BRANCH  18  19
ATOM     19  C   UNL     1       7.368   6.068  16.432  0.00  0.00    +0.000 C 
BRANCH  19  20
ATOM     20  C   UNL     1       7.750   6.700  17.760  0.00  0.00    +0.000 C 
BRANCH  20  21
ATOM     21  C   UNL     1       7.128   8.088  17.851  0.00  0.00    +0.000 C 
BRANCH  21  22
ATOM     22  C   UNL     1       8.158   9.165  17.550  0.00  0.00    +0.000 C 
BRANCH  22  23
ATOM     23  C   UNL     1       8.819   9.645  18.836  0.00  0.00    +0.000 C 
BRANCH  23  24
ATOM     24  C   UNL     1       9.754  10.814  18.552  0.00  0.00    +0.000 C 
BRANCH  24  25
ATOM     25  C   UNL     1       9.001  11.960  17.886  0.00  0.00    +0.000 C 
BRANCH  25  27
ATOM     26  C   UNL     1       9.421  14.288  18.725  0.00  0.00    +0.000 C 
ATOM     27  C   UNL     1       9.886  13.199  17.775  0.00  0.00    +0.000 C 
ENDBRANCH  25  27
ENDBRANCH  24  25
ENDBRANCH  23  24
ENDBRANCH  22  23
ENDBRANCH  21  22
ENDBRANCH  20  21
ENDBRANCH  19  20
ENDBRANCH  18  19
ENDBRANCH   1  18
TORSDOF 11
ENDMDL
MODEL 5
REMARK VINA RESULT:      -7.0      1.311      1.835
REMARK  Name = 
REMARK  14 active torsions:
REMARK  status: ('A' for Active; 'I' for Inactive)
REMARK    1  A    between atoms: C_1  and  C_2
REMARK    2  A    between atoms: C_2  and  C_3
REMARK    3  A    between atoms: C_3  and  C_4
REMARK    4  A    between atoms: C_4  and  C_5
REMARK    5  A    between atoms: C_5  and  C_6
REMARK    6  A    between atoms: C_6  and  C_7
REMARK    7  A    between atoms: C_7  and  C_8
REMARK    8  A    between atoms: C_8  and  C_9
REMARK    9  A    between atoms: C_9  and  C_10
REMARK   10  A    between atoms: C_10  and  C_11
REMARK   11  A    between atoms: N_13  and  C_14
REMARK   12  A    between atoms: C_18  and  C_19
REMARK   13  A    between atoms: C_21  and  C_22
REMARK   14  A    between atoms: C_23  and  O_24
REMARK                            x       y       z     vdW  Elec       q    Type
REMARK                         _______ _______ _______ _____ _____    ______ ____
ROOT
ATOM      1  C   UNL     1       5.903   5.712  16.320  0.00  0.00    +0.000 C 
ATOM      2  O   UNL     1       5.395   5.699  15.203  0.00  0.00    +0.000 OA
ATOM      3  N   UNL     1       5.297   5.180  17.427  0.00  0.00    +0.000 N 
ATOM      4  H   UNL     1       5.661   5.385  18.346  0.00  0.00    +0.000 HD
ENDROOT
BRANCH   3   5
ATOM      5  C   UNL     1       3.955   4.669  17.320  0.00  0.00    +0.000 C 
ATOM      6  C   UNL     1       3.933   3.132  17.352  0.00  0.00    +0.000 C 
ATOM      7  C   UNL     1       3.118   2.680  18.573  0.00  0.00    +0.000 C 
ATOM      8  C   UNL     1       2.655   3.957  19.202  0.00  0.00    +0.000 A 
ATOM      9  C   UNL     1       1.860   4.125  20.330  0.00  0.00    +0.000 A 
ATOM     10  C   UNL     1       1.322   2.969  21.118  0.00  0.00    +0.000 C 
ATOM     11  C   UNL     1       1.560   5.440  20.732  0.00  0.00    +0.000 A 
ATOM     12  C   UNL     1       2.038   6.566  20.028  0.00  0.00    +0.000 A 
ATOM     13  C   UNL     1       1.685   7.945  20.506  0.00  0.00    +0.000 C 
ATOM     14  C   UNL     1       2.833   6.360  18.901  0.00  0.00    +0.000 A 
ATOM     15  C   UNL     1       3.133   5.066  18.502  0.00  0.00    +0.000 A 
BRANCH  14  16
ATOM     16  O   UNL     1       3.352   7.385  18.165  0.00  0.00    +0.000 OA
ATOM     17  H   UNL     1       3.697   8.071  18.757  0.00  0.00    +0.000 HD
ENDBRANCH  14  16
ENDBRANCH   3   5
BRANCH   1  18
ATOM     18  C   UNL     1       7.266   6.297  16.609  0.00  0.00    +0.000 C 
BRANCH  18  19
ATOM     19  C   UNL     1       7.185   7.184  17.841  0.00  0.00    +0.000 C 
BRANCH  19  20
ATOM     20  C   UNL     1       7.829   8.542  17.620  0.00  0.00    +0.000 C 
BRANCH  20  21
ATOM     21  C   UNL     1       8.829   8.809  18.739  0.00  0.00    +0.000 C 
BRANCH  21  22
ATOM     22  C   UNL     1       8.967  10.302  18.998  0.00  0.00    +0.000 C 
BRANCH  22  23
ATOM     23  C   UNL     1       9.718  10.974  17.855  0.00  0.00    +0.000 C 
BRANCH  23  24
ATOM     24  C   UNL     1      11.061  11.507  18.340  0.00  0.00    +0.000 C 
BRANCH  24  25
ATOM     25  C   UNL     1      11.322  12.902  17.784  0.00  0.00    +0.000 C 
BRANCH  25  27
ATOM     26  C   UNL     1       9.664  14.746  18.170  0.00  0.00    +0.000 C 
ATOM     27  C   UNL     1      10.834  13.974  18.754  0.00  0.00    +0.000 C 
ENDBRANCH  25  27
ENDBRANCH  24  25
ENDBRANCH  23  24
ENDBRANCH  22  23
ENDBRANCH  21  22
ENDBRANCH  20  21
ENDBRANCH  19  20
ENDBRANCH  18  19
ENDBRANCH   1  18
TORSDOF 11
ENDMDL
MODEL 6
REMARK VINA RESULT:      -7.0      1.346      1.912
REMARK  Name = 
REMARK  14 active torsions:
REMARK  status: ('A' for Active; 'I' for Inactive)
REMARK    1  A    between atoms: C_1  and  C_2
REMARK    2  A    between atoms: C_2  and  C_3
REMARK    3  A    between atoms: C_3  and  C_4
REMARK    4  A    between atoms: C_4  and  C_5
REMARK    5  A    between atoms: C_5  and  C_6
REMARK    6  A    between atoms: C_6  and  C_7
REMARK    7  A    between atoms: C_7  and  C_8
REMARK    8  A    between atoms: C_8  and  C_9
REMARK    9  A    between atoms: C_9  and  C_10
REMARK   10  A    between atoms: C_10  and  C_11
REMARK   11  A    between atoms: N_13  and  C_14
REMARK   12  A    between atoms: C_18  and  C_19
REMARK   13  A    between atoms: C_21  and  C_22
REMARK   14  A    between atoms: C_23  and  O_24
REMARK                            x       y       z     vdW  Elec       q    Type
REMARK                         _______ _______ _______ _____ _____    ______ ____
ROOT
ATOM      1  C   UNL     1       5.746   6.541  16.370  0.00  0.00    +0.000 C 
ATOM      2  O   UNL     1       5.245   6.560  15.250  0.00  0.00    +0.000 OA
ATOM      3  N   UNL     1       5.192   5.874  17.430  0.00  0.00    +0.000 N 
ATOM      4  H   UNL     1       5.531   6.046  18.365  0.00  0.00    +0.000 HD
ENDROOT
BRANCH   3   5
ATOM      5  C   UNL     1       3.905   5.245  17.274  0.00  0.00    +0.000 C 
ATOM      6  C   UNL     1       4.038   3.723  17.103  0.00  0.00    +0.000 C 
ATOM      7  C   UNL     1       3.305   3.035  18.263  0.00  0.00    +0.000 C 
ATOM      8  C   UNL     1       2.733   4.165  19.061  0.00  0.00    +0.000 A 
ATOM      9  C   UNL     1       1.955   4.101  20.211  0.00  0.00    +0.000 A 
ATOM     10  C   UNL     1       1.557   2.803  20.846  0.00  0.00    +0.000 C 
ATOM     11  C   UNL     1       1.534   5.315  20.787  0.00  0.00    +0.000 A 
ATOM     12  C   UNL     1       1.878   6.566  20.232  0.00  0.00    +0.000 A 
ATOM     13  C   UNL     1       1.400   7.827  20.892  0.00  0.00    +0.000 C 
ATOM     14  C   UNL     1       2.660   6.592  19.078  0.00  0.00    +0.000 A 
ATOM     15  C   UNL     1       3.078   5.398  18.508  0.00  0.00    +0.000 A 
BRANCH  14  16
ATOM     16  O   UNL     1       3.054   7.752  18.478  0.00  0.00    +0.000 OA
ATOM     17  H   UNL     1       4.022   7.800  18.463  0.00  0.00    +0.000 HD
ENDBRANCH  14  16
ENDBRANCH   3   5
BRANCH   1  18
ATOM     18  C   UNL     1       7.046   7.232  16.714  0.00  0.00    +0.000 C 
BRANCH  18  19
ATOM     19  C   UNL     1       7.670   6.562  17.927  0.00  0.00    +0.000 C 
BRANCH  19  20
ATOM     20  C   UNL     1       8.399   7.550  18.821  0.00  0.00    +0.000 C 
BRANCH  20  21
ATOM     21  C   UNL     1       8.325   8.938  18.197  0.00  0.00    +0.000 C 
BRANCH  21  22
ATOM     22  C   UNL     1       9.108   9.948  19.023  0.00  0.00    +0.000 C 
BRANCH  22  23
ATOM     23  C   UNL     1       9.769  10.979  18.116  0.00  0.00    +0.000 C 
BRANCH  23  24
ATOM     24  C   UNL     1      10.054  12.262  18.887  0.00  0.00    +0.000 C 
BRANCH  24  25
ATOM     25  C   UNL     1      10.105  11.993  20.388  0.00  0.00    +0.000 C 
BRANCH  25  27
ATOM     26  C   UNL     1       8.939  13.357  22.141  0.00  0.00    +0.000 C 
ATOM     27  C   UNL     1      10.108  13.300  21.175  0.00  0.00    +0.000 C 
ENDBRANCH  25  27
ENDBRANCH  24  25
ENDBRANCH  23  24
ENDBRANCH  22  23
ENDBRANCH  21  22
ENDBRANCH  20  21
ENDBRANCH  19  20
ENDBRANCH  18  19
ENDBRANCH   1  18
TORSDOF 11
ENDMDL
MODEL 7
REMARK VINA RESULT:      -6.9      2.794      6.155
REMARK  Name = 
REMARK  14 active torsions:
REMARK  status: ('A' for Active; 'I' for Inactive)
REMARK    1  A    between atoms: C_1  and  C_2
REMARK    2  A    between atoms: C_2  and  C_3
REMARK    3  A    between atoms: C_3  and  C_4
REMARK    4  A    between atoms: C_4  and  C_5
REMARK    5  A    between atoms: C_5  and  C_6
REMARK    6  A    between atoms: C_6  and  C_7
REMARK    7  A    between atoms: C_7  and  C_8
REMARK    8  A    between atoms: C_8  and  C_9
REMARK    9  A    between atoms: C_9  and  C_10
REMARK   10  A    between atoms: C_10  and  C_11
REMARK   11  A    between atoms: N_13  and  C_14
REMARK   12  A    between atoms: C_18  and  C_19
REMARK   13  A    between atoms: C_21  and  C_22
REMARK   14  A    between atoms: C_23  and  O_24
REMARK                            x       y       z     vdW  Elec       q    Type
REMARK                         _______ _______ _______ _____ _____    ______ ____
ROOT
ATOM      1  C   UNL     1       2.940   5.508  19.773  0.00  0.00    +0.000 C 
ATOM      2  O   UNL     1       4.139   5.764  19.736  0.00  0.00    +0.000 OA
ATOM      3  N   UNL     1       1.966   6.439  19.530  0.00  0.00    +0.000 N 
ATOM      4  H   UNL     1       1.004   6.234  19.761  0.00  0.00    +0.000 HD
ENDROOT
BRANCH   3   5
ATOM      5  C   UNL     1       2.339   7.815  19.320  0.00  0.00    +0.000 C 
ATOM      6  C   UNL     1       2.302   8.188  17.829  0.00  0.00    +0.000 C 
ATOM      7  C   UNL     1       1.270   9.307  17.631  0.00  0.00    +0.000 C 
ATOM      8  C   UNL     1       0.757   9.585  19.010  0.00  0.00    +0.000 A 
ATOM      9  C   UNL     1      -0.185  10.528  19.406  0.00  0.00    +0.000 A 
ATOM     10  C   UNL     1      -0.855  11.456  18.438  0.00  0.00    +0.000 C 
ATOM     11  C   UNL     1      -0.508  10.598  20.774  0.00  0.00    +0.000 A 
ATOM     12  C   UNL     1       0.091   9.749  21.729  0.00  0.00    +0.000 A 
ATOM     13  C   UNL     1      -0.296   9.871  23.175  0.00  0.00    +0.000 C 
ATOM     14  C   UNL     1       1.031   8.816  21.296  0.00  0.00    +0.000 A 
ATOM     15  C   UNL     1       1.352   8.742  19.949  0.00  0.00    +0.000 A 
BRANCH  14  16
ATOM     16  O   UNL     1       1.653   7.945  22.143  0.00  0.00    +0.000 OA
ATOM     17  H   UNL     1       1.895   7.139  21.662  0.00  0.00    +0.000 HD
ENDBRANCH  14  16
ENDBRANCH   3   5
BRANCH   1  18
ATOM     18  C   UNL     1       2.389   4.133  20.073  0.00  0.00    +0.000 C 
BRANCH  18  19
ATOM     19  C   UNL     1       1.626   3.619  18.863  0.00  0.00    +0.000 C 
BRANCH  19  20
ATOM     20  C   UNL     1       2.417   2.586  18.077  0.00  0.00    +0.000 C 
BRANCH  20  21
ATOM     21  C   UNL     1       3.023   3.251  16.847  0.00  0.00    +0.000 C 
BRANCH  21  22
ATOM     22  C   UNL     1       4.496   3.560  17.067  0.00  0.00    +0.000 C 
BRANCH  22  23
ATOM     23  C   UNL     1       5.094   4.215  15.828  0.00  0.00    +0.000 C 
BRANCH  23  24
ATOM     24  C   UNL     1       6.099   5.289  16.224  0.00  0.00    +0.000 C 
BRANCH  24  25
ATOM     25  C   UNL     1       7.192   4.706  17.113  0.00  0.00    +0.000 C 
BRANCH  25  27
ATOM     26  C   UNL     1       7.480   7.117  17.748  0.00  0.00    +0.000 C 
ATOM     27  C   UNL     1       7.561   5.679  18.229  0.00  0.00    +0.000 C 
ENDBRANCH  25  27
ENDBRANCH  24  25
ENDBRANCH  23  24
ENDBRANCH  22  23
ENDBRANCH  21  22
ENDBRANCH  20  21
ENDBRANCH  19  20
ENDBRANCH  18  19
ENDBRANCH   1  18
TORSDOF 11
ENDMDL
MODEL 8
REMARK VINA RESULT:      -6.9      4.217      6.953
REMARK  Name = 
REMARK  14 active torsions:
REMARK  status: ('A' for Active; 'I' for Inactive)
REMARK    1  A    between atoms: C_1  and  C_2
REMARK    2  A    between atoms: C_2  and  C_3
REMARK    3  A    between atoms: C_3  and  C_4
REMARK    4  A    between atoms: C_4  and  C_5
REMARK    5  A    between atoms: C_5  and  C_6
REMARK    6  A    between atoms: C_6  and  C_7
REMARK    7  A    between atoms: C_7  and  C_8
REMARK    8  A    between atoms: C_8  and  C_9
REMARK    9  A    between atoms: C_9  and  C_10
REMARK   10  A    between atoms: C_10  and  C_11
REMARK   11  A    between atoms: N_13  and  C_14
REMARK   12  A    between atoms: C_18  and  C_19
REMARK   13  A    between atoms: C_21  and  C_22
REMARK   14  A    between atoms: C_23  and  O_24
REMARK                            x       y       z     vdW  Elec       q    Type
REMARK                         _______ _______ _______ _____ _____    ______ ____
ROOT
ATOM      1  C   UNL     1       2.705   5.632  20.061  0.00  0.00    +0.000 C 
ATOM      2  O   UNL     1       3.886   5.815  19.787  0.00  0.00    +0.000 OA
ATOM      3  N   UNL     1       1.747   6.604  19.944  0.00  0.00    +0.000 N 
ATOM      4  H   UNL     1       0.838   6.467  20.361  0.00  0.00    +0.000 HD
ENDROOT
BRANCH   3   5
ATOM      5  C   UNL     1       2.139   7.942  19.583  0.00  0.00    +0.000 C 
ATOM      6  C   UNL     1       2.143   8.136  18.058  0.00  0.00    +0.000 C 
ATOM      7  C   UNL     1       1.127   9.232  17.704  0.00  0.00    +0.000 C 
ATOM      8  C   UNL     1       0.583   9.675  19.026  0.00  0.00    +0.000 A 
ATOM      9  C   UNL     1      -0.359  10.664  19.284  0.00  0.00    +0.000 A 
ATOM     10  C   UNL     1      -0.995  11.476  18.197  0.00  0.00    +0.000 C 
ATOM     11  C   UNL     1      -0.715  10.897  20.626  0.00  0.00    +0.000 A 
ATOM     12  C   UNL     1      -0.148  10.163  21.689  0.00  0.00    +0.000 A 
ATOM     13  C   UNL     1      -0.569  10.457  23.100  0.00  0.00    +0.000 C 
ATOM     14  C   UNL     1       0.793   9.179  21.394  0.00  0.00    +0.000 A 
ATOM     15  C   UNL     1       1.146   8.944  20.073  0.00  0.00    +0.000 A 
BRANCH  14  16
ATOM     16  O   UNL     1       1.385   8.410  22.353  0.00  0.00    +0.000 OA
ATOM     17  H   UNL     1       1.377   8.880  23.200  0.00  0.00    +0.000 HD
ENDBRANCH  14  16
ENDBRANCH   3   5
BRANCH   1  18
ATOM     18  C   UNL     1       2.155   4.308  20.543  0.00  0.00    +0.000 C 
BRANCH  18  19
ATOM     19  C   UNL     1       1.089   3.821  19.575  0.00  0.00    +0.000 C 
BRANCH  19  20
ATOM     20  C   UNL     1       1.600   3.736  18.147  0.00  0.00    +0.000 C 
BRANCH  20  21
ATOM     21  C   UNL     1       2.502   2.515  18.011  0.00  0.00    +0.000 C 
BRANCH  21  22
ATOM     22  C   UNL     1       3.930   2.928  17.687  0.00  0.00    +0.000 C 
BRANCH  22  23
ATOM     23  C   UNL     1       3.960   3.809  16.444  0.00  0.00    +0.000 C 
BRANCH  23  24
ATOM     24  C   UNL     1       4.889   4.998  16.654  0.00  0.00    +0.000 C 
BRANCH  24  25
ATOM     25  C   UNL     1       5.690   5.290  15.390  0.00  0.00    +0.000 C 
BRANCH  25  27
ATOM     26  C   UNL     1       6.075   3.813  13.399  0.00  0.00    +0.000 C 
ATOM     27  C   UNL     1       6.369   4.025  14.873  0.00  0.00    +0.000 C 
ENDBRANCH  25  27
ENDBRANCH  24  25
ENDBRANCH  23  24
ENDBRANCH  22  23
ENDBRANCH  21  22
ENDBRANCH  20  21
ENDBRANCH  19  20
ENDBRANCH  18  19
ENDBRANCH   1  18
TORSDOF 11
ENDMDL
MODEL 9
REMARK VINA RESULT:      -6.9      3.863      7.017
REMARK  Name = 
REMARK  14 active torsions:
REMARK  status: ('A' for Active; 'I' for Inactive)
REMARK    1  A    between atoms: C_1  and  C_2
REMARK    2  A    between atoms: C_2  and  C_3
REMARK    3  A    between atoms: C_3  and  C_4
REMARK    4  A    between atoms: C_4  and  C_5
REMARK    5  A    between atoms: C_5  and  C_6
REMARK    6  A    between atoms: C_6  and  C_7
REMARK    7  A    between atoms: C_7  and  C_8
REMARK    8  A    between atoms: C_8  and  C_9
REMARK    9  A    between atoms: C_9  and  C_10
REMARK   10  A    between atoms: C_10  and  C_11
REMARK   11  A    between atoms: N_13  and  C_14
REMARK   12  A    between atoms: C_18  and  C_19
REMARK   13  A    between atoms: C_21  and  C_22
REMARK   14  A    between atoms: C_23  and  O_24
REMARK                            x       y       z     vdW  Elec       q    Type
REMARK                         _______ _______ _______ _____ _____    ______ ____
ROOT
ATOM      1  C   UNL     1       3.027   5.748  20.054  0.00  0.00    +0.000 C 
ATOM      2  O   UNL     1       4.151   5.976  19.618  0.00  0.00    +0.000 OA
ATOM      3  N   UNL     1       2.015   6.670  20.042  0.00  0.00    +0.000 N 
ATOM      4  H   UNL     1       1.178   6.505  20.582  0.00  0.00    +0.000 HD
ENDROOT
BRANCH   3   5
ATOM      5  C   UNL     1       2.288   8.012  19.595  0.00  0.00    +0.000 C 
ATOM      6  C   UNL     1       2.255   8.113  18.061  0.00  0.00    +0.000 C 
ATOM      7  C   UNL     1       1.146   9.096  17.660  0.00  0.00    +0.000 C 
ATOM      8  C   UNL     1       0.583   9.571  18.963  0.00  0.00    +0.000 A 
ATOM      9  C   UNL     1      -0.436  10.491  19.179  0.00  0.00    +0.000 A 
ATOM     10  C   UNL     1      -1.153  11.180  18.057  0.00  0.00    +0.000 C 
ATOM     11  C   UNL     1      -0.793  10.776  20.510  0.00  0.00    +0.000 A 
ATOM     12  C   UNL     1      -0.153  10.158  21.605  0.00  0.00    +0.000 A 
ATOM     13  C   UNL     1      -0.579  10.501  23.004  0.00  0.00    +0.000 C 
ATOM     14  C   UNL     1       0.865   9.240  21.352  0.00  0.00    +0.000 A 
ATOM     15  C   UNL     1       1.220   8.955  20.041  0.00  0.00    +0.000 A 
BRANCH  14  16
ATOM     16  O   UNL     1       1.532   8.583  22.344  0.00  0.00    +0.000 OA
ATOM     17  H   UNL     1       2.476   8.803  22.305  0.00  0.00    +0.000 HD
ENDBRANCH  14  16
ENDBRANCH   3   5
BRANCH   1  18
ATOM     18  C   UNL     1       2.615   4.417  20.642  0.00  0.00    +0.000 C 
BRANCH  18  19
ATOM     19  C   UNL     1       1.111   4.247  20.501  0.00  0.00    +0.000 C 
BRANCH  19  20
ATOM     20  C   UNL     1       0.742   3.000  19.716  0.00  0.00    +0.000 C 
BRANCH  20  21
ATOM     21  C   UNL     1       1.409   3.056  18.347  0.00  0.00    +0.000 C 
BRANCH  21  22
ATOM     22  C   UNL     1       2.392   1.908  18.174  0.00  0.00    +0.000 C 
BRANCH  22  23
ATOM     23  C   UNL     1       3.708   2.417  17.598  0.00  0.00    +0.000 C 
BRANCH  23  24
ATOM     24  C   UNL     1       3.530   3.809  17.007  0.00  0.00    +0.000 C 
BRANCH  24  25
ATOM     25  C   UNL     1       4.785   4.246  16.260  0.00  0.00    +0.000 C 
BRANCH  25  27
ATOM     26  C   UNL     1       7.247   4.689  16.453  0.00  0.00    +0.000 C 
ATOM     27  C   UNL     1       5.979   4.329  17.206  0.00  0.00    +0.000 C 
ENDBRANCH  25  27
ENDBRANCH  24  25
ENDBRANCH  23  24
ENDBRANCH  22  23
ENDBRANCH  21  22
ENDBRANCH  20  21
ENDBRANCH  19  20
ENDBRANCH  18  19
ENDBRANCH   1  18
TORSDOF 11
ENDMDL
