MODEL 1
REMARK VINA RESULT:      -6.8      0.000      0.000
REMARK  Name = 
REMARK  16 active torsions:
REMARK  status: ('A' for Active; 'I' for Inactive)
REMARK    1  A    between atoms: C_1  and  C_2
REMARK    2  A    between atoms: C_2  and  N_3
REMARK    3  A    between atoms: N_3  and  C_4
REMARK    4  A    between atoms: N_3  and  C_6
REMARK    5  A    between atoms: C_4  and  C_5
REMARK    6  A    between atoms: C_6  and  C_7
REMARK    7  A    between atoms: C_7  and  C_8
REMARK    8  A    between atoms: C_7  and  C_19
REMARK    9  A    between atoms: N_10  and  C_11
REMARK   10  A    between atoms: C_12  and  C_13
REMARK   11  A    between atoms: C_17  and  C_18
REMARK   12  A    between atoms: C_19  and  C_20
REMARK   13  A    between atoms: N_21  and  N_22
REMARK   14  A    between atoms: N_22  and  C_23
REMARK   15  A    between atoms: C_23  and  N_25
REMARK   16  A    between atoms: N_25  and  N_26
REMARK                            x       y       z     vdW  Elec       q    Type
REMARK                         _______ _______ _______ _____ _____    ______ ____
ROOT
ATOM      1  C   UNL     1       5.819   4.260  16.402  0.00  0.00    +0.000 C 
ENDROOT
BRANCH   1   2
ATOM      2  C   UNL     1       4.540   4.021  17.211  0.00  0.00    +0.000 C 
ATOM      3  O   UNL     1       3.537   3.551  16.662  0.00  0.00    +0.000 OA
ATOM      4  N   UNL     1       4.535   4.447  18.537  0.00  0.00    +0.000 N 
ATOM      5  H   UNL     1       5.081   5.273  18.762  0.00  0.00    +0.000 HD
BRANCH   4   6
ATOM      6  C   UNL     1       3.490   4.117  19.448  0.00  0.00    +0.000 A 
ATOM      7  C   UNL     1       3.501   2.909  20.178  0.00  0.00    +0.000 A 
ATOM      8  C   UNL     1       4.620   1.894  20.136  0.00  0.00    +0.000 C 
ATOM      9  C   UNL     1       2.438   2.603  21.046  0.00  0.00    +0.000 A 
ATOM     10  C   UNL     1       1.400   3.504  21.253  0.00  0.00    +0.000 A 
ATOM     11  C   UNL     1       1.415   4.724  20.588  0.00  0.00    +0.000 A 
ATOM     12  C   UNL     1       2.441   5.047  19.678  0.00  0.00    +0.000 A 
ATOM     13  C   UNL     1       2.334   6.376  18.980  0.00  0.00    +0.000 C 
ENDBRANCH   4   6
ENDBRANCH   1   2
BRANCH   1  14
ATOM     14  C   UNL     1       5.617   5.158  15.175  0.00  0.00    +0.000 C 
ATOM     15  C   UNL     1       4.994   6.540  15.309  0.00  0.00    +0.000 C 
ATOM     16  N   UNL     1       5.839   4.807  13.941  0.00  0.00    +0.000 NA
BRANCH  16  17
ATOM     17  N   UNL     1       6.209   3.536  13.633  0.00  0.00    +0.000 N 
ATOM     18  H   UNL     1       6.472   2.861  14.347  0.00  0.00    +0.000 HD
BRANCH  17  19
ATOM     19  C   UNL     1       5.945   3.040  12.369  0.00  0.00    +0.000 C 
ATOM     20  S   UNL     1       4.466   3.322  11.647  0.00  0.00    +0.000 S 
BRANCH  19  21
ATOM     21  N   UNL     1       6.990   2.313  11.827  0.00  0.00    +0.000 N 
ATOM     22  H   UNL     1       7.907   2.756  11.893  0.00  0.00    +0.000 HD
BRANCH  21  23
ATOM     23  N   UNL     1       6.829   1.104  11.131  0.00  0.00    +0.000 NA
ATOM     24  H   UNL     1       7.743   0.841  10.745  0.00  0.00    +0.000 HD
ATOM     25  H   UNL     1       6.247   1.290  10.310  0.00  0.00    +0.000 HD
ENDBRANCH  21  23
ENDBRANCH  19  21
ENDBRANCH  17  19
ENDBRANCH  16  17
ENDBRANCH   1  14
BRANCH   1  26
ATOM     26  C   UNL     1       6.991   4.811  17.277  0.00  0.00    +0.000 C 
BRANCH  26  27
ATOM     27  N   UNL     1       6.932   6.130  17.950  0.00  0.00    +0.000 NA
BRANCH  27  29
ATOM     28  C   UNL     1       8.541   5.175  19.645  0.00  0.00    +0.000 C 
ATOM     29  C   UNL     1       7.318   6.056  19.372  0.00  0.00    +0.000 C 
ENDBRANCH  27  29
BRANCH  27  30
ATOM     30  C   UNL     1       7.743   7.145  17.238  0.00  0.00    +0.000 C 
ATOM     31  C   UNL     1       7.987   8.460  17.983  0.00  0.00    +0.000 C 
ENDBRANCH  27  30
ENDBRANCH  26  27
ENDBRANCH   1  26
TORSDOF 11
ENDMDL
MODEL 2
REMARK VINA RESULT:      -6.6      1.384      1.534
REMARK  Name = 
REMARK  16 active torsions:
REMARK  status: ('A' for Active; 'I' for Inactive)
REMARK    1  A    between atoms: C_1  and  C_2
REMARK    2  A    between atoms: C_2  and  N_3
REMARK    3  A    between atoms: N_3  and  C_4
REMARK    4  A    between atoms: N_3  and  C_6
REMARK    5  A    between atoms: C_4  and  C_5
REMARK    6  A    between atoms: C_6  and  C_7
REMARK    7  A    between atoms: C_7  and  C_8
REMARK    8  A    between atoms: C_7  and  C_19
REMARK    9  A    between atoms: N_10  and  C_11
REMARK   10  A    between atoms: C_12  and  C_13
REMARK   11  A    between atoms: C_17  and  C_18
REMARK   12  A    between atoms: C_19  and  C_20
REMARK   13  A    between atoms: N_21  and  N_22
REMARK   14  A    between atoms: N_22  and  C_23
REMARK   15  A    between atoms: C_23  and  N_25
REMARK   16  A    between atoms: N_25  and  N_26
REMARK                            x       y       z     vdW  Elec       q    Type
REMARK                         _______ _______ _______ _____ _____    ______ ____
ROOT
ATOM      1  C   UNL     1       6.288   4.687  16.789  0.00  0.00    +0.000 C 
ENDROOT
BRANCH   1   2
ATOM      2  C   UNL     1       5.352   4.257  17.922  0.00  0.00    +0.000 C 
ATOM      3  O   UNL     1       5.816   3.934  19.022  0.00  0.00    +0.000 OA
ATOM      4  N   UNL     1       3.995   4.154  17.625  0.00  0.00    +0.000 N 
ATOM      5  H   UNL     1       3.747   3.870  16.683  0.00  0.00    +0.000 HD
BRANCH   4   6
ATOM      6  C   UNL     1       3.001   3.952  18.626  0.00  0.00    +0.000 A 
ATOM      7  C   UNL     1       2.602   2.657  19.018  0.00  0.00    +0.000 A 
ATOM      8  C   UNL     1       3.213   1.377  18.496  0.00  0.00    +0.000 C 
ATOM      9  C   UNL     1       1.597   2.496  19.989  0.00  0.00    +0.000 A 
ATOM     10  C   UNL     1       1.030   3.596  20.623  0.00  0.00    +0.000 A 
ATOM     11  C   UNL     1       1.464   4.873  20.289  0.00  0.00    +0.000 A 
ATOM     12  C   UNL     1       2.439   5.074  19.291  0.00  0.00    +0.000 A 
ATOM     13  C   UNL     1       2.802   6.501  18.977  0.00  0.00    +0.000 C 
ENDBRANCH   4   6
ENDBRANCH   1   2
BRANCH   1  14
ATOM     14  C   UNL     1       5.588   5.466  15.669  0.00  0.00    +0.000 C 
ATOM     15  C   UNL     1       4.758   6.704  15.976  0.00  0.00    +0.000 C 
ATOM     16  N   UNL     1       5.538   5.107  14.419  0.00  0.00    +0.000 NA
BRANCH  16  17
ATOM     17  N   UNL     1       6.061   3.919  14.014  0.00  0.00    +0.000 N 
ATOM     18  H   UNL     1       6.064   3.097  14.612  0.00  0.00    +0.000 HD
BRANCH  17  19
ATOM     19  C   UNL     1       6.324   3.718  12.671  0.00  0.00    +0.000 C 
ATOM     20  S   UNL     1       5.385   2.666  11.777  0.00  0.00    +0.000 S 
BRANCH  19  21
ATOM     21  N   UNL     1       7.409   4.440  12.203  0.00  0.00    +0.000 N 
ATOM     22  H   UNL     1       7.835   4.080  11.349  0.00  0.00    +0.000 HD
BRANCH  21  23
ATOM     23  N   UNL     1       7.982   5.527  12.885  0.00  0.00    +0.000 NA
ATOM     24  H   UNL     1       7.797   6.373  12.335  0.00  0.00    +0.000 HD
ATOM     25  H   UNL     1       8.999   5.416  12.852  0.00  0.00    +0.000 HD
ENDBRANCH  21  23
ENDBRANCH  19  21
ENDBRANCH  17  19
ENDBRANCH  16  17
ENDBRANCH   1  14
BRANCH   1  26
ATOM     26  C   UNL     1       7.526   5.492  17.303  0.00  0.00    +0.000 C 
BRANCH  26  27
ATOM     27  N   UNL     1       7.395   6.720  18.121  0.00  0.00    +0.000 NA
BRANCH  27  29
ATOM     28  C   UNL     1       8.351   5.294  19.973  0.00  0.00    +0.000 C 
ATOM     29  C   UNL     1       8.234   6.681  19.334  0.00  0.00    +0.000 C 
ENDBRANCH  27  29
BRANCH  27  30
ATOM     30  C   UNL     1       7.676   7.939  17.328  0.00  0.00    +0.000 C 
ATOM     31  C   UNL     1       8.286   9.118  18.092  0.00  0.00    +0.000 C 
ENDBRANCH  27  30
ENDBRANCH  26  27
ENDBRANCH   1  26
TORSDOF 11
ENDMDL
MODEL 3
REMARK VINA RESULT:      -6.5      0.429      1.765
REMARK  Name = 
REMARK  16 active torsions:
REMARK  status: ('A' for Active; 'I' for Inactive)
REMARK    1  A    between atoms: C_1  and  C_2
REMARK    2  A    between atoms: C_2  and  N_3
REMARK    3  A    between atoms: N_3  and  C_4
REMARK    4  A    between atoms: N_3  and  C_6
REMARK    5  A    between atoms: C_4  and  C_5
REMARK    6  A    between atoms: C_6  and  C_7
REMARK    7  A    between atoms: C_7  and  C_8
REMARK    8  A    between atoms: C_7  and  C_19
REMARK    9  A    between atoms: N_10  and  C_11
REMARK   10  A    between atoms: C_12  and  C_13
REMARK   11  A    between atoms: C_17  and  C_18
REMARK   12  A    between atoms: C_19  and  C_20
REMARK   13  A    between atoms: N_21  and  N_22
REMARK   14  A    between atoms: N_22  and  C_23
REMARK   15  A    between atoms: C_23  and  N_25
REMARK   16  A    between atoms: N_25  and  N_26
REMARK                            x       y       z     vdW  Elec       q    Type
REMARK                         _______ _______ _______ _____ _____    ______ ____
ROOT
ATOM      1  C   UNL     1       5.860   4.249  16.244  0.00  0.00    +0.000 C 
ENDROOT
BRANCH   1   2
ATOM      2  C   UNL     1       4.626   4.131  17.144  0.00  0.00    +0.000 C 
ATOM      3  O   UNL     1       3.535   3.806  16.662  0.00  0.00    +0.000 OA
ATOM      4  N   UNL     1       4.773   4.499  18.479  0.00  0.00    +0.000 N 
ATOM      5  H   UNL     1       5.430   5.244  18.686  0.00  0.00    +0.000 HD
BRANCH   4   6
ATOM      6  C   UNL     1       3.766   4.259  19.459  0.00  0.00    +0.000 A 
ATOM      7  C   UNL     1       2.811   5.244  19.793  0.00  0.00    +0.000 A 
ATOM      8  C   UNL     1       2.703   6.593  19.121  0.00  0.00    +0.000 C 
ATOM      9  C   UNL     1       1.850   4.981  20.786  0.00  0.00    +0.000 A 
ATOM     10  C   UNL     1       1.778   3.738  21.403  0.00  0.00    +0.000 A 
ATOM     11  C   UNL     1       2.673   2.741  21.033  0.00  0.00    +0.000 A 
ATOM     12  C   UNL     1       3.677   2.981  20.074  0.00  0.00    +0.000 A 
ATOM     13  C   UNL     1       4.620   1.846  19.782  0.00  0.00    +0.000 C 
ENDBRANCH   4   6
ENDBRANCH   1   2
BRANCH   1  14
ATOM     14  C   UNL     1       5.642   5.129  15.007  0.00  0.00    +0.000 C 
ATOM     15  C   UNL     1       5.023   6.514  15.129  0.00  0.00    +0.000 C 
ATOM     16  N   UNL     1       5.848   4.761  13.775  0.00  0.00    +0.000 NA
BRANCH  16  17
ATOM     17  N   UNL     1       6.213   3.485  13.480  0.00  0.00    +0.000 N 
ATOM     18  H   UNL     1       6.534   2.836  14.194  0.00  0.00    +0.000 HD
BRANCH  17  19
ATOM     19  C   UNL     1       5.866   2.948  12.254  0.00  0.00    +0.000 C 
ATOM     20  S   UNL     1       4.395   3.321  11.557  0.00  0.00    +0.000 S 
BRANCH  19  21
ATOM     21  N   UNL     1       6.826   2.101  11.727  0.00  0.00    +0.000 N 
ATOM     22  H   UNL     1       7.768   2.490  11.678  0.00  0.00    +0.000 HD
BRANCH  21  23
ATOM     23  N   UNL     1       6.546   0.836  11.185  0.00  0.00    +0.000 NA
ATOM     24  H   UNL     1       7.280   0.618  10.502  0.00  0.00    +0.000 HD
ATOM     25  H   UNL     1       5.692   0.915  10.628  0.00  0.00    +0.000 HD
ENDBRANCH  21  23
ENDBRANCH  19  21
ENDBRANCH  17  19
ENDBRANCH  16  17
ENDBRANCH   1  14
BRANCH   1  26
ATOM     26  C   UNL     1       7.129   4.728  17.021  0.00  0.00    +0.000 C 
BRANCH  26  27
ATOM     27  N   UNL     1       7.086   5.822  18.019  0.00  0.00    +0.000 NA
BRANCH  27  29
ATOM     28  C   UNL     1       7.793   5.403  20.406  0.00  0.00    +0.000 C 
ATOM     29  C   UNL     1       8.208   5.757  18.975  0.00  0.00    +0.000 C 
ENDBRANCH  27  29
BRANCH  27  30
ATOM     30  C   UNL     1       7.028   7.153  17.369  0.00  0.00    +0.000 C 
ATOM     31  C   UNL     1       8.085   8.169  17.811  0.00  0.00    +0.000 C 
ENDBRANCH  27  30
ENDBRANCH  26  27
ENDBRANCH   1  26
TORSDOF 11
ENDMDL
MODEL 4
REMARK VINA RESULT:      -6.5      1.194      1.925
REMARK  Name = 
REMARK  16 active torsions:
REMARK  status: ('A' for Active; 'I' for Inactive)
REMARK    1  A    between atoms: C_1  and  C_2
REMARK    2  A    between atoms: C_2  and  N_3
REMARK    3  A    between atoms: N_3  and  C_4
REMARK    4  A    between atoms: N_3  and  C_6
REMARK    5  A    between atoms: C_4  and  C_5
REMARK    6  A    between atoms: C_6  and  C_7
REMARK    7  A    between atoms: C_7  and  C_8
REMARK    8  A    between atoms: C_7  and  C_19
REMARK    9  A    between atoms: N_10  and  C_11
REMARK   10  A    between atoms: C_12  and  C_13
REMARK   11  A    between atoms: C_17  and  C_18
REMARK   12  A    between atoms: C_19  and  C_20
REMARK   13  A    between atoms: N_21  and  N_22
REMARK   14  A    between atoms: N_22  and  C_23
REMARK   15  A    between atoms: C_23  and  N_25
REMARK   16  A    between atoms: N_25  and  N_26
REMARK                            x       y       z     vdW  Elec       q    Type
REMARK                         _______ _______ _______ _____ _____    ______ ____
ROOT
ATOM      1  C   UNL     1       6.248   4.659  16.535  0.00  0.00    +0.000 C 
ENDROOT
BRANCH   1   2
ATOM      2  C   UNL     1       5.268   4.285  17.651  0.00  0.00    +0.000 C 
ATOM      3  O   UNL     1       5.684   3.782  18.700  0.00  0.00    +0.000 OA
ATOM      4  N   UNL     1       3.909   4.442  17.385  0.00  0.00    +0.000 N 
ATOM      5  H   UNL     1       3.604   4.297  16.428  0.00  0.00    +0.000 HD
BRANCH   4   6
ATOM      6  C   UNL     1       2.908   4.315  18.392  0.00  0.00    +0.000 A 
ATOM      7  C   UNL     1       2.477   5.426  19.147  0.00  0.00    +0.000 A 
ATOM      8  C   UNL     1       2.954   6.844  18.934  0.00  0.00    +0.000 C 
ATOM      9  C   UNL     1       1.507   5.258  20.153  0.00  0.00    +0.000 A 
ATOM     10  C   UNL     1       0.912   4.021  20.374  0.00  0.00    +0.000 A 
ATOM     11  C   UNL     1       1.284   2.936  19.590  0.00  0.00    +0.000 A 
ATOM     12  C   UNL     1       2.283   3.057  18.603  0.00  0.00    +0.000 A 
ATOM     13  C   UNL     1       2.639   1.808  17.844  0.00  0.00    +0.000 C 
ENDBRANCH   4   6
ENDBRANCH   1   2
BRANCH   1  14
ATOM     14  C   UNL     1       5.591   5.367  15.344  0.00  0.00    +0.000 C 
ATOM     15  C   UNL     1       4.803   6.655  15.535  0.00  0.00    +0.000 C 
ATOM     16  N   UNL     1       5.543   4.907  14.127  0.00  0.00    +0.000 NA
BRANCH  16  17
ATOM     17  N   UNL     1       6.027   3.672  13.829  0.00  0.00    +0.000 N 
ATOM     18  H   UNL     1       6.259   2.994  14.551  0.00  0.00    +0.000 HD
BRANCH  17  19
ATOM     19  C   UNL     1       5.929   3.200  12.533  0.00  0.00    +0.000 C 
ATOM     20  S   UNL     1       4.479   3.292  11.711  0.00  0.00    +0.000 S 
BRANCH  19  21
ATOM     21  N   UNL     1       7.108   2.661  12.047  0.00  0.00    +0.000 N 
ATOM     22  H   UNL     1       7.948   3.206  12.242  0.00  0.00    +0.000 HD
BRANCH  21  23
ATOM     23  N   UNL     1       7.173   1.508  11.246  0.00  0.00    +0.000 NA
ATOM     24  H   UNL     1       6.276   1.017  11.332  0.00  0.00    +0.000 HD
ATOM     25  H   UNL     1       7.856   0.873  11.667  0.00  0.00    +0.000 HD
ENDBRANCH  21  23
ENDBRANCH  19  21
ENDBRANCH  17  19
ENDBRANCH  16  17
ENDBRANCH   1  14
BRANCH   1  26
ATOM     26  C   UNL     1       7.457   5.503  17.055  0.00  0.00    +0.000 C 
BRANCH  26  27
ATOM     27  N   UNL     1       7.289   6.666  17.958  0.00  0.00    +0.000 NA
BRANCH  27  29
ATOM     28  C   UNL     1       8.221   5.199  19.790  0.00  0.00    +0.000 C 
ATOM     29  C   UNL     1       8.160   6.587  19.146  0.00  0.00    +0.000 C 
ENDBRANCH  27  29
BRANCH  27  30
ATOM     30  C   UNL     1       7.490   7.948  17.244  0.00  0.00    +0.000 C 
ATOM     31  C   UNL     1       8.242   9.039  18.011  0.00  0.00    +0.000 C 
ENDBRANCH  27  30
ENDBRANCH  26  27
ENDBRANCH   1  26
TORSDOF 11
ENDMDL
MODEL 5
REMARK VINA RESULT:      -6.5      1.109      1.109
REMARK  Name = 
REMARK  16 active torsions:
REMARK  status: ('A' for Active; 'I' for Inactive)
REMARK    1  A    between atoms: C_1  and  C_2
REMARK    2  A    between atoms: C_2  and  N_3
REMARK    3  A    between atoms: N_3  and  C_4
REMARK    4  A    between atoms: N_3  and  C_6
REMARK    5  A    between atoms: C_4  and  C_5
REMARK    6  A    between atoms: C_6  and  C_7
REMARK    7  A    between atoms: C_7  and  C_8
REMARK    8  A    between atoms: C_7  and  C_19
REMARK    9  A    between atoms: N_10  and  C_11
REMARK   10  A    between atoms: C_12  and  C_13
REMARK   11  A    between atoms: C_17  and  C_18
REMARK   12  A    between atoms: C_19  and  C_20
REMARK   13  A    between atoms: N_21  and  N_22
REMARK   14  A    between atoms: N_22  and  C_23
REMARK   15  A    between atoms: C_23  and  N_25
REMARK   16  A    between atoms: N_25  and  N_26
REMARK                            x       y       z     vdW  Elec       q    Type
REMARK                         _______ _______ _______ _____ _____    ______ ____
ROOT
ATOM      1  C   UNL     1       6.358   4.558  16.538  0.00  0.00    +0.000 C 
ENDROOT
BRANCH   1   2
ATOM      2  C   UNL     1       5.395   4.129  17.650  0.00  0.00    +0.000 C 
ATOM      3  O   UNL     1       5.830   3.846  18.772  0.00  0.00    +0.000 OA
ATOM      4  N   UNL     1       4.053   3.979  17.309  0.00  0.00    +0.000 N 
ATOM      5  H   UNL     1       3.846   3.665  16.367  0.00  0.00    +0.000 HD
BRANCH   4   6
ATOM      6  C   UNL     1       3.031   3.773  18.281  0.00  0.00    +0.000 A 
ATOM      7  C   UNL     1       2.759   2.491  18.806  0.00  0.00    +0.000 A 
ATOM      8  C   UNL     1       3.543   1.244  18.467  0.00  0.00    +0.000 C 
ATOM      9  C   UNL     1       1.724   2.321  19.743  0.00  0.00    +0.000 A 
ATOM     10  C   UNL     1       0.999   3.409  20.215  0.00  0.00    +0.000 A 
ATOM     11  C   UNL     1       1.304   4.683  19.752  0.00  0.00    +0.000 A 
ATOM     12  C   UNL     1       2.306   4.887  18.782  0.00  0.00    +0.000 A 
ATOM     13  C   UNL     1       2.522   6.302  18.319  0.00  0.00    +0.000 C 
ENDBRANCH   4   6
ENDBRANCH   1   2
BRANCH   1  14
ATOM     14  C   UNL     1       5.673   5.279  15.370  0.00  0.00    +0.000 C 
ATOM     15  C   UNL     1       4.920   6.583  15.588  0.00  0.00    +0.000 C 
ATOM     16  N   UNL     1       5.571   4.819  14.157  0.00  0.00    +0.000 NA
BRANCH  16  17
ATOM     17  N   UNL     1       6.018   3.574  13.843  0.00  0.00    +0.000 N 
ATOM     18  H   UNL     1       6.205   2.872  14.555  0.00  0.00    +0.000 HD
BRANCH  17  19
ATOM     19  C   UNL     1       5.938   3.135  12.534  0.00  0.00    +0.000 C 
ATOM     20  S   UNL     1       4.502   3.256  11.692  0.00  0.00    +0.000 S 
BRANCH  19  21
ATOM     21  N   UNL     1       7.121   2.600  12.055  0.00  0.00    +0.000 N 
ATOM     22  H   UNL     1       7.972   3.022  12.428  0.00  0.00    +0.000 HD
BRANCH  21  23
ATOM     23  N   UNL     1       7.191   1.624  11.046  0.00  0.00    +0.000 NA
ATOM     24  H   UNL     1       8.089   1.738  10.562  0.00  0.00    +0.000 HD
ATOM     25  H   UNL     1       6.487   1.853  10.339  0.00  0.00    +0.000 HD
ENDBRANCH  21  23
ENDBRANCH  19  21
ENDBRANCH  17  19
ENDBRANCH  16  17
ENDBRANCH   1  14
BRANCH   1  26
ATOM     26  C   UNL     1       7.547   5.420  17.071  0.00  0.00    +0.000 C 
BRANCH  26  27
ATOM     27  N   UNL     1       7.351   6.576  17.977  0.00  0.00    +0.000 NA
BRANCH  27  29
ATOM     28  C   UNL     1       8.094   5.370  20.068  0.00  0.00    +0.000 C 
ATOM     29  C   UNL     1       8.282   6.560  19.122  0.00  0.00    +0.000 C 
ENDBRANCH  27  29
BRANCH  27  30
ATOM     30  C   UNL     1       7.438   7.864  17.249  0.00  0.00    +0.000 C 
ATOM     31  C   UNL     1       8.121   9.016  17.991  0.00  0.00    +0.000 C 
ENDBRANCH  27  30
ENDBRANCH  26  27
ENDBRANCH   1  26
TORSDOF 11
ENDMDL
MODEL 6
REMARK VINA RESULT:      -6.4      1.736      1.877
REMARK  Name = 
REMARK  16 active torsions:
REMARK  status: ('A' for Active; 'I' for Inactive)
REMARK    1  A    between atoms: C_1  and  C_2
REMARK    2  A    between atoms: C_2  and  N_3
REMARK    3  A    between atoms: N_3  and  C_4
REMARK    4  A    between atoms: N_3  and  C_6
REMARK    5  A    between atoms: C_4  and  C_5
REMARK    6  A    between atoms: C_6  and  C_7
REMARK    7  A    between atoms: C_7  and  C_8
REMARK    8  A    between atoms: C_7  and  C_19
REMARK    9  A    between atoms: N_10  and  C_11
REMARK   10  A    between atoms: C_12  and  C_13
REMARK   11  A    between atoms: C_17  and  C_18
REMARK   12  A    between atoms: C_19  and  C_20
REMARK   13  A    between atoms: N_21  and  N_22
REMARK   14  A    between atoms: N_22  and  C_23
REMARK   15  A    between atoms: C_23  and  N_25
REMARK   16  A    between atoms: N_25  and  N_26
REMARK                            x       y       z     vdW  Elec       q    Type
REMARK                         _______ _______ _______ _____ _____    ______ ____
ROOT
ATOM      1  C   UNL     1       5.891   4.867  17.153  0.00  0.00    +0.000 C 
ENDROOT
BRANCH   1   2
ATOM      2  C   UNL     1       5.015   4.612  18.383  0.00  0.00    +0.000 C 
ATOM      3  O   UNL     1       5.191   5.266  19.417  0.00  0.00    +0.000 OA
ATOM      4  N   UNL     1       4.102   3.561  18.309  0.00  0.00    +0.000 N 
ATOM      5  H   UNL     1       4.365   2.757  17.750  0.00  0.00    +0.000 HD
BRANCH   4   6
ATOM      6  C   UNL     1       3.103   3.339  19.301  0.00  0.00    +0.000 A 
ATOM      7  C   UNL     1       3.358   2.547  20.441  0.00  0.00    +0.000 A 
ATOM      8  C   UNL     1       4.695   1.926  20.770  0.00  0.00    +0.000 C 
ATOM      9  C   UNL     1       2.339   2.326  21.385  0.00  0.00    +0.000 A 
ATOM     10  C   UNL     1       1.094   2.932  21.251  0.00  0.00    +0.000 A 
ATOM     11  C   UNL     1       0.856   3.766  20.165  0.00  0.00    +0.000 A 
ATOM     12  C   UNL     1       1.839   3.976  19.177  0.00  0.00    +0.000 A 
ATOM     13  C   UNL     1       1.459   4.862  18.022  0.00  0.00    +0.000 C 
ENDBRANCH   4   6
ENDBRANCH   1   2
BRANCH   1  14
ATOM     14  C   UNL     1       5.215   5.728  16.078  0.00  0.00    +0.000 C 
ATOM     15  C   UNL     1       4.350   6.920  16.460  0.00  0.00    +0.000 C 
ATOM     16  N   UNL     1       5.217   5.478  14.801  0.00  0.00    +0.000 NA
BRANCH  16  17
ATOM     17  N   UNL     1       5.778   4.339  14.315  0.00  0.00    +0.000 N 
ATOM     18  H   UNL     1       5.313   3.436  14.380  0.00  0.00    +0.000 HD
BRANCH  17  19
ATOM     19  C   UNL     1       6.855   4.429  13.451  0.00  0.00    +0.000 C 
ATOM     20  S   UNL     1       6.859   3.572  12.018  0.00  0.00    +0.000 S 
BRANCH  19  21
ATOM     21  N   UNL     1       7.868   5.252  13.912  0.00  0.00    +0.000 N 
ATOM     22  H   UNL     1       7.912   5.362  14.925  0.00  0.00    +0.000 HD
BRANCH  21  23
ATOM     23  N   UNL     1       8.723   5.989  13.075  0.00  0.00    +0.000 NA
ATOM     24  H   UNL     1       8.303   6.010  12.139  0.00  0.00    +0.000 HD
ATOM     25  H   UNL     1       9.587   5.453  12.958  0.00  0.00    +0.000 HD
ENDBRANCH  21  23
ENDBRANCH  19  21
ENDBRANCH  17  19
ENDBRANCH  16  17
ENDBRANCH   1  14
BRANCH   1  26
ATOM     26  C   UNL     1       7.284   5.473  17.522  0.00  0.00    +0.000 C 
BRANCH  26  27
ATOM     27  N   UNL     1       7.428   6.740  18.275  0.00  0.00    +0.000 NA
BRANCH  27  29
ATOM     28  C   UNL     1       8.364   5.365  20.176  0.00  0.00    +0.000 C 
ATOM     29  C   UNL     1       8.442   6.648  19.344  0.00  0.00    +0.000 C 
ENDBRANCH  27  29
BRANCH  27  30
ATOM     30  C   UNL     1       7.715   7.882  17.377  0.00  0.00    +0.000 C 
ATOM     31  C   UNL     1       8.299   9.134  18.039  0.00  0.00    +0.000 C 
ENDBRANCH  27  30
ENDBRANCH  26  27
ENDBRANCH   1  26
TORSDOF 11
ENDMDL
MODEL 7
REMARK VINA RESULT:      -6.2      2.143      4.482
REMARK  Name = 
REMARK  16 active torsions:
REMARK  status: ('A' for Active; 'I' for Inactive)
REMARK    1  A    between atoms: C_1  and  C_2
REMARK    2  A    between atoms: C_2  and  N_3
REMARK    3  A    between atoms: N_3  and  C_4
REMARK    4  A    between atoms: N_3  and  C_6
REMARK    5  A    between atoms: C_4  and  C_5
REMARK    6  A    between atoms: C_6  and  C_7
REMARK    7  A    between atoms: C_7  and  C_8
REMARK    8  A    between atoms: C_7  and  C_19
REMARK    9  A    between atoms: N_10  and  C_11
REMARK   10  A    between atoms: C_12  and  C_13
REMARK   11  A    between atoms: C_17  and  C_18
REMARK   12  A    between atoms: C_19  and  C_20
REMARK   13  A    between atoms: N_21  and  N_22
REMARK   14  A    between atoms: N_22  and  C_23
REMARK   15  A    between atoms: C_23  and  N_25
REMARK   16  A    between atoms: N_25  and  N_26
REMARK                            x       y       z     vdW  Elec       q    Type
REMARK                         _______ _______ _______ _____ _____    ______ ____
ROOT
ATOM      1  C   UNL     1       4.859   4.894  17.158  0.00  0.00    +0.000 C 
ENDROOT
BRANCH   1   2
ATOM      2  C   UNL     1       4.301   5.814  18.249  0.00  0.00    +0.000 C 
ATOM      3  O   UNL     1       5.067   6.364  19.048  0.00  0.00    +0.000 OA
ATOM      4  N   UNL     1       2.915   5.913  18.353  0.00  0.00    +0.000 N 
ATOM      5  H   UNL     1       2.373   5.089  18.116  0.00  0.00    +0.000 HD
BRANCH   4   6
ATOM      6  C   UNL     1       2.273   6.871  19.190  0.00  0.00    +0.000 A 
ATOM      7  C   UNL     1       2.066   8.201  18.764  0.00  0.00    +0.000 A 
ATOM      8  C   UNL     1       2.422   8.726  17.393  0.00  0.00    +0.000 C 
ATOM      9  C   UNL     1       1.454   9.127  19.628  0.00  0.00    +0.000 A 
ATOM     10  C   UNL     1       0.985   8.740  20.878  0.00  0.00    +0.000 A 
ATOM     11  C   UNL     1       1.126   7.417  21.279  0.00  0.00    +0.000 A 
ATOM     12  C   UNL     1       1.772   6.471  20.457  0.00  0.00    +0.000 A 
ATOM     13  C   UNL     1       1.910   5.078  21.009  0.00  0.00    +0.000 C 
ENDBRANCH   4   6
ENDBRANCH   1   2
BRANCH   1  14
ATOM     14  C   UNL     1       6.391   4.828  17.127  0.00  0.00    +0.000 C 
ATOM     15  C   UNL     1       7.195   4.668  18.409  0.00  0.00    +0.000 C 
ATOM     16  N   UNL     1       7.131   5.007  16.071  0.00  0.00    +0.000 NA
BRANCH  16  17
ATOM     17  N   UNL     1       6.575   5.358  14.881  0.00  0.00    +0.000 N 
ATOM     18  H   UNL     1       6.066   6.230  14.759  0.00  0.00    +0.000 HD
BRANCH  17  19
ATOM     19  C   UNL     1       6.949   4.682  13.733  0.00  0.00    +0.000 C 
ATOM     20  S   UNL     1       8.009   5.384  12.651  0.00  0.00    +0.000 S 
BRANCH  19  21
ATOM     21  N   UNL     1       6.351   3.441  13.600  0.00  0.00    +0.000 N 
ATOM     22  H   UNL     1       6.134   2.967  14.478  0.00  0.00    +0.000 HD
BRANCH  21  23
ATOM     23  N   UNL     1       6.144   2.796  12.370  0.00  0.00    +0.000 NA
ATOM     24  H   UNL     1       6.392   1.807  12.488  0.00  0.00    +0.000 HD
ATOM     25  H   UNL     1       6.835   3.157  11.706  0.00  0.00    +0.000 HD
ENDBRANCH  21  23
ENDBRANCH  19  21
ENDBRANCH  17  19
ENDBRANCH  16  17
ENDBRANCH   1  14
BRANCH   1  26
ATOM     26  C   UNL     1       4.266   3.449  17.228  0.00  0.00    +0.000 C 
BRANCH  26  27
ATOM     27  N   UNL     1       3.583   2.925  18.434  0.00  0.00    +0.000 NA
BRANCH  27  29
ATOM     28  C   UNL     1       1.130   2.336  18.535  0.00  0.00    +0.000 C 
ATOM     29  C   UNL     1       2.543   1.931  18.105  0.00  0.00    +0.000 C 
ENDBRANCH  27  29
BRANCH  27  30
ATOM     30  C   UNL     1       4.548   2.370  19.411  0.00  0.00    +0.000 C 
ATOM     31  C   UNL     1       4.019   2.146  20.831  0.00  0.00    +0.000 C 
ENDBRANCH  27  30
ENDBRANCH  26  27
ENDBRANCH   1  26
TORSDOF 11
ENDMDL
MODEL 8
REMARK VINA RESULT:      -6.1      0.895      2.038
REMARK  Name = 
REMARK  16 active torsions:
REMARK  status: ('A' for Active; 'I' for Inactive)
REMARK    1  A    between atoms: C_1  and  C_2
REMARK    2  A    between atoms: C_2  and  N_3
REMARK    3  A    between atoms: N_3  and  C_4
REMARK    4  A    between atoms: N_3  and  C_6
REMARK    5  A    between atoms: C_4  and  C_5
REMARK    6  A    between atoms: C_6  and  C_7
REMARK    7  A    between atoms: C_7  and  C_8
REMARK    8  A    between atoms: C_7  and  C_19
REMARK    9  A    between atoms: N_10  and  C_11
REMARK   10  A    between atoms: C_12  and  C_13
REMARK   11  A    between atoms: C_17  and  C_18
REMARK   12  A    between atoms: C_19  and  C_20
REMARK   13  A    between atoms: N_21  and  N_22
REMARK   14  A    between atoms: N_22  and  C_23
REMARK   15  A    between atoms: C_23  and  N_25
REMARK   16  A    between atoms: N_25  and  N_26
REMARK                            x       y       z     vdW  Elec       q    Type
REMARK                         _______ _______ _______ _____ _____    ______ ____
ROOT
ATOM      1  C   UNL     1       5.826   4.285  16.525  0.00  0.00    +0.000 C 
ENDROOT
BRANCH   1   2
ATOM      2  C   UNL     1       4.547   4.014  17.322  0.00  0.00    +0.000 C 
ATOM      3  O   UNL     1       3.582   3.465  16.778  0.00  0.00    +0.000 OA
ATOM      4  N   UNL     1       4.493   4.498  18.627  0.00  0.00    +0.000 N 
ATOM      5  H   UNL     1       4.989   5.361  18.822  0.00  0.00    +0.000 HD
BRANCH   4   6
ATOM      6  C   UNL     1       3.449   4.153  19.534  0.00  0.00    +0.000 A 
ATOM      7  C   UNL     1       2.411   5.058  19.842  0.00  0.00    +0.000 A 
ATOM      8  C   UNL     1       2.249   6.422  19.212  0.00  0.00    +0.000 C 
ATOM      9  C   UNL     1       1.412   4.694  20.764  0.00  0.00    +0.000 A 
ATOM     10  C   UNL     1       1.391   3.426  21.332  0.00  0.00    +0.000 A 
ATOM     11  C   UNL     1       2.373   2.506  20.984  0.00  0.00    +0.000 A 
ATOM     12  C   UNL     1       3.413   2.850  20.097  0.00  0.00    +0.000 A 
ATOM     13  C   UNL     1       4.448   1.792  19.825  0.00  0.00    +0.000 C 
ENDBRANCH   4   6
ENDBRANCH   1   2
BRANCH   1  14
ATOM     14  C   UNL     1       5.638   5.275  15.368  0.00  0.00    +0.000 C 
ATOM     15  C   UNL     1       4.984   6.630  15.596  0.00  0.00    +0.000 C 
ATOM     16  N   UNL     1       5.899   5.030  14.117  0.00  0.00    +0.000 NA
BRANCH  16  17
ATOM     17  N   UNL     1       6.303   3.794  13.718  0.00  0.00    +0.000 N 
ATOM     18  H   UNL     1       6.242   2.983  14.328  0.00  0.00    +0.000 HD
BRANCH  17  19
ATOM     19  C   UNL     1       6.520   3.554  12.373  0.00  0.00    +0.000 C 
ATOM     20  S   UNL     1       5.659   2.363  11.581  0.00  0.00    +0.000 S 
BRANCH  19  21
ATOM     21  N   UNL     1       7.495   4.363  11.815  0.00  0.00    +0.000 N 
ATOM     22  H   UNL     1       7.874   4.036  10.926  0.00  0.00    +0.000 HD
BRANCH  21  23
ATOM     23  N   UNL     1       8.031   5.497  12.447  0.00  0.00    +0.000 NA
ATOM     24  H   UNL     1       8.890   5.210  12.930  0.00  0.00    +0.000 HD
ATOM     25  H   UNL     1       7.393   5.769  13.199  0.00  0.00    +0.000 HD
ENDBRANCH  21  23
ENDBRANCH  19  21
ENDBRANCH  17  19
ENDBRANCH  16  17
ENDBRANCH   1  14
BRANCH   1  26
ATOM     26  C   UNL     1       7.014   4.745  17.431  0.00  0.00    +0.000 C 
BRANCH  26  27
ATOM     27  N   UNL     1       6.986   6.011  18.200  0.00  0.00    +0.000 NA
BRANCH  27  29
ATOM     28  C   UNL     1       8.579   5.521  20.097  0.00  0.00    +0.000 C 
ATOM     29  C   UNL     1       7.139   5.793  19.651  0.00  0.00    +0.000 C 
ENDBRANCH  27  29
BRANCH  27  30
ATOM     30  C   UNL     1       7.996   6.975  17.705  0.00  0.00    +0.000 C 
ATOM     31  C   UNL     1       7.561   8.442  17.647  0.00  0.00    +0.000 C 
ENDBRANCH  27  30
ENDBRANCH  26  27
ENDBRANCH   1  26
TORSDOF 11
ENDMDL
MODEL 9
REMARK VINA RESULT:      -6.1      0.926      1.133
REMARK  Name = 
REMARK  16 active torsions:
REMARK  status: ('A' for Active; 'I' for Inactive)
REMARK    1  A    between atoms: C_1  and  C_2
REMARK    2  A    between atoms: C_2  and  N_3
REMARK    3  A    between atoms: N_3  and  C_4
REMARK    4  A    between atoms: N_3  and  C_6
REMARK    5  A    between atoms: C_4  and  C_5
REMARK    6  A    between atoms: C_6  and  C_7
REMARK    7  A    between atoms: C_7  and  C_8
REMARK    8  A    between atoms: C_7  and  C_19
REMARK    9  A    between atoms: N_10  and  C_11
REMARK   10  A    between atoms: C_12  and  C_13
REMARK   11  A    between atoms: C_17  and  C_18
REMARK   12  A    between atoms: C_19  and  C_20
REMARK   13  A    between atoms: N_21  and  N_22
REMARK   14  A    between atoms: N_22  and  C_23
REMARK   15  A    between atoms: C_23  and  N_25
REMARK   16  A    between atoms: N_25  and  N_26
REMARK                            x       y       z     vdW  Elec       q    Type
REMARK                         _______ _______ _______ _____ _____    ______ ____
ROOT
ATOM      1  C   UNL     1       5.855   4.417  16.607  0.00  0.00    +0.000 C 
ENDROOT
BRANCH   1   2
ATOM      2  C   UNL     1       4.614   4.112  17.452  0.00  0.00    +0.000 C 
ATOM      3  O   UNL     1       3.610   3.619  16.924  0.00  0.00    +0.000 OA
ATOM      4  N   UNL     1       4.639   4.504  18.788  0.00  0.00    +0.000 N 
ATOM      5  H   UNL     1       5.163   5.342  19.016  0.00  0.00    +0.000 HD
BRANCH   4   6
ATOM      6  C   UNL     1       3.638   4.113  19.724  0.00  0.00    +0.000 A 
ATOM      7  C   UNL     1       3.689   2.864  20.381  0.00  0.00    +0.000 A 
ATOM      8  C   UNL     1       4.812   1.864  20.231  0.00  0.00    +0.000 C 
ATOM      9  C   UNL     1       2.668   2.500  21.277  0.00  0.00    +0.000 A 
ATOM     10  C   UNL     1       1.635   3.379  21.582  0.00  0.00    +0.000 A 
ATOM     11  C   UNL     1       1.613   4.636  20.989  0.00  0.00    +0.000 A 
ATOM     12  C   UNL     1       2.595   5.019  20.054  0.00  0.00    +0.000 A 
ATOM     13  C   UNL     1       2.449   6.385  19.440  0.00  0.00    +0.000 C 
ENDBRANCH   4   6
ENDBRANCH   1   2
BRANCH   1  14
ATOM     14  C   UNL     1       5.586   5.364  15.431  0.00  0.00    +0.000 C 
ATOM     15  C   UNL     1       4.869   6.690  15.640  0.00  0.00    +0.000 C 
ATOM     16  N   UNL     1       5.827   5.097  14.180  0.00  0.00    +0.000 NA
BRANCH  16  17
ATOM     17  N   UNL     1       6.283   3.873  13.803  0.00  0.00    +0.000 N 
ATOM     18  H   UNL     1       6.257   3.071  14.427  0.00  0.00    +0.000 HD
BRANCH  17  19
ATOM     19  C   UNL     1       6.511   3.618  12.462  0.00  0.00    +0.000 C 
ATOM     20  S   UNL     1       5.638   2.435  11.671  0.00  0.00    +0.000 S 
BRANCH  19  21
ATOM     21  N   UNL     1       7.505   4.406  11.908  0.00  0.00    +0.000 N 
ATOM     22  H   UNL     1       7.878   4.073  11.019  0.00  0.00    +0.000 HD
BRANCH  21  23
ATOM     23  N   UNL     1       8.065   5.527  12.544  0.00  0.00    +0.000 NA
ATOM     24  H   UNL     1       8.784   5.191  13.194  0.00  0.00    +0.000 HD
ATOM     25  H   UNL     1       7.346   5.938  13.146  0.00  0.00    +0.000 HD
ENDBRANCH  21  23
ENDBRANCH  19  21
ENDBRANCH  17  19
ENDBRANCH  16  17
ENDBRANCH   1  14
BRANCH   1  26
ATOM     26  C   UNL     1       7.047   4.957  17.462  0.00  0.00    +0.000 C 
BRANCH  26  27
ATOM     27  N   UNL     1       7.038   6.302  18.083  0.00  0.00    +0.000 NA
BRANCH  27  29
ATOM     28  C   UNL     1       8.105   4.957  19.935  0.00  0.00    +0.000 C 
ATOM     29  C   UNL     1       7.775   6.338  19.361  0.00  0.00    +0.000 C 
ENDBRANCH  27  29
BRANCH  27  30
ATOM     30  C   UNL     1       7.548   7.338  17.154  0.00  0.00    +0.000 C 
ATOM     31  C   UNL     1       8.052   8.633  17.796  0.00  0.00    +0.000 C 
ENDBRANCH  27  30
ENDBRANCH  26  27
ENDBRANCH   1  26
TORSDOF 11
ENDMDL
