MODEL 1
REMARK VINA RESULT:      -6.2      0.000      0.000
REMARK  Name = 
REMARK  6 active torsions:
REMARK  status: ('A' for Active; 'I' for Inactive)
REMARK    1  A    between atoms: C_1  and  S_2
REMARK    2  A    between atoms: S_2  and  C_3
REMARK    3  A    between atoms: C_5  and  C_6
REMARK    4  A    between atoms: C_6  and  C_7
REMARK    5  A    between atoms: C_7  and  O_8
REMARK    6  A    between atoms: C_10  and  N_11
REMARK                            x       y       z     vdW  Elec       q    Type
REMARK                         _______ _______ _______ _____ _____    ______ ____
ROOT
ATOM      1  C   UNL     1       6.396   4.907  18.340  0.00  0.00    +0.000 A 
ATOM      2  N   UNL     1       6.417   5.019  17.007  0.00  0.00    +0.000 NA
ATOM      3  C   UNL     1       5.409   4.431  16.338  0.00  0.00    +0.000 A 
ATOM      4  C   UNL     1       4.411   3.727  16.992  0.00  0.00    +0.000 A 
ATOM      5  C   UNL     1       4.485   3.615  18.370  0.00  0.00    +0.000 A 
ATOM      6  N   UNL     1       5.464   4.242  19.038  0.00  0.00    +0.000 NA
ENDROOT
BRANCH   5   7
ATOM      7  N   UNL     1       3.549   2.865  19.089  0.00  0.00    +0.000 N 
ATOM      8  C   UNL     1       2.956   3.482  20.284  0.00  0.00    +0.000 C 
ATOM      9  C   UNL     1       1.590   2.866  20.566  0.00  0.00    +0.000 C 
ATOM     10  S   UNL     1       0.951   2.408  18.952  0.00  0.00    +0.000 S 
ATOM     11  C   UNL     1       2.607   2.068  18.305  0.00  0.00    +0.000 C 
ENDBRANCH   5   7
BRANCH   1  13
ATOM     12  C   UNL     1       7.927   7.189  18.236  0.00  0.00    +0.000 C 
ATOM     13  S   UNL     1       7.741   5.676  19.211  0.00  0.00    +0.000 S 
ENDBRANCH   1  13
BRANCH   3  14
ATOM     14  C   UNL     1       5.409   4.508  14.829  0.00  0.00    +0.000 C 
BRANCH  14  15
ATOM     15  C   UNL     1       6.780   4.308  14.184  0.00  0.00    +0.000 C 
BRANCH  15  16
ATOM     16  O   UNL     1       7.648   5.398  14.485  0.00  0.00    +0.000 OA
ATOM     17  H   UNL     1       8.302   5.035  15.118  0.00  0.00    +0.000 HD
ENDBRANCH  15  16
ENDBRANCH  14  15
ENDBRANCH   3  14
TORSDOF 5
ENDMDL
MODEL 2
REMARK VINA RESULT:      -5.9      0.948      1.280
REMARK  Name = 
REMARK  6 active torsions:
REMARK  status: ('A' for Active; 'I' for Inactive)
REMARK    1  A    between atoms: C_1  and  S_2
REMARK    2  A    between atoms: S_2  and  C_3
REMARK    3  A    between atoms: C_5  and  C_6
REMARK    4  A    between atoms: C_6  and  C_7
REMARK    5  A    between atoms: C_7  and  O_8
REMARK    6  A    between atoms: C_10  and  N_11
REMARK                            x       y       z     vdW  Elec       q    Type
REMARK                         _______ _______ _______ _____ _____    ______ ____
ROOT
ATOM      1  C   UNL     1       6.274   5.014  18.337  0.00  0.00    +0.000 A 
ATOM      2  N   UNL     1       6.642   4.653  17.103  0.00  0.00    +0.000 NA
ATOM      3  C   UNL     1       5.681   4.141  16.314  0.00  0.00    +0.000 A 
ATOM      4  C   UNL     1       4.380   3.974  16.761  0.00  0.00    +0.000 A 
ATOM      5  C   UNL     1       4.087   4.328  18.067  0.00  0.00    +0.000 A 
ATOM      6  N   UNL     1       5.035   4.883  18.836  0.00  0.00    +0.000 NA
ENDROOT
BRANCH   5   7
ATOM      7  N   UNL     1       2.812   4.127  18.606  0.00  0.00    +0.000 N 
ATOM      8  C   UNL     1       1.973   3.086  17.995  0.00  0.00    +0.000 C 
ATOM      9  C   UNL     1       0.959   2.572  19.011  0.00  0.00    +0.000 C 
ATOM     10  S   UNL     1       1.775   2.743  20.601  0.00  0.00    +0.000 S 
ATOM     11  C   UNL     1       2.696   4.204  20.061  0.00  0.00    +0.000 C 
ENDBRANCH   5   7
BRANCH   1  13
ATOM     12  C   UNL     1       8.034   7.125  18.402  0.00  0.00    +0.000 C 
ATOM     13  S   UNL     1       7.556   5.676  19.374  0.00  0.00    +0.000 S 
ENDBRANCH   1  13
BRANCH   3  14
ATOM     14  C   UNL     1       6.059   3.693  14.921  0.00  0.00    +0.000 C 
BRANCH  14  15
ATOM     15  C   UNL     1       6.643   4.795  14.037  0.00  0.00    +0.000 C 
BRANCH  15  16
ATOM     16  O   UNL     1       7.785   5.387  14.650  0.00  0.00    +0.000 OA
ATOM     17  H   UNL     1       7.726   5.136  15.595  0.00  0.00    +0.000 HD
ENDBRANCH  15  16
ENDBRANCH  14  15
ENDBRANCH   3  14
TORSDOF 5
ENDMDL
MODEL 3
REMARK VINA RESULT:      -5.8      1.413      1.571
REMARK  Name = 
REMARK  6 active torsions:
REMARK  status: ('A' for Active; 'I' for Inactive)
REMARK    1  A    between atoms: C_1  and  S_2
REMARK    2  A    between atoms: S_2  and  C_3
REMARK    3  A    between atoms: C_5  and  C_6
REMARK    4  A    between atoms: C_6  and  C_7
REMARK    5  A    between atoms: C_7  and  O_8
REMARK    6  A    between atoms: C_10  and  N_11
REMARK                            x       y       z     vdW  Elec       q    Type
REMARK                         _______ _______ _______ _____ _____    ______ ____
ROOT
ATOM      1  C   UNL     1       6.787   5.295  17.580  0.00  0.00    +0.000 A 
ATOM      2  N   UNL     1       7.175   5.279  16.301  0.00  0.00    +0.000 NA
ATOM      3  C   UNL     1       6.424   4.555  15.452  0.00  0.00    +0.000 A 
ATOM      4  C   UNL     1       5.317   3.842  15.883  0.00  0.00    +0.000 A 
ATOM      5  C   UNL     1       5.006   3.869  17.233  0.00  0.00    +0.000 A 
ATOM      6  N   UNL     1       5.728   4.631  18.067  0.00  0.00    +0.000 NA
ENDROOT
BRANCH   5   7
ATOM      7  N   UNL     1       3.942   3.122  17.748  0.00  0.00    +0.000 N 
ATOM      8  C   UNL     1       4.011   2.729  19.163  0.00  0.00    +0.000 C 
ATOM      9  C   UNL     1       2.605   2.507  19.711  0.00  0.00    +0.000 C 
ATOM     10  S   UNL     1       1.566   3.636  18.779  0.00  0.00    +0.000 S 
ATOM     11  C   UNL     1       2.602   3.497  17.301  0.00  0.00    +0.000 C 
ENDBRANCH   5   7
BRANCH   1  13
ATOM     12  C   UNL     1       7.852   7.820  17.805  0.00  0.00    +0.000 C 
ATOM     13  S   UNL     1       7.796   6.244  18.693  0.00  0.00    +0.000 S 
ENDBRANCH   1  13
BRANCH   3  14
ATOM     14  C   UNL     1       6.842   4.486  14.002  0.00  0.00    +0.000 C 
BRANCH  14  15
ATOM     15  C   UNL     1       5.895   3.687  13.107  0.00  0.00    +0.000 C 
BRANCH  15  16
ATOM     16  O   UNL     1       6.624   2.833  12.228  0.00  0.00    +0.000 OA
ATOM     17  H   UNL     1       6.606   3.286  11.360  0.00  0.00    +0.000 HD
ENDBRANCH  15  16
ENDBRANCH  14  15
ENDBRANCH   3  14
TORSDOF 5
ENDMDL
MODEL 4
REMARK VINA RESULT:      -5.7      2.204      3.510
REMARK  Name = 
REMARK  6 active torsions:
REMARK  status: ('A' for Active; 'I' for Inactive)
REMARK    1  A    between atoms: C_1  and  S_2
REMARK    2  A    between atoms: S_2  and  C_3
REMARK    3  A    between atoms: C_5  and  C_6
REMARK    4  A    between atoms: C_6  and  C_7
REMARK    5  A    between atoms: C_7  and  O_8
REMARK    6  A    between atoms: C_10  and  N_11
REMARK                            x       y       z     vdW  Elec       q    Type
REMARK                         _______ _______ _______ _____ _____    ______ ____
ROOT
ATOM      1  C   UNL     1       6.492   4.492  15.402  0.00  0.00    +0.000 A 
ATOM      2  N   UNL     1       7.318   5.054  16.291  0.00  0.00    +0.000 NA
ATOM      3  C   UNL     1       6.891   5.100  17.565  0.00  0.00    +0.000 A 
ATOM      4  C   UNL     1       5.648   4.612  17.937  0.00  0.00    +0.000 A 
ATOM      5  C   UNL     1       4.829   4.087  16.951  0.00  0.00    +0.000 A 
ATOM      6  N   UNL     1       5.278   3.998  15.691  0.00  0.00    +0.000 NA
ENDROOT
BRANCH   5   7
ATOM      7  N   UNL     1       3.539   3.636  17.243  0.00  0.00    +0.000 N 
ATOM      8  C   UNL     1       3.405   2.302  17.844  0.00  0.00    +0.000 C 
ATOM      9  C   UNL     1       2.110   2.218  18.645  0.00  0.00    +0.000 C 
ATOM     10  S   UNL     1       1.830   3.888  19.241  0.00  0.00    +0.000 S 
ATOM     11  C   UNL     1       2.605   4.624  17.781  0.00  0.00    +0.000 C 
ENDBRANCH   5   7
BRANCH   1  13
ATOM     12  C   UNL     1       5.698   3.551  12.943  0.00  0.00    +0.000 C 
ATOM     13  S   UNL     1       7.063   4.448  13.720  0.00  0.00    +0.000 S 
ENDBRANCH   1  13
BRANCH   3  14
ATOM     14  C   UNL     1       7.780   5.753  18.597  0.00  0.00    +0.000 C 
BRANCH  14  15
ATOM     15  C   UNL     1       8.023   7.245  18.371  0.00  0.00    +0.000 C 
BRANCH  15  16
ATOM     16  O   UNL     1       7.348   7.700  17.201  0.00  0.00    +0.000 OA
ATOM     17  H   UNL     1       6.453   7.954  17.506  0.00  0.00    +0.000 HD
ENDBRANCH  15  16
ENDBRANCH  14  15
ENDBRANCH   3  14
TORSDOF 5
ENDMDL
MODEL 5
REMARK VINA RESULT:      -5.6      0.985      1.028
REMARK  Name = 
REMARK  6 active torsions:
REMARK  status: ('A' for Active; 'I' for Inactive)
REMARK    1  A    between atoms: C_1  and  S_2
REMARK    2  A    between atoms: S_2  and  C_3
REMARK    3  A    between atoms: C_5  and  C_6
REMARK    4  A    between atoms: C_6  and  C_7
REMARK    5  A    between atoms: C_7  and  O_8
REMARK    6  A    between atoms: C_10  and  N_11
REMARK                            x       y       z     vdW  Elec       q    Type
REMARK                         _______ _______ _______ _____ _____    ______ ____
ROOT
ATOM      1  C   UNL     1       6.504   5.730  18.062  0.00  0.00    +0.000 A 
ATOM      2  N   UNL     1       6.492   5.509  16.744  0.00  0.00    +0.000 NA
ATOM      3  C   UNL     1       5.420   4.864  16.250  0.00  0.00    +0.000 A 
ATOM      4  C   UNL     1       4.390   4.428  17.067  0.00  0.00    +0.000 A 
ATOM      5  C   UNL     1       4.497   4.652  18.430  0.00  0.00    +0.000 A 
ATOM      6  N   UNL     1       5.543   5.338  18.913  0.00  0.00    +0.000 NA
ENDROOT
BRANCH   5   7
ATOM      7  N   UNL     1       3.527   4.183  19.321  0.00  0.00    +0.000 N 
ATOM      8  C   UNL     1       2.200   4.815  19.276  0.00  0.00    +0.000 C 
ATOM      9  C   UNL     1       1.144   3.847  19.797  0.00  0.00    +0.000 C 
ATOM     10  S   UNL     1       1.764   2.217  19.369  0.00  0.00    +0.000 S 
ATOM     11  C   UNL     1       3.488   2.739  19.547  0.00  0.00    +0.000 C 
ENDBRANCH   5   7
BRANCH   1  13
ATOM     12  C   UNL     1       7.873   8.089  17.721  0.00  0.00    +0.000 C 
ATOM     13  S   UNL     1       7.932   6.571  18.703  0.00  0.00    +0.000 S 
ENDBRANCH   1  13
BRANCH   3  14
ATOM     14  C   UNL     1       5.379   4.569  14.769  0.00  0.00    +0.000 C 
BRANCH  14  15
ATOM     15  C   UNL     1       6.740   4.254  14.147  0.00  0.00    +0.000 C 
BRANCH  15  16
ATOM     16  O   UNL     1       7.584   5.402  14.163  0.00  0.00    +0.000 OA
ATOM     17  H   UNL     1       7.023   6.126  14.509  0.00  0.00    +0.000 HD
ENDBRANCH  15  16
ENDBRANCH  14  15
ENDBRANCH   3  14
TORSDOF 5
ENDMDL
MODEL 6
REMARK VINA RESULT:      -5.6      1.842      2.968
REMARK  Name = 
REMARK  6 active torsions:
REMARK  status: ('A' for Active; 'I' for Inactive)
REMARK    1  A    between atoms: C_1  and  S_2
REMARK    2  A    between atoms: S_2  and  C_3
REMARK    3  A    between atoms: C_5  and  C_6
REMARK    4  A    between atoms: C_6  and  C_7
REMARK    5  A    between atoms: C_7  and  O_8
REMARK    6  A    between atoms: C_10  and  N_11
REMARK                            x       y       z     vdW  Elec       q    Type
REMARK                         _______ _______ _______ _____ _____    ______ ____
ROOT
ATOM      1  C   UNL     1       5.738   4.270  16.500  0.00  0.00    +0.000 A 
ATOM      2  N   UNL     1       6.758   5.000  16.961  0.00  0.00    +0.000 NA
ATOM      3  C   UNL     1       6.745   5.293  18.274  0.00  0.00    +0.000 A 
ATOM      4  C   UNL     1       5.715   4.880  19.104  0.00  0.00    +0.000 A 
ATOM      5  C   UNL     1       4.668   4.168  18.543  0.00  0.00    +0.000 A 
ATOM      6  N   UNL     1       4.709   3.836  17.244  0.00  0.00    +0.000 NA
ENDROOT
BRANCH   5   7
ATOM      7  N   UNL     1       3.565   3.775  19.307  0.00  0.00    +0.000 N 
ATOM      8  C   UNL     1       2.536   4.788  19.585  0.00  0.00    +0.000 C 
ATOM      9  C   UNL     1       1.194   4.110  19.843  0.00  0.00    +0.000 C 
ATOM     10  S   UNL     1       1.237   2.615  18.850  0.00  0.00    +0.000 S 
ATOM     11  C   UNL     1       3.028   2.441  19.044  0.00  0.00    +0.000 C 
ENDBRANCH   5   7
BRANCH   1  13
ATOM     12  C   UNL     1       7.167   4.912  14.241  0.00  0.00    +0.000 C 
ATOM     13  S   UNL     1       5.761   3.901  14.762  0.00  0.00    +0.000 S 
ENDBRANCH   1  13
BRANCH   3  14
ATOM     14  C   UNL     1       7.864   6.141  18.832  0.00  0.00    +0.000 C 
BRANCH  14  15
ATOM     15  C   UNL     1       7.932   7.557  18.260  0.00  0.00    +0.000 C 
BRANCH  15  16
ATOM     16  O   UNL     1       7.706   7.549  16.853  0.00  0.00    +0.000 OA
ATOM     17  H   UNL     1       7.016   6.869  16.710  0.00  0.00    +0.000 HD
ENDBRANCH  15  16
ENDBRANCH  14  15
ENDBRANCH   3  14
TORSDOF 5
ENDMDL
MODEL 7
REMARK VINA RESULT:      -5.6      2.373      3.649
REMARK  Name = 
REMARK  6 active torsions:
REMARK  status: ('A' for Active; 'I' for Inactive)
REMARK    1  A    between atoms: C_1  and  S_2
REMARK    2  A    between atoms: S_2  and  C_3
REMARK    3  A    between atoms: C_5  and  C_6
REMARK    4  A    between atoms: C_6  and  C_7
REMARK    5  A    between atoms: C_7  and  O_8
REMARK    6  A    between atoms: C_10  and  N_11
REMARK                            x       y       z     vdW  Elec       q    Type
REMARK                         _______ _______ _______ _____ _____    ______ ____
ROOT
ATOM      1  C   UNL     1       6.780   4.941  15.546  0.00  0.00    +0.000 A 
ATOM      2  N   UNL     1       7.473   5.869  16.214  0.00  0.00    +0.000 NA
ATOM      3  C   UNL     1       7.186   6.012  17.520  0.00  0.00    +0.000 A 
ATOM      4  C   UNL     1       6.207   5.253  18.139  0.00  0.00    +0.000 A 
ATOM      5  C   UNL     1       5.498   4.345  17.370  0.00  0.00    +0.000 A 
ATOM      6  N   UNL     1       5.819   4.172  16.080  0.00  0.00    +0.000 NA
ENDROOT
BRANCH   5   7
ATOM      7  N   UNL     1       4.452   3.593  17.914  0.00  0.00    +0.000 N 
ATOM      8  C   UNL     1       4.500   3.304  19.354  0.00  0.00    +0.000 C 
ATOM      9  C   UNL     1       3.091   3.062  19.884  0.00  0.00    +0.000 C 
ATOM     10  S   UNL     1       2.032   4.079  18.851  0.00  0.00    +0.000 S 
ATOM     11  C   UNL     1       3.110   3.878  17.411  0.00  0.00    +0.000 C 
ENDBRANCH   5   7
BRANCH   1  13
ATOM     12  C   UNL     1       5.825   3.664  13.306  0.00  0.00    +0.000 C 
ATOM     13  S   UNL     1       7.160   4.773  13.819  0.00  0.00    +0.000 S 
ENDBRANCH   1  13
BRANCH   3  14
ATOM     14  C   UNL     1       7.926   7.069  18.307  0.00  0.00    +0.000 C 
BRANCH  14  15
ATOM     15  C   UNL     1       7.877   8.467  17.690  0.00  0.00    +0.000 C 
BRANCH  15  16
ATOM     16  O   UNL     1       8.597   9.402  18.490  0.00  0.00    +0.000 OA
ATOM     17  H   UNL     1       7.915   9.852  19.031  0.00  0.00    +0.000 HD
ENDBRANCH  15  16
ENDBRANCH  14  15
ENDBRANCH   3  14
TORSDOF 5
ENDMDL
MODEL 8
REMARK VINA RESULT:      -5.6      1.979      3.150
REMARK  Name = 
REMARK  6 active torsions:
REMARK  status: ('A' for Active; 'I' for Inactive)
REMARK    1  A    between atoms: C_1  and  S_2
REMARK    2  A    between atoms: S_2  and  C_3
REMARK    3  A    between atoms: C_5  and  C_6
REMARK    4  A    between atoms: C_6  and  C_7
REMARK    5  A    between atoms: C_7  and  O_8
REMARK    6  A    between atoms: C_10  and  N_11
REMARK                            x       y       z     vdW  Elec       q    Type
REMARK                         _______ _______ _______ _____ _____    ______ ____
ROOT
ATOM      1  C   UNL     1       5.512   4.285  16.171  0.00  0.00    +0.000 A 
ATOM      2  N   UNL     1       6.590   4.829  16.744  0.00  0.00    +0.000 NA
ATOM      3  C   UNL     1       6.510   5.081  18.062  0.00  0.00    +0.000 A 
ATOM      4  C   UNL     1       5.360   4.814  18.788  0.00  0.00    +0.000 A 
ATOM      5  C   UNL     1       4.267   4.295  18.114  0.00  0.00    +0.000 A 
ATOM      6  N   UNL     1       4.367   3.999  16.811  0.00  0.00    +0.000 NA
ENDROOT
BRANCH   5   7
ATOM      7  N   UNL     1       3.054   4.062  18.770  0.00  0.00    +0.000 N 
ATOM      8  C   UNL     1       2.430   2.742  18.595  0.00  0.00    +0.000 C 
ATOM      9  C   UNL     1       1.532   2.429  19.787  0.00  0.00    +0.000 C 
ATOM     10  S   UNL     1       2.299   3.272  21.174  0.00  0.00    +0.000 S 
ATOM     11  C   UNL     1       2.924   4.605  20.120  0.00  0.00    +0.000 C 
ENDBRANCH   5   7
BRANCH   1  13
ATOM     12  C   UNL     1       7.149   4.866  14.041  0.00  0.00    +0.000 C 
ATOM     13  S   UNL     1       5.627   3.968  14.427  0.00  0.00    +0.000 S 
ENDBRANCH   1  13
BRANCH   3  14
ATOM     14  C   UNL     1       7.696   5.723  18.745  0.00  0.00    +0.000 C 
BRANCH  14  15
ATOM     15  C   UNL     1       7.957   7.171  18.332  0.00  0.00    +0.000 C 
BRANCH  15  16
ATOM     16  O   UNL     1       7.836   7.328  16.921  0.00  0.00    +0.000 OA
ATOM     17  H   UNL     1       8.223   6.513  16.540  0.00  0.00    +0.000 HD
ENDBRANCH  15  16
ENDBRANCH  14  15
ENDBRANCH   3  14
TORSDOF 5
ENDMDL
MODEL 9
REMARK VINA RESULT:      -5.5      2.575      3.742
REMARK  Name = 
REMARK  6 active torsions:
REMARK  status: ('A' for Active; 'I' for Inactive)
REMARK    1  A    between atoms: C_1  and  S_2
REMARK    2  A    between atoms: S_2  and  C_3
REMARK    3  A    between atoms: C_5  and  C_6
REMARK    4  A    between atoms: C_6  and  C_7
REMARK    5  A    between atoms: C_7  and  O_8
REMARK    6  A    between atoms: C_10  and  N_11
REMARK                            x       y       z     vdW  Elec       q    Type
REMARK                         _______ _______ _______ _____ _____    ______ ____
ROOT
ATOM      1  C   UNL     1       6.493   4.690  15.583  0.00  0.00    +0.000 A 
ATOM      2  N   UNL     1       7.209   5.342  16.505  0.00  0.00    +0.000 NA
ATOM      3  C   UNL     1       6.719   5.346  17.757  0.00  0.00    +0.000 A 
ATOM      4  C   UNL     1       5.521   4.725  18.074  0.00  0.00    +0.000 A 
ATOM      5  C   UNL     1       4.813   4.110  17.055  0.00  0.00    +0.000 A 
ATOM      6  N   UNL     1       5.328   4.067  15.818  0.00  0.00    +0.000 NA
ENDROOT
BRANCH   5   7
ATOM      7  N   UNL     1       3.567   3.521  17.290  0.00  0.00    +0.000 N 
ATOM      8  C   UNL     1       3.546   2.241  18.013  0.00  0.00    +0.000 C 
ATOM      9  C   UNL     1       2.204   2.060  18.713  0.00  0.00    +0.000 C 
ATOM     10  S   UNL     1       1.666   3.726  19.111  0.00  0.00    +0.000 S 
ATOM     11  C   UNL     1       2.473   4.422  17.648  0.00  0.00    +0.000 C 
ENDBRANCH   5   7
BRANCH   1  13
ATOM     12  C   UNL     1       5.964   3.605  13.112  0.00  0.00    +0.000 C 
ATOM     13  S   UNL     1       7.145   4.704  13.930  0.00  0.00    +0.000 S 
ENDBRANCH   1  13
BRANCH   3  14
ATOM     14  C   UNL     1       7.481   6.096  18.825  0.00  0.00    +0.000 C 
BRANCH  14  15
ATOM     15  C   UNL     1       8.441   5.233  19.642  0.00  0.00    +0.000 C 
BRANCH  15  16
ATOM     16  O   UNL     1       8.180   5.363  21.038  0.00  0.00    +0.000 OA
ATOM     17  H   UNL     1       8.848   4.796  21.475  0.00  0.00    +0.000 HD
ENDBRANCH  15  16
ENDBRANCH  14  15
ENDBRANCH   3  14
TORSDOF 5
ENDMDL
