MODEL 1
REMARK VINA RESULT:      -8.4      0.000      0.000
REMARK  Name = 
REMARK  4 active torsions:
REMARK  status: ('A' for Active; 'I' for Inactive)
REMARK    1  A    between atoms: C_1  and  C_2
REMARK    2  A    between atoms: C_2  and  C_3
REMARK    3  A    between atoms: C_15  and  N_16
REMARK    4  A    between atoms: C_15  and  C_17
REMARK                            x       y       z     vdW  Elec       q    Type
REMARK                         _______ _______ _______ _____ _____    ______ ____
ROOT
ATOM      1  C   UNL     1       1.393   2.386  21.999  0.00  0.00    +0.000 C 
ATOM      2  C   UNL     1       1.960   3.118  20.775  0.00  0.00    +0.000 C 
ATOM      3  C   UNL     1       1.140   2.737  19.516  0.00  0.00    +0.000 C 
ATOM      4  C   UNL     1       3.453   2.755  20.539  0.00  0.00    +0.000 C 
ATOM      5  N   UNL     1       4.000   3.517  19.420  0.00  0.00    +0.000 NA
ATOM      6  C   UNL     1       3.600   4.726  19.206  0.00  0.00    +0.000 C 
ATOM      7  N   UNL     1       2.601   5.335  19.990  0.00  0.00    +0.000 N 
ATOM      8  C   UNL     1       1.873   4.644  21.026  0.00  0.00    +0.000 C 
ATOM      9  C   UNL     1       2.367   6.611  19.469  0.00  0.00    +0.000 A 
ATOM     10  C   UNL     1       1.441   7.552  19.924  0.00  0.00    +0.000 A 
ATOM     11  C   UNL     1       1.355   8.773  19.240  0.00  0.00    +0.000 A 
ATOM     12  C   UNL     1       2.187   9.029  18.130  0.00  0.00    +0.000 A 
ATOM     13  C   UNL     1       3.113   8.062  17.693  0.00  0.00    +0.000 A 
ATOM     14  C   UNL     1       3.186   6.850  18.381  0.00  0.00    +0.000 A 
ATOM     15  C   UNL     1       4.068   5.645  18.101  0.00  0.00    +0.000 C 
ENDROOT
BRANCH  15  16
ATOM     16  C   UNL     1       5.552   5.965  18.252  0.00  0.00    +0.000 A 
ATOM     17  C   UNL     1       6.172   6.838  17.334  0.00  0.00    +0.000 A 
ATOM     18  C   UNL     1       7.525   7.164  17.460  0.00  0.00    +0.000 A 
ATOM     19  C   UNL     1       8.282   6.621  18.498  0.00  0.00    +0.000 A 
ATOM     20  C   UNL     1       7.689   5.749  19.412  0.00  0.00    +0.000 A 
ATOM     21  C   UNL     1       6.334   5.421  19.294  0.00  0.00    +0.000 A 
ENDBRANCH  15  16
BRANCH  15  22
ATOM     22  N   UNL     1       3.739   5.077  16.786  0.00  0.00    +0.000 NA
ATOM     23  H   UNL     1       3.225   5.784  16.210  0.00  0.00    +0.000 HD
ATOM     24  H   UNL     1       3.097   4.259  16.909  0.00  0.00    +0.000 HD
ENDBRANCH  15  22
TORSDOF 2
ENDMDL
MODEL 2
REMARK VINA RESULT:      -8.3      0.056      1.033
REMARK  Name = 
REMARK  4 active torsions:
REMARK  status: ('A' for Active; 'I' for Inactive)
REMARK    1  A    between atoms: C_1  and  C_2
REMARK    2  A    between atoms: C_2  and  C_3
REMARK    3  A    between atoms: C_15  and  N_16
REMARK    4  A    between atoms: C_15  and  C_17
REMARK                            x       y       z     vdW  Elec       q    Type
REMARK                         _______ _______ _______ _____ _____    ______ ____
ROOT
ATOM      1  C   UNL     1       1.454   2.368  22.024  0.00  0.00    +0.000 C 
ATOM      2  C   UNL     1       1.996   3.113  20.796  0.00  0.00    +0.000 C 
ATOM      3  C   UNL     1       1.159   2.735  19.548  0.00  0.00    +0.000 C 
ATOM      4  C   UNL     1       3.487   2.761  20.533  0.00  0.00    +0.000 C 
ATOM      5  N   UNL     1       4.012   3.534  19.411  0.00  0.00    +0.000 NA
ATOM      6  C   UNL     1       3.600   4.742  19.212  0.00  0.00    +0.000 C 
ATOM      7  N   UNL     1       2.610   5.339  20.016  0.00  0.00    +0.000 N 
ATOM      8  C   UNL     1       1.904   4.636  21.060  0.00  0.00    +0.000 C 
ATOM      9  C   UNL     1       2.359   6.617  19.508  0.00  0.00    +0.000 A 
ATOM     10  C   UNL     1       1.435   7.548  19.984  0.00  0.00    +0.000 A 
ATOM     11  C   UNL     1       1.330   8.774  19.311  0.00  0.00    +0.000 A 
ATOM     12  C   UNL     1       2.142   9.043  18.189  0.00  0.00    +0.000 A 
ATOM     13  C   UNL     1       3.067   8.086  17.730  0.00  0.00    +0.000 A 
ATOM     14  C   UNL     1       3.159   6.869  18.409  0.00  0.00    +0.000 A 
ATOM     15  C   UNL     1       4.044   5.672  18.106  0.00  0.00    +0.000 C 
ENDROOT
BRANCH  15  16
ATOM     16  C   UNL     1       5.529   6.001  18.235  0.00  0.00    +0.000 A 
ATOM     17  C   UNL     1       6.268   5.465  19.311  0.00  0.00    +0.000 A 
ATOM     18  C   UNL     1       7.633   5.734  19.442  0.00  0.00    +0.000 A 
ATOM     19  C   UNL     1       8.280   6.545  18.510  0.00  0.00    +0.000 A 
ATOM     20  C   UNL     1       7.564   7.090  17.443  0.00  0.00    +0.000 A 
ATOM     21  C   UNL     1       6.198   6.822  17.303  0.00  0.00    +0.000 A 
ENDBRANCH  15  16
BRANCH  15  22
ATOM     22  N   UNL     1       3.697   5.111  16.793  0.00  0.00    +0.000 NA
ATOM     23  H   UNL     1       3.909   4.086  16.774  0.00  0.00    +0.000 HD
ATOM     24  H   UNL     1       4.288   5.559  16.053  0.00  0.00    +0.000 HD
ENDBRANCH  15  22
TORSDOF 2
ENDMDL
MODEL 3
REMARK VINA RESULT:      -7.9      1.386      5.196
REMARK  Name = 
REMARK  4 active torsions:
REMARK  status: ('A' for Active; 'I' for Inactive)
REMARK    1  A    between atoms: C_1  and  C_2
REMARK    2  A    between atoms: C_2  and  C_3
REMARK    3  A    between atoms: C_15  and  N_16
REMARK    4  A    between atoms: C_15  and  C_17
REMARK                            x       y       z     vdW  Elec       q    Type
REMARK                         _______ _______ _______ _____ _____    ______ ____
ROOT
ATOM      1  C   UNL     1       7.728   4.639  17.483  0.00  0.00    +0.000 C 
ATOM      2  C   UNL     1       6.207   4.815  17.577  0.00  0.00    +0.000 C 
ATOM      3  C   UNL     1       5.518   3.987  16.463  0.00  0.00    +0.000 C 
ATOM      4  C   UNL     1       5.799   6.308  17.426  0.00  0.00    +0.000 C 
ATOM      5  N   UNL     1       4.359   6.472  17.595  0.00  0.00    +0.000 NA
ATOM      6  C   UNL     1       3.717   5.720  18.427  0.00  0.00    +0.000 C 
ATOM      7  N   UNL     1       4.353   4.696  19.155  0.00  0.00    +0.000 N 
ATOM      8  C   UNL     1       5.736   4.330  18.971  0.00  0.00    +0.000 C 
ATOM      9  C   UNL     1       3.379   4.044  19.918  0.00  0.00    +0.000 A 
ATOM     10  C   UNL     1       3.562   2.954  20.769  0.00  0.00    +0.000 A 
ATOM     11  C   UNL     1       2.437   2.438  21.430  0.00  0.00    +0.000 A 
ATOM     12  C   UNL     1       1.167   3.017  21.231  0.00  0.00    +0.000 A 
ATOM     13  C   UNL     1       1.010   4.117  20.366  0.00  0.00    +0.000 A 
ATOM     14  C   UNL     1       2.137   4.619  19.714  0.00  0.00    +0.000 A 
ATOM     15  C   UNL     1       2.235   5.765  18.721  0.00  0.00    +0.000 C 
ENDROOT
BRANCH  15  16
ATOM     16  C   UNL     1       1.844   7.103  19.340  0.00  0.00    +0.000 A 
ATOM     17  C   UNL     1       1.663   8.227  18.508  0.00  0.00    +0.000 A 
ATOM     18  C   UNL     1       1.284   9.460  19.046  0.00  0.00    +0.000 A 
ATOM     19  C   UNL     1       1.089   9.594  20.421  0.00  0.00    +0.000 A 
ATOM     20  C   UNL     1       1.271   8.495  21.262  0.00  0.00    +0.000 A 
ATOM     21  C   UNL     1       1.646   7.257  20.729  0.00  0.00    +0.000 A 
ENDBRANCH  15  16
BRANCH  15  22
ATOM     22  N   UNL     1       1.462   5.449  17.512  0.00  0.00    +0.000 NA
ATOM     23  H   UNL     1       1.786   6.045  16.714  0.00  0.00    +0.000 HD
ATOM     24  H   UNL     1       0.453   5.674  17.672  0.00  0.00    +0.000 HD
ENDBRANCH  15  22
TORSDOF 2
ENDMDL
MODEL 4
REMARK VINA RESULT:      -7.8      1.402      5.296
REMARK  Name = 
REMARK  4 active torsions:
REMARK  status: ('A' for Active; 'I' for Inactive)
REMARK    1  A    between atoms: C_1  and  C_2
REMARK    2  A    between atoms: C_2  and  C_3
REMARK    3  A    between atoms: C_15  and  N_16
REMARK    4  A    between atoms: C_15  and  C_17
REMARK                            x       y       z     vdW  Elec       q    Type
REMARK                         _______ _______ _______ _____ _____    ______ ____
ROOT
ATOM      1  C   UNL     1       7.680   4.633  17.366  0.00  0.00    +0.000 C 
ATOM      2  C   UNL     1       6.159   4.800  17.485  0.00  0.00    +0.000 C 
ATOM      3  C   UNL     1       5.457   3.950  16.396  0.00  0.00    +0.000 C 
ATOM      4  C   UNL     1       5.737   6.287  17.319  0.00  0.00    +0.000 C 
ATOM      5  N   UNL     1       4.299   6.443  17.511  0.00  0.00    +0.000 NA
ATOM      6  C   UNL     1       3.678   5.699  18.366  0.00  0.00    +0.000 C 
ATOM      7  N   UNL     1       4.334   4.691  19.098  0.00  0.00    +0.000 N 
ATOM      8  C   UNL     1       5.717   4.333  18.894  0.00  0.00    +0.000 C 
ATOM      9  C   UNL     1       3.379   4.045  19.888  0.00  0.00    +0.000 A 
ATOM     10  C   UNL     1       3.586   2.969  20.752  0.00  0.00    +0.000 A 
ATOM     11  C   UNL     1       2.477   2.455  21.441  0.00  0.00    +0.000 A 
ATOM     12  C   UNL     1       1.199   3.022  21.256  0.00  0.00    +0.000 A 
ATOM     13  C   UNL     1       1.018   4.107  20.378  0.00  0.00    +0.000 A 
ATOM     14  C   UNL     1       2.130   4.607  19.697  0.00  0.00    +0.000 A 
ATOM     15  C   UNL     1       2.202   5.738  18.685  0.00  0.00    +0.000 C 
ENDROOT
BRANCH  15  16
ATOM     16  C   UNL     1       1.811   7.083  19.291  0.00  0.00    +0.000 A 
ATOM     17  C   UNL     1       1.634   7.191  20.686  0.00  0.00    +0.000 A 
ATOM     18  C   UNL     1       1.296   8.415  21.270  0.00  0.00    +0.000 A 
ATOM     19  C   UNL     1       1.122   9.547  20.473  0.00  0.00    +0.000 A 
ATOM     20  C   UNL     1       1.285   9.458  19.090  0.00  0.00    +0.000 A 
ATOM     21  C   UNL     1       1.627   8.236  18.499  0.00  0.00    +0.000 A 
ENDBRANCH  15  16
BRANCH  15  22
ATOM     22  N   UNL     1       1.410   5.397  17.495  0.00  0.00    +0.000 NA
ATOM     23  H   UNL     1       1.202   4.371  17.485  0.00  0.00    +0.000 HD
ATOM     24  H   UNL     1       1.966   5.606  16.633  0.00  0.00    +0.000 HD
ENDBRANCH  15  22
TORSDOF 2
ENDMDL
MODEL 5
REMARK VINA RESULT:      -7.8      1.506      5.241
REMARK  Name = 
REMARK  4 active torsions:
REMARK  status: ('A' for Active; 'I' for Inactive)
REMARK    1  A    between atoms: C_1  and  C_2
REMARK    2  A    between atoms: C_2  and  C_3
REMARK    3  A    between atoms: C_15  and  N_16
REMARK    4  A    between atoms: C_15  and  C_17
REMARK                            x       y       z     vdW  Elec       q    Type
REMARK                         _______ _______ _______ _____ _____    ______ ____
ROOT
ATOM      1  C   UNL     1       6.937   5.210  14.476  0.00  0.00    +0.000 C 
ATOM      2  C   UNL     1       6.287   5.273  15.864  0.00  0.00    +0.000 C 
ATOM      3  C   UNL     1       7.289   5.876  16.880  0.00  0.00    +0.000 C 
ATOM      4  C   UNL     1       5.856   3.861  16.352  0.00  0.00    +0.000 C 
ATOM      5  N   UNL     1       5.170   3.944  17.638  0.00  0.00    +0.000 NA
ATOM      6  C   UNL     1       4.422   4.963  17.905  0.00  0.00    +0.000 C 
ATOM      7  N   UNL     1       4.279   6.042  17.012  0.00  0.00    +0.000 N 
ATOM      8  C   UNL     1       5.017   6.156  15.778  0.00  0.00    +0.000 C 
ATOM      9  C   UNL     1       3.452   6.993  17.618  0.00  0.00    +0.000 A 
ATOM     10  C   UNL     1       3.064   8.229  17.098  0.00  0.00    +0.000 A 
ATOM     11  C   UNL     1       2.238   9.044  17.886  0.00  0.00    +0.000 A 
ATOM     12  C   UNL     1       1.821   8.613  19.162  0.00  0.00    +0.000 A 
ATOM     13  C   UNL     1       2.227   7.361  19.663  0.00  0.00    +0.000 A 
ATOM     14  C   UNL     1       3.050   6.561  18.868  0.00  0.00    +0.000 A 
ATOM     15  C   UNL     1       3.644   5.197  19.179  0.00  0.00    +0.000 C 
ENDROOT
BRANCH  15  16
ATOM     16  C   UNL     1       2.573   4.127  19.367  0.00  0.00    +0.000 A 
ATOM     17  C   UNL     1       2.377   3.556  20.642  0.00  0.00    +0.000 A 
ATOM     18  C   UNL     1       1.389   2.589  20.847  0.00  0.00    +0.000 A 
ATOM     19  C   UNL     1       0.588   2.170  19.785  0.00  0.00    +0.000 A 
ATOM     20  C   UNL     1       0.772   2.718  18.514  0.00  0.00    +0.000 A 
ATOM     21  C   UNL     1       1.756   3.690  18.303  0.00  0.00    +0.000 A 
ENDBRANCH  15  16
BRANCH  15  22
ATOM     22  N   UNL     1       4.556   5.298  20.327  0.00  0.00    +0.000 NA
ATOM     23  H   UNL     1       5.444   5.772  20.038  0.00  0.00    +0.000 HD
ATOM     24  H   UNL     1       4.815   4.337  20.654  0.00  0.00    +0.000 HD
ENDBRANCH  15  22
TORSDOF 2
ENDMDL
MODEL 6
REMARK VINA RESULT:      -7.7      2.399      4.288
REMARK  Name = 
REMARK  4 active torsions:
REMARK  status: ('A' for Active; 'I' for Inactive)
REMARK    1  A    between atoms: C_1  and  C_2
REMARK    2  A    between atoms: C_2  and  C_3
REMARK    3  A    between atoms: C_15  and  N_16
REMARK    4  A    between atoms: C_15  and  C_17
REMARK                            x       y       z     vdW  Elec       q    Type
REMARK                         _______ _______ _______ _____ _____    ______ ____
ROOT
ATOM      1  C   UNL     1       1.515   3.452  19.106  0.00  0.00    +0.000 C 
ATOM      2  C   UNL     1       3.004   3.638  18.787  0.00  0.00    +0.000 C 
ATOM      3  C   UNL     1       3.749   2.292  18.982  0.00  0.00    +0.000 C 
ATOM      4  C   UNL     1       3.651   4.713  19.705  0.00  0.00    +0.000 C 
ATOM      5  N   UNL     1       5.046   4.935  19.339  0.00  0.00    +0.000 NA
ATOM      6  C   UNL     1       5.410   4.855  18.102  0.00  0.00    +0.000 C 
ATOM      7  N   UNL     1       4.509   4.506  17.078  0.00  0.00    +0.000 N 
ATOM      8  C   UNL     1       3.141   4.116  17.320  0.00  0.00    +0.000 C 
ATOM      9  C   UNL     1       5.224   4.460  15.877  0.00  0.00    +0.000 A 
ATOM     10  C   UNL     1       4.730   4.132  14.613  0.00  0.00    +0.000 A 
ATOM     11  C   UNL     1       5.630   4.128  13.536  0.00  0.00    +0.000 A 
ATOM     12  C   UNL     1       6.988   4.449  13.742  0.00  0.00    +0.000 A 
ATOM     13  C   UNL     1       7.459   4.777  15.027  0.00  0.00    +0.000 A 
ATOM     14  C   UNL     1       6.553   4.775  16.090  0.00  0.00    +0.000 A 
ATOM     15  C   UNL     1       6.806   5.061  17.560  0.00  0.00    +0.000 C 
ENDROOT
BRANCH  15  16
ATOM     16  C   UNL     1       7.277   6.492  17.800  0.00  0.00    +0.000 A 
ATOM     17  C   UNL     1       8.259   6.746  18.780  0.00  0.00    +0.000 A 
ATOM     18  C   UNL     1       8.723   8.044  19.006  0.00  0.00    +0.000 A 
ATOM     19  C   UNL     1       8.211   9.110  18.266  0.00  0.00    +0.000 A 
ATOM     20  C   UNL     1       7.233   8.880  17.297  0.00  0.00    +0.000 A 
ATOM     21  C   UNL     1       6.766   7.582  17.063  0.00  0.00    +0.000 A 
ENDBRANCH  15  16
BRANCH  15  22
ATOM     22  N   UNL     1       7.725   4.058  18.116  0.00  0.00    +0.000 NA
ATOM     23  H   UNL     1       7.677   3.178  17.551  0.00  0.00    +0.000 HD
ATOM     24  H   UNL     1       7.430   3.813  19.090  0.00  0.00    +0.000 HD
ENDBRANCH  15  22
TORSDOF 2
ENDMDL
MODEL 7
REMARK VINA RESULT:      -7.7      1.499      5.148
REMARK  Name = 
REMARK  4 active torsions:
REMARK  status: ('A' for Active; 'I' for Inactive)
REMARK    1  A    between atoms: C_1  and  C_2
REMARK    2  A    between atoms: C_2  and  C_3
REMARK    3  A    between atoms: C_15  and  N_16
REMARK    4  A    between atoms: C_15  and  C_17
REMARK                            x       y       z     vdW  Elec       q    Type
REMARK                         _______ _______ _______ _____ _____    ______ ____
ROOT
ATOM      1  C   UNL     1       6.924   5.300  14.456  0.00  0.00    +0.000 C 
ATOM      2  C   UNL     1       6.283   5.350  15.850  0.00  0.00    +0.000 C 
ATOM      3  C   UNL     1       7.287   5.960  16.861  0.00  0.00    +0.000 C 
ATOM      4  C   UNL     1       5.871   3.932  16.335  0.00  0.00    +0.000 C 
ATOM      5  N   UNL     1       5.194   4.003  17.626  0.00  0.00    +0.000 NA
ATOM      6  C   UNL     1       4.438   5.013  17.903  0.00  0.00    +0.000 C 
ATOM      7  N   UNL     1       4.277   6.094  17.016  0.00  0.00    +0.000 N 
ATOM      8  C   UNL     1       5.005   6.221  15.777  0.00  0.00    +0.000 C 
ATOM      9  C   UNL     1       3.444   7.034  17.632  0.00  0.00    +0.000 A 
ATOM     10  C   UNL     1       3.039   8.267  17.121  0.00  0.00    +0.000 A 
ATOM     11  C   UNL     1       2.211   9.071  17.919  0.00  0.00    +0.000 A 
ATOM     12  C   UNL     1       1.808   8.629  19.196  0.00  0.00    +0.000 A 
ATOM     13  C   UNL     1       2.231   7.380  19.688  0.00  0.00    +0.000 A 
ATOM     14  C   UNL     1       3.056   6.592  18.884  0.00  0.00    +0.000 A 
ATOM     15  C   UNL     1       3.667   5.233  19.184  0.00  0.00    +0.000 C 
ENDROOT
BRANCH  15  16
ATOM     16  C   UNL     1       2.608   4.151  19.375  0.00  0.00    +0.000 A 
ATOM     17  C   UNL     1       1.832   3.737  18.273  0.00  0.00    +0.000 A 
ATOM     18  C   UNL     1       0.869   2.734  18.415  0.00  0.00    +0.000 A 
ATOM     19  C   UNL     1       0.660   2.134  19.657  0.00  0.00    +0.000 A 
ATOM     20  C   UNL     1       1.413   2.536  20.761  0.00  0.00    +0.000 A 
ATOM     21  C   UNL     1       2.381   3.538  20.626  0.00  0.00    +0.000 A 
ENDBRANCH  15  16
BRANCH  15  22
ATOM     22  N   UNL     1       4.587   5.338  20.326  0.00  0.00    +0.000 NA
ATOM     23  H   UNL     1       4.075   5.139  21.217  0.00  0.00    +0.000 HD
ATOM     24  H   UNL     1       4.949   6.318  20.394  0.00  0.00    +0.000 HD
ENDBRANCH  15  22
TORSDOF 2
ENDMDL
MODEL 8
REMARK VINA RESULT:      -7.6      2.427      4.204
REMARK  Name = 
REMARK  4 active torsions:
REMARK  status: ('A' for Active; 'I' for Inactive)
REMARK    1  A    between atoms: C_1  and  C_2
REMARK    2  A    between atoms: C_2  and  C_3
REMARK    3  A    between atoms: C_15  and  N_16
REMARK    4  A    between atoms: C_15  and  C_17
REMARK                            x       y       z     vdW  Elec       q    Type
REMARK                         _______ _______ _______ _____ _____    ______ ____
ROOT
ATOM      1  C   UNL     1       1.560   3.380  19.105  0.00  0.00    +0.000 C 
ATOM      2  C   UNL     1       3.046   3.569  18.776  0.00  0.00    +0.000 C 
ATOM      3  C   UNL     1       3.793   2.222  18.949  0.00  0.00    +0.000 C 
ATOM      4  C   UNL     1       3.700   4.635  19.700  0.00  0.00    +0.000 C 
ATOM      5  N   UNL     1       5.092   4.862  19.326  0.00  0.00    +0.000 NA
ATOM      6  C   UNL     1       5.446   4.796  18.085  0.00  0.00    +0.000 C 
ATOM      7  N   UNL     1       4.537   4.458  17.064  0.00  0.00    +0.000 N 
ATOM      8  C   UNL     1       3.172   4.064  17.313  0.00  0.00    +0.000 C 
ATOM      9  C   UNL     1       5.242   4.426  15.857  0.00  0.00    +0.000 A 
ATOM     10  C   UNL     1       4.739   4.112  14.594  0.00  0.00    +0.000 A 
ATOM     11  C   UNL     1       5.630   4.121  13.510  0.00  0.00    +0.000 A 
ATOM     12  C   UNL     1       6.989   4.441  13.708  0.00  0.00    +0.000 A 
ATOM     13  C   UNL     1       7.470   4.754  14.994  0.00  0.00    +0.000 A 
ATOM     14  C   UNL     1       6.573   4.739  16.063  0.00  0.00    +0.000 A 
ATOM     15  C   UNL     1       6.837   5.009  17.535  0.00  0.00    +0.000 C 
ENDROOT
BRANCH  15  16
ATOM     16  C   UNL     1       7.309   6.438  17.787  0.00  0.00    +0.000 A 
ATOM     17  C   UNL     1       6.741   7.497  17.049  0.00  0.00    +0.000 A 
ATOM     18  C   UNL     1       7.141   8.818  17.274  0.00  0.00    +0.000 A 
ATOM     19  C   UNL     1       8.116   9.102  18.230  0.00  0.00    +0.000 A 
ATOM     20  C   UNL     1       8.695   8.066  18.964  0.00  0.00    +0.000 A 
ATOM     21  C   UNL     1       8.297   6.742  18.748  0.00  0.00    +0.000 A 
ENDBRANCH  15  16
BRANCH  15  22
ATOM     22  N   UNL     1       7.762   4.000  18.072  0.00  0.00    +0.000 NA
ATOM     23  H   UNL     1       7.225   3.168  18.411  0.00  0.00    +0.000 HD
ATOM     24  H   UNL     1       8.269   4.395  18.898  0.00  0.00    +0.000 HD
ENDBRANCH  15  22
TORSDOF 2
ENDMDL
MODEL 9
REMARK VINA RESULT:      -7.3      2.627      4.334
REMARK  Name = 
REMARK  4 active torsions:
REMARK  status: ('A' for Active; 'I' for Inactive)
REMARK    1  A    between atoms: C_1  and  C_2
REMARK    2  A    between atoms: C_2  and  C_3
REMARK    3  A    between atoms: C_15  and  N_16
REMARK    4  A    between atoms: C_15  and  C_17
REMARK                            x       y       z     vdW  Elec       q    Type
REMARK                         _______ _______ _______ _____ _____    ______ ____
ROOT
ATOM      1  C   UNL     1       2.173   2.260  19.770  0.00  0.00    +0.000 C 
ATOM      2  C   UNL     1       2.804   3.348  18.891  0.00  0.00    +0.000 C 
ATOM      3  C   UNL     1       2.094   4.701  19.150  0.00  0.00    +0.000 C 
ATOM      4  C   UNL     1       2.688   2.995  17.381  0.00  0.00    +0.000 C 
ATOM      5  N   UNL     1       3.360   3.998  16.561  0.00  0.00    +0.000 NA
ATOM      6  C   UNL     1       4.429   4.577  16.997  0.00  0.00    +0.000 C 
ATOM      7  N   UNL     1       4.957   4.312  18.275  0.00  0.00    +0.000 N 
ATOM      8  C   UNL     1       4.309   3.458  19.241  0.00  0.00    +0.000 C 
ATOM      9  C   UNL     1       6.076   5.131  18.455  0.00  0.00    +0.000 A 
ATOM     10  C   UNL     1       6.889   5.213  19.586  0.00  0.00    +0.000 A 
ATOM     11  C   UNL     1       7.957   6.122  19.564  0.00  0.00    +0.000 A 
ATOM     12  C   UNL     1       8.190   6.919  18.424  0.00  0.00    +0.000 A 
ATOM     13  C   UNL     1       7.355   6.815  17.296  0.00  0.00    +0.000 A 
ATOM     14  C   UNL     1       6.294   5.908  17.333  0.00  0.00    +0.000 A 
ATOM     15  C   UNL     1       5.242   5.626  16.274  0.00  0.00    +0.000 C 
ENDROOT
BRANCH  15  16
ATOM     16  C   UNL     1       5.846   5.059  14.993  0.00  0.00    +0.000 A 
ATOM     17  C   UNL     1       5.101   4.146  14.218  0.00  0.00    +0.000 A 
ATOM     18  C   UNL     1       5.623   3.626  13.030  0.00  0.00    +0.000 A 
ATOM     19  C   UNL     1       6.895   4.001  12.600  0.00  0.00    +0.000 A 
ATOM     20  C   UNL     1       7.651   4.898  13.357  0.00  0.00    +0.000 A 
ATOM     21  C   UNL     1       7.134   5.425  14.546  0.00  0.00    +0.000 A 
ENDBRANCH  15  16
BRANCH  15  22
ATOM     22  N   UNL     1       4.432   6.829  16.037  0.00  0.00    +0.000 NA
ATOM     23  H   UNL     1       4.629   7.544  16.777  0.00  0.00    +0.000 HD
ATOM     24  H   UNL     1       3.416   6.588  16.108  0.00  0.00    +0.000 HD
ENDBRANCH  15  22
TORSDOF 2
ENDMDL
