MODEL 1
REMARK VINA RESULT:      -7.1      0.000      0.000
REMARK  Name = 
REMARK  10 active torsions:
REMARK  status: ('A' for Active; 'I' for Inactive)
REMARK    1  A    between atoms: C_1  and  C_2
REMARK    2  A    between atoms: C_2  and  C_3
REMARK    3  A    between atoms: C_3  and  C_4
REMARK    4  A    between atoms: C_4  and  C_5
REMARK    5  A    between atoms: C_5  and  N_6
REMARK    6  A    between atoms: C_8  and  C_9
REMARK    7  A    between atoms: N_11  and  C_12
REMARK    8  A    between atoms: C_12  and  C_13
REMARK    9  A    between atoms: C_12  and  C_14
REMARK   10  A    between atoms: C_18  and  C_19
REMARK                            x       y       z     vdW  Elec       q    Type
REMARK                         _______ _______ _______ _____ _____    ______ ____
ROOT
ATOM      1  N   UNL     1       4.553   3.884  17.311  0.00  0.00    +0.000 N 
ATOM      2  C   UNL     1       4.911   3.823  15.958  0.00  0.00    +0.000 A 
ATOM      3  C   UNL     1       5.898   4.521  15.366  0.00  0.00    +0.000 A 
ATOM      4  C   UNL     1       6.653   5.451  16.240  0.00  0.00    +0.000 A 
ATOM      5  O   UNL     1       7.572   6.152  15.819  0.00  0.00    +0.000 OA
ATOM      6  C   UNL     1       6.273   5.526  17.670  0.00  0.00    +0.000 A 
ATOM      7  C   UNL     1       5.272   4.763  18.147  0.00  0.00    +0.000 A 
ATOM      8  C   UNL     1       4.937   4.856  19.615  0.00  0.00    +0.000 C 
ENDROOT
BRANCH   3   9
ATOM      9  C   UNL     1       6.188   4.304  13.917  0.00  0.00    +0.000 C 
ATOM     10  O   UNL     1       7.207   4.748  13.394  0.00  0.00    +0.000 OA
ATOM     11  N   UNL     1       5.236   3.598  13.219  0.00  0.00    +0.000 N 
ATOM     12  H   UNL     1       4.458   3.196  13.744  0.00  0.00    +0.000 HD
BRANCH  11  13
ATOM     13  C   UNL     1       5.369   3.264  11.808  0.00  0.00    +0.000 C 
ATOM     14  C   UNL     1       6.036   1.900  11.628  0.00  0.00    +0.000 C 
ATOM     15  C   UNL     1       4.005   3.281  11.122  0.00  0.00    +0.000 C 
ENDBRANCH  11  13
ENDBRANCH   3   9
BRANCH   1  16
ATOM     16  C   UNL     1       3.488   2.988  17.825  0.00  0.00    +0.000 C 
BRANCH  16  17
ATOM     17  C   UNL     1       2.128   3.695  17.868  0.00  0.00    +0.000 C 
BRANCH  17  18
ATOM     18  C   UNL     1       1.139   2.956  18.779  0.00  0.00    +0.000 C 
BRANCH  18  20
ATOM     19  C   UNL     1       1.796   3.180  21.213  0.00  0.00    +0.000 C 
ATOM     20  C   UNL     1       0.917   3.712  20.090  0.00  0.00    +0.000 C 
ENDBRANCH  18  20
ENDBRANCH  17  18
ENDBRANCH  16  17
ENDBRANCH   1  16
TORSDOF 6
ENDMDL
MODEL 2
REMARK VINA RESULT:      -7.1      1.523      1.786
REMARK  Name = 
REMARK  10 active torsions:
REMARK  status: ('A' for Active; 'I' for Inactive)
REMARK    1  A    between atoms: C_1  and  C_2
REMARK    2  A    between atoms: C_2  and  C_3
REMARK    3  A    between atoms: C_3  and  C_4
REMARK    4  A    between atoms: C_4  and  C_5
REMARK    5  A    between atoms: C_5  and  N_6
REMARK    6  A    between atoms: C_8  and  C_9
REMARK    7  A    between atoms: N_11  and  C_12
REMARK    8  A    between atoms: C_12  and  C_13
REMARK    9  A    between atoms: C_12  and  C_14
REMARK   10  A    between atoms: C_18  and  C_19
REMARK                            x       y       z     vdW  Elec       q    Type
REMARK                         _______ _______ _______ _____ _____    ______ ____
ROOT
ATOM      1  N   UNL     1       3.259   4.763  17.356  0.00  0.00    +0.000 N 
ATOM      2  C   UNL     1       4.231   4.410  16.411  0.00  0.00    +0.000 A 
ATOM      3  C   UNL     1       5.334   5.118  16.104  0.00  0.00    +0.000 A 
ATOM      4  C   UNL     1       5.508   6.398  16.831  0.00  0.00    +0.000 A 
ATOM      5  O   UNL     1       6.469   7.141  16.636  0.00  0.00    +0.000 OA
ATOM      6  C   UNL     1       4.479   6.781  17.825  0.00  0.00    +0.000 A 
ATOM      7  C   UNL     1       3.424   5.977  18.054  0.00  0.00    +0.000 A 
ATOM      8  C   UNL     1       2.414   6.397  19.093  0.00  0.00    +0.000 C 
ENDROOT
BRANCH   3   9
ATOM      9  C   UNL     1       6.302   4.577  15.104  0.00  0.00    +0.000 C 
ATOM     10  O   UNL     1       7.502   4.489  15.357  0.00  0.00    +0.000 OA
ATOM     11  N   UNL     1       5.764   4.208  13.894  0.00  0.00    +0.000 N 
ATOM     12  H   UNL     1       4.748   4.239  13.792  0.00  0.00    +0.000 HD
BRANCH  11  13
ATOM     13  C   UNL     1       6.553   3.630  12.816  0.00  0.00    +0.000 C 
ATOM     14  C   UNL     1       5.675   2.811  11.870  0.00  0.00    +0.000 C 
ATOM     15  C   UNL     1       7.286   4.724  12.042  0.00  0.00    +0.000 C 
ENDBRANCH  11  13
ENDBRANCH   3   9
BRANCH   1  16
ATOM     16  C   UNL     1       2.138   3.831  17.634  0.00  0.00    +0.000 C 
BRANCH  16  17
ATOM     17  C   UNL     1       2.641   2.409  17.907  0.00  0.00    +0.000 C 
BRANCH  17  18
ATOM     18  C   UNL     1       2.089   1.861  19.230  0.00  0.00    +0.000 C 
BRANCH  18  20
ATOM     19  C   UNL     1       1.405   2.843  21.460  0.00  0.00    +0.000 C 
ATOM     20  C   UNL     1       1.232   2.905  19.950  0.00  0.00    +0.000 C 
ENDBRANCH  18  20
ENDBRANCH  17  18
ENDBRANCH  16  17
ENDBRANCH   1  16
TORSDOF 6
ENDMDL
MODEL 3
REMARK VINA RESULT:      -7.0      1.468      1.749
REMARK  Name = 
REMARK  10 active torsions:
REMARK  status: ('A' for Active; 'I' for Inactive)
REMARK    1  A    between atoms: C_1  and  C_2
REMARK    2  A    between atoms: C_2  and  C_3
REMARK    3  A    between atoms: C_3  and  C_4
REMARK    4  A    between atoms: C_4  and  C_5
REMARK    5  A    between atoms: C_5  and  N_6
REMARK    6  A    between atoms: C_8  and  C_9
REMARK    7  A    between atoms: N_11  and  C_12
REMARK    8  A    between atoms: C_12  and  C_13
REMARK    9  A    between atoms: C_12  and  C_14
REMARK   10  A    between atoms: C_18  and  C_19
REMARK                            x       y       z     vdW  Elec       q    Type
REMARK                         _______ _______ _______ _____ _____    ______ ____
ROOT
ATOM      1  N   UNL     1       4.529   4.335  17.981  0.00  0.00    +0.000 N 
ATOM      2  C   UNL     1       5.293   4.123  16.826  0.00  0.00    +0.000 A 
ATOM      3  C   UNL     1       5.593   5.045  15.892  0.00  0.00    +0.000 A 
ATOM      4  C   UNL     1       5.038   6.401  16.115  0.00  0.00    +0.000 A 
ATOM      5  O   UNL     1       5.232   7.329  15.332  0.00  0.00    +0.000 OA
ATOM      6  C   UNL     1       4.223   6.629  17.330  0.00  0.00    +0.000 A 
ATOM      7  C   UNL     1       4.005   5.625  18.200  0.00  0.00    +0.000 A 
ATOM      8  C   UNL     1       3.188   5.911  19.436  0.00  0.00    +0.000 C 
ENDROOT
BRANCH   3   9
ATOM      9  C   UNL     1       6.465   4.669  14.739  0.00  0.00    +0.000 C 
ATOM     10  O   UNL     1       7.639   5.027  14.679  0.00  0.00    +0.000 OA
ATOM     11  N   UNL     1       5.861   3.919  13.757  0.00  0.00    +0.000 N 
ATOM     12  H   UNL     1       4.906   3.597  13.920  0.00  0.00    +0.000 HD
BRANCH  11  13
ATOM     13  C   UNL     1       6.567   3.435  12.579  0.00  0.00    +0.000 C 
ATOM     14  C   UNL     1       5.645   2.601  11.690  0.00  0.00    +0.000 C 
ATOM     15  C   UNL     1       7.150   4.603  11.785  0.00  0.00    +0.000 C 
ENDBRANCH  11  13
ENDBRANCH   3   9
BRANCH   1  16
ATOM     16  C   UNL     1       4.355   3.228  18.954  0.00  0.00    +0.000 C 
BRANCH  16  17
ATOM     17  C   UNL     1       3.503   2.094  18.372  0.00  0.00    +0.000 C 
BRANCH  17  18
ATOM     18  C   UNL     1       2.120   2.596  17.938  0.00  0.00    +0.000 C 
BRANCH  18  20
ATOM     19  C   UNL     1       0.797   3.249  19.994  0.00  0.00    +0.000 C 
ATOM     20  C   UNL     1       1.038   2.181  18.936  0.00  0.00    +0.000 C 
ENDBRANCH  18  20
ENDBRANCH  17  18
ENDBRANCH  16  17
ENDBRANCH   1  16
TORSDOF 6
ENDMDL
MODEL 4
REMARK VINA RESULT:      -6.8      2.250      6.327
REMARK  Name = 
REMARK  10 active torsions:
REMARK  status: ('A' for Active; 'I' for Inactive)
REMARK    1  A    between atoms: C_1  and  C_2
REMARK    2  A    between atoms: C_2  and  C_3
REMARK    3  A    between atoms: C_3  and  C_4
REMARK    4  A    between atoms: C_4  and  C_5
REMARK    5  A    between atoms: C_5  and  N_6
REMARK    6  A    between atoms: C_8  and  C_9
REMARK    7  A    between atoms: N_11  and  C_12
REMARK    8  A    between atoms: C_12  and  C_13
REMARK    9  A    between atoms: C_12  and  C_14
REMARK   10  A    between atoms: C_18  and  C_19
REMARK                            x       y       z     vdW  Elec       q    Type
REMARK                         _______ _______ _______ _____ _____    ______ ____
ROOT
ATOM      1  N   UNL     1       6.037   5.029  16.203  0.00  0.00    +0.000 N 
ATOM      2  C   UNL     1       5.130   4.075  16.685  0.00  0.00    +0.000 A 
ATOM      3  C   UNL     1       4.693   3.966  17.953  0.00  0.00    +0.000 A 
ATOM      4  C   UNL     1       5.250   4.941  18.921  0.00  0.00    +0.000 A 
ATOM      5  O   UNL     1       4.939   4.941  20.110  0.00  0.00    +0.000 OA
ATOM      6  C   UNL     1       6.216   5.946  18.419  0.00  0.00    +0.000 A 
ATOM      7  C   UNL     1       6.564   5.963  17.118  0.00  0.00    +0.000 A 
ATOM      8  C   UNL     1       7.532   7.020  16.648  0.00  0.00    +0.000 C 
ENDROOT
BRANCH   3   9
ATOM      9  C   UNL     1       3.683   2.920  18.297  0.00  0.00    +0.000 C 
ATOM     10  O   UNL     1       3.661   1.836  17.719  0.00  0.00    +0.000 OA
ATOM     11  N   UNL     1       2.785   3.262  19.280  0.00  0.00    +0.000 N 
ATOM     12  H   UNL     1       2.920   4.151  19.765  0.00  0.00    +0.000 HD
BRANCH  11  13
ATOM     13  C   UNL     1       1.754   2.355  19.766  0.00  0.00    +0.000 C 
ATOM     14  C   UNL     1       1.362   2.691  21.204  0.00  0.00    +0.000 C 
ATOM     15  C   UNL     1       0.527   2.402  18.858  0.00  0.00    +0.000 C 
ENDBRANCH  11  13
ENDBRANCH   3   9
BRANCH   1  16
ATOM     16  C   UNL     1       6.357   5.064  14.754  0.00  0.00    +0.000 C 
BRANCH  16  17
ATOM     17  C   UNL     1       6.165   3.691  14.100  0.00  0.00    +0.000 C 
BRANCH  17  18
ATOM     18  C   UNL     1       6.321   3.768  12.576  0.00  0.00    +0.000 C 
BRANCH  18  20
ATOM     19  C   UNL     1       4.180   3.278  11.319  0.00  0.00    +0.000 C 
ATOM     20  C   UNL     1       5.475   2.703  11.875  0.00  0.00    +0.000 C 
ENDBRANCH  18  20
ENDBRANCH  17  18
ENDBRANCH  16  17
ENDBRANCH   1  16
TORSDOF 6
ENDMDL
MODEL 5
REMARK VINA RESULT:      -6.7      0.927      1.126
REMARK  Name = 
REMARK  10 active torsions:
REMARK  status: ('A' for Active; 'I' for Inactive)
REMARK    1  A    between atoms: C_1  and  C_2
REMARK    2  A    between atoms: C_2  and  C_3
REMARK    3  A    between atoms: C_3  and  C_4
REMARK    4  A    between atoms: C_4  and  C_5
REMARK    5  A    between atoms: C_5  and  N_6
REMARK    6  A    between atoms: C_8  and  C_9
REMARK    7  A    between atoms: N_11  and  C_12
REMARK    8  A    between atoms: C_12  and  C_13
REMARK    9  A    between atoms: C_12  and  C_14
REMARK   10  A    between atoms: C_18  and  C_19
REMARK                            x       y       z     vdW  Elec       q    Type
REMARK                         _______ _______ _______ _____ _____    ______ ____
ROOT
ATOM      1  N   UNL     1       4.553   4.102  17.492  0.00  0.00    +0.000 N 
ATOM      2  C   UNL     1       5.214   4.036  16.259  0.00  0.00    +0.000 A 
ATOM      3  C   UNL     1       6.207   4.846  15.846  0.00  0.00    +0.000 A 
ATOM      4  C   UNL     1       6.611   5.914  16.792  0.00  0.00    +0.000 A 
ATOM      5  O   UNL     1       7.499   6.724  16.530  0.00  0.00    +0.000 OA
ATOM      6  C   UNL     1       5.909   5.994  18.094  0.00  0.00    +0.000 A 
ATOM      7  C   UNL     1       4.938   5.112  18.397  0.00  0.00    +0.000 A 
ATOM      8  C   UNL     1       4.268   5.218  19.745  0.00  0.00    +0.000 C 
ENDROOT
BRANCH   3   9
ATOM      9  C   UNL     1       6.844   4.612  14.516  0.00  0.00    +0.000 C 
ATOM     10  O   UNL     1       7.861   5.215  14.177  0.00  0.00    +0.000 OA
ATOM     11  N   UNL     1       6.212   3.699  13.705  0.00  0.00    +0.000 N 
ATOM     12  H   UNL     1       5.419   3.184  14.091  0.00  0.00    +0.000 HD
BRANCH  11  13
ATOM     13  C   UNL     1       6.712   3.323  12.390  0.00  0.00    +0.000 C 
ATOM     14  C   UNL     1       5.675   2.502  11.624  0.00  0.00    +0.000 C 
ATOM     15  C   UNL     1       7.102   4.563  11.589  0.00  0.00    +0.000 C 
ENDBRANCH  11  13
ENDBRANCH   3   9
BRANCH   1  16
ATOM     16  C   UNL     1       3.528   3.081  17.827  0.00  0.00    +0.000 C 
BRANCH  16  17
ATOM     17  C   UNL     1       2.120   3.548  17.442  0.00  0.00    +0.000 C 
BRANCH  17  18
ATOM     18  C   UNL     1       1.116   3.296  18.575  0.00  0.00    +0.000 C 
BRANCH  18  20
ATOM     19  C   UNL     1       1.333   2.916  21.068  0.00  0.00    +0.000 C 
ATOM     20  C   UNL     1       1.727   2.432  19.679  0.00  0.00    +0.000 C 
ENDBRANCH  18  20
ENDBRANCH  17  18
ENDBRANCH  16  17
ENDBRANCH   1  16
TORSDOF 6
ENDMDL
MODEL 6
REMARK VINA RESULT:      -6.7      1.218      1.515
REMARK  Name = 
REMARK  10 active torsions:
REMARK  status: ('A' for Active; 'I' for Inactive)
REMARK    1  A    between atoms: C_1  and  C_2
REMARK    2  A    between atoms: C_2  and  C_3
REMARK    3  A    between atoms: C_3  and  C_4
REMARK    4  A    between atoms: C_4  and  C_5
REMARK    5  A    between atoms: C_5  and  N_6
REMARK    6  A    between atoms: C_8  and  C_9
REMARK    7  A    between atoms: N_11  and  C_12
REMARK    8  A    between atoms: C_12  and  C_13
REMARK    9  A    between atoms: C_12  and  C_14
REMARK   10  A    between atoms: C_18  and  C_19
REMARK                            x       y       z     vdW  Elec       q    Type
REMARK                         _______ _______ _______ _____ _____    ______ ____
ROOT
ATOM      1  N   UNL     1       4.224   5.196  17.462  0.00  0.00    +0.000 N 
ATOM      2  C   UNL     1       4.690   5.097  16.144  0.00  0.00    +0.000 A 
ATOM      3  C   UNL     1       5.939   4.765  15.767  0.00  0.00    +0.000 A 
ATOM      4  C   UNL     1       6.901   4.501  16.863  0.00  0.00    +0.000 A 
ATOM      5  O   UNL     1       8.074   4.197  16.652  0.00  0.00    +0.000 OA
ATOM      6  C   UNL     1       6.416   4.612  18.259  0.00  0.00    +0.000 A 
ATOM      7  C   UNL     1       5.134   4.940  18.507  0.00  0.00    +0.000 A 
ATOM      8  C   UNL     1       4.680   5.017  19.944  0.00  0.00    +0.000 C 
ENDROOT
BRANCH   3   9
ATOM      9  C   UNL     1       6.265   4.655  14.314  0.00  0.00    +0.000 C 
ATOM     10  O   UNL     1       7.212   5.265  13.822  0.00  0.00    +0.000 OA
ATOM     11  N   UNL     1       5.432   3.847  13.576  0.00  0.00    +0.000 N 
ATOM     12  H   UNL     1       4.718   3.314  14.075  0.00  0.00    +0.000 HD
BRANCH  11  13
ATOM     13  C   UNL     1       5.621   3.597  12.154  0.00  0.00    +0.000 C 
ATOM     14  C   UNL     1       6.585   2.433  11.926  0.00  0.00    +0.000 C 
ATOM     15  C   UNL     1       4.282   3.315  11.477  0.00  0.00    +0.000 C 
ENDBRANCH  11  13
ENDBRANCH   3   9
BRANCH   1  16
ATOM     16  C   UNL     1       2.792   5.498  17.708  0.00  0.00    +0.000 C 
BRANCH  16  17
ATOM     17  C   UNL     1       1.894   4.310  17.347  0.00  0.00    +0.000 C 
BRANCH  17  18
ATOM     18  C   UNL     1       1.802   3.303  18.502  0.00  0.00    +0.000 C 
BRANCH  18  20
ATOM     19  C   UNL     1       3.668   1.599  18.627  0.00  0.00    +0.000 C 
ATOM     20  C   UNL     1       2.287   1.917  18.072  0.00  0.00    +0.000 C 
ENDBRANCH  18  20
ENDBRANCH  17  18
ENDBRANCH  16  17
ENDBRANCH   1  16
TORSDOF 6
ENDMDL
MODEL 7
REMARK VINA RESULT:      -6.5      1.049      1.307
REMARK  Name = 
REMARK  10 active torsions:
REMARK  status: ('A' for Active; 'I' for Inactive)
REMARK    1  A    between atoms: C_1  and  C_2
REMARK    2  A    between atoms: C_2  and  C_3
REMARK    3  A    between atoms: C_3  and  C_4
REMARK    4  A    between atoms: C_4  and  C_5
REMARK    5  A    between atoms: C_5  and  N_6
REMARK    6  A    between atoms: C_8  and  C_9
REMARK    7  A    between atoms: N_11  and  C_12
REMARK    8  A    between atoms: C_12  and  C_13
REMARK    9  A    between atoms: C_12  and  C_14
REMARK   10  A    between atoms: C_18  and  C_19
REMARK                            x       y       z     vdW  Elec       q    Type
REMARK                         _______ _______ _______ _____ _____    ______ ____
ROOT
ATOM      1  N   UNL     1       4.593   3.684  17.727  0.00  0.00    +0.000 N 
ATOM      2  C   UNL     1       5.030   3.686  16.396  0.00  0.00    +0.000 A 
ATOM      3  C   UNL     1       5.457   4.757  15.702  0.00  0.00    +0.000 A 
ATOM      4  C   UNL     1       5.438   6.051  16.425  0.00  0.00    +0.000 A 
ATOM      5  O   UNL     1       5.794   7.104  15.900  0.00  0.00    +0.000 OA
ATOM      6  C   UNL     1       4.969   6.057  17.830  0.00  0.00    +0.000 A 
ATOM      7  C   UNL     1       4.579   4.911  18.420  0.00  0.00    +0.000 A 
ATOM      8  C   UNL     1       4.132   4.963  19.861  0.00  0.00    +0.000 C 
ENDROOT
BRANCH   3   9
ATOM      9  C   UNL     1       5.938   4.582  14.299  0.00  0.00    +0.000 C 
ATOM     10  O   UNL     1       6.985   5.098  13.912  0.00  0.00    +0.000 OA
ATOM     11  N   UNL     1       5.129   3.829  13.481  0.00  0.00    +0.000 N 
ATOM     12  H   UNL     1       4.318   3.371  13.901  0.00  0.00    +0.000 HD
BRANCH  11  13
ATOM     13  C   UNL     1       5.459   3.527  12.096  0.00  0.00    +0.000 C 
ATOM     14  C   UNL     1       6.386   2.316  12.003  0.00  0.00    +0.000 C 
ATOM     15  C   UNL     1       4.188   3.283  11.283  0.00  0.00    +0.000 C 
ENDBRANCH  11  13
ENDBRANCH   3   9
BRANCH   1  16
ATOM     16  C   UNL     1       4.227   2.399  18.373  0.00  0.00    +0.000 C 
BRANCH  16  17
ATOM     17  C   UNL     1       2.817   1.948  17.975  0.00  0.00    +0.000 C 
BRANCH  17  18
ATOM     18  C   UNL     1       1.840   2.050  19.153  0.00  0.00    +0.000 C 
BRANCH  18  20
ATOM     19  C   UNL     1       1.170   4.021  17.713  0.00  0.00    +0.000 C 
ATOM     20  C   UNL     1       0.911   3.256  19.003  0.00  0.00    +0.000 C 
ENDBRANCH  18  20
ENDBRANCH  17  18
ENDBRANCH  16  17
ENDBRANCH   1  16
TORSDOF 6
ENDMDL
MODEL 8
REMARK VINA RESULT:      -6.5      4.326      7.164
REMARK  Name = 
REMARK  10 active torsions:
REMARK  status: ('A' for Active; 'I' for Inactive)
REMARK    1  A    between atoms: C_1  and  C_2
REMARK    2  A    between atoms: C_2  and  C_3
REMARK    3  A    between atoms: C_3  and  C_4
REMARK    4  A    between atoms: C_4  and  C_5
REMARK    5  A    between atoms: C_5  and  N_6
REMARK    6  A    between atoms: C_8  and  C_9
REMARK    7  A    between atoms: N_11  and  C_12
REMARK    8  A    between atoms: C_12  and  C_13
REMARK    9  A    between atoms: C_12  and  C_14
REMARK   10  A    between atoms: C_18  and  C_19
REMARK                            x       y       z     vdW  Elec       q    Type
REMARK                         _______ _______ _______ _____ _____    ______ ____
ROOT
ATOM      1  N   UNL     1       3.962   5.112  18.003  0.00  0.00    +0.000 N 
ATOM      2  C   UNL     1       3.390   6.377  17.813  0.00  0.00    +0.000 A 
ATOM      3  C   UNL     1       2.597   7.029  18.683  0.00  0.00    +0.000 A 
ATOM      4  C   UNL     1       2.295   6.316  19.948  0.00  0.00    +0.000 A 
ATOM      5  O   UNL     1       1.576   6.799  20.821  0.00  0.00    +0.000 OA
ATOM      6  C   UNL     1       2.890   4.974  20.151  0.00  0.00    +0.000 A 
ATOM      7  C   UNL     1       3.683   4.434  19.207  0.00  0.00    +0.000 A 
ATOM      8  C   UNL     1       4.285   3.075  19.468  0.00  0.00    +0.000 C 
ENDROOT
BRANCH   3   9
ATOM      9  C   UNL     1       2.106   8.400  18.350  0.00  0.00    +0.000 C 
ATOM     10  O   UNL     1       2.366   8.929  17.272  0.00  0.00    +0.000 OA
ATOM     11  N   UNL     1       1.369   9.022  19.330  0.00  0.00    +0.000 N 
ATOM     12  H   UNL     1       1.131   8.484  20.165  0.00  0.00    +0.000 HD
BRANCH  11  13
ATOM     13  C   UNL     1       0.783  10.344  19.165  0.00  0.00    +0.000 C 
ATOM     14  C   UNL     1      -0.618  10.252  18.560  0.00  0.00    +0.000 C 
ATOM     15  C   UNL     1       0.734  11.080  20.502  0.00  0.00    +0.000 C 
ENDBRANCH  11  13
ENDBRANCH   3   9
BRANCH   1  16
ATOM     16  C   UNL     1       4.881   4.565  16.974  0.00  0.00    +0.000 C 
BRANCH  16  17
ATOM     17  C   UNL     1       5.593   5.681  16.202  0.00  0.00    +0.000 C 
BRANCH  17  18
ATOM     18  C   UNL     1       7.082   5.755  16.565  0.00  0.00    +0.000 C 
BRANCH  18  20
ATOM     19  C   UNL     1       7.713   5.903  19.012  0.00  0.00    +0.000 C 
ATOM     20  C   UNL     1       7.319   6.678  17.762  0.00  0.00    +0.000 C 
ENDBRANCH  18  20
ENDBRANCH  17  18
ENDBRANCH  16  17
ENDBRANCH   1  16
TORSDOF 6
ENDMDL
MODEL 9
REMARK VINA RESULT:      -6.4      1.389      1.969
REMARK  Name = 
REMARK  10 active torsions:
REMARK  status: ('A' for Active; 'I' for Inactive)
REMARK    1  A    between atoms: C_1  and  C_2
REMARK    2  A    between atoms: C_2  and  C_3
REMARK    3  A    between atoms: C_3  and  C_4
REMARK    4  A    between atoms: C_4  and  C_5
REMARK    5  A    between atoms: C_5  and  N_6
REMARK    6  A    between atoms: C_8  and  C_9
REMARK    7  A    between atoms: N_11  and  C_12
REMARK    8  A    between atoms: C_12  and  C_13
REMARK    9  A    between atoms: C_12  and  C_14
REMARK   10  A    between atoms: C_18  and  C_19
REMARK                            x       y       z     vdW  Elec       q    Type
REMARK                         _______ _______ _______ _____ _____    ______ ____
ROOT
ATOM      1  N   UNL     1       4.104   3.752  17.486  0.00  0.00    +0.000 N 
ATOM      2  C   UNL     1       4.553   3.951  16.173  0.00  0.00    +0.000 A 
ATOM      3  C   UNL     1       5.808   4.261  15.802  0.00  0.00    +0.000 A 
ATOM      4  C   UNL     1       6.790   4.425  16.901  0.00  0.00    +0.000 A 
ATOM      5  O   UNL     1       7.967   4.717  16.695  0.00  0.00    +0.000 OA
ATOM      6  C   UNL     1       6.320   4.224  18.291  0.00  0.00    +0.000 A 
ATOM      7  C   UNL     1       5.036   3.900  18.533  0.00  0.00    +0.000 A 
ATOM      8  C   UNL     1       4.609   3.683  19.964  0.00  0.00    +0.000 C 
ENDROOT
BRANCH   3   9
ATOM      9  C   UNL     1       6.138   4.391  14.351  0.00  0.00    +0.000 C 
ATOM     10  O   UNL     1       6.965   5.208  13.952  0.00  0.00    +0.000 OA
ATOM     11  N   UNL     1       5.446   3.554  13.507  0.00  0.00    +0.000 N 
ATOM     12  H   UNL     1       4.835   2.851  13.925  0.00  0.00    +0.000 HD
BRANCH  11  13
ATOM     13  C   UNL     1       5.664   3.520  12.068  0.00  0.00    +0.000 C 
ATOM     14  C   UNL     1       6.711   2.470  11.696  0.00  0.00    +0.000 C 
ATOM     15  C   UNL     1       4.353   3.242  11.334  0.00  0.00    +0.000 C 
ENDBRANCH  11  13
ENDBRANCH   3   9
BRANCH   1  16
ATOM     16  C   UNL     1       2.699   3.336  17.722  0.00  0.00    +0.000 C 
BRANCH  16  17
ATOM     17  C   UNL     1       1.739   4.530  17.665  0.00  0.00    +0.000 C 
BRANCH  17  18
ATOM     18  C   UNL     1       2.183   5.654  18.611  0.00  0.00    +0.000 C 
BRANCH  18  20
ATOM     19  C   UNL     1       3.830   7.310  17.636  0.00  0.00    +0.000 C 
ATOM     20  C   UNL     1       2.362   6.975  17.860  0.00  0.00    +0.000 C 
ENDBRANCH  18  20
ENDBRANCH  17  18
ENDBRANCH  16  17
ENDBRANCH   1  16
TORSDOF 6
ENDMDL
