MODEL 1
REMARK VINA RESULT:      -6.8      0.000      0.000
REMARK  Name = 
REMARK  8 active torsions:
REMARK  status: ('A' for Active; 'I' for Inactive)
REMARK    1  A    between atoms: C_1  and  C_2
REMARK    2  A    between atoms: C_2  and  C_3
REMARK    3  A    between atoms: C_3  and  C_4
REMARK    4  A    between atoms: C_4  and  N_5
REMARK    5  A    between atoms: N_5  and  C_6
REMARK    6  A    between atoms: C_6  and  C_7
REMARK    7  A    between atoms: C_10  and  C_11
REMARK    8  A    between atoms: C_13  and  C_14
REMARK                            x       y       z     vdW  Elec       q    Type
REMARK                         _______ _______ _______ _____ _____    ______ ____
ROOT
ATOM      1  N   UNL     1       2.718   3.438  18.047  0.00  0.00    +0.000 N 
ATOM      2  C   UNL     1       3.395   4.625  17.810  0.00  0.00    +0.000 A 
ATOM      3  N   UNL     1       2.740   5.774  17.940  0.00  0.00    +0.000 NA
ATOM      4  C   UNL     1       3.427   6.898  17.745  0.00  0.00    +0.000 A 
ATOM      5  C   UNL     1       2.707   8.194  17.934  0.00  0.00    +0.000 C 
ATOM      6  N   UNL     1       4.712   6.943  17.422  0.00  0.00    +0.000 NA
ATOM      7  C   UNL     1       5.323   5.757  17.303  0.00  0.00    +0.000 A 
ATOM      8  N   UNL     1       4.687   4.585  17.495  0.00  0.00    +0.000 NA
ENDROOT
BRANCH   7   9
ATOM      9  C   UNL     1       6.813   5.708  16.939  0.00  0.00    +0.000 C 
ATOM     10 CL   UNL     1       7.739   4.507  17.913  0.00  0.00    +0.000 Cl
ATOM     11 CL   UNL     1       7.015   5.264  15.207  0.00  0.00    +0.000 Cl
ATOM     12 CL   UNL     1       7.571   7.319  17.214  0.00  0.00    +0.000 Cl
ENDBRANCH   7   9
BRANCH   1  13
ATOM     13  C   UNL     1       3.393   2.174  17.758  0.00  0.00    +0.000 C 
ATOM     14  C   UNL     1       3.978   1.500  18.992  0.00  0.00    +0.000 C 
ENDBRANCH   1  13
BRANCH   1  15
ATOM     15  C   UNL     1       1.261   3.488  18.188  0.00  0.00    +0.000 C 
BRANCH  15  16
ATOM     16  C   UNL     1       0.764   2.962  19.538  0.00  0.00    +0.000 C 
BRANCH  16  18
ATOM     17  C   UNL     1       1.970   2.959  21.743  0.00  0.00    +0.000 C 
ATOM     18  C   UNL     1       1.199   3.805  20.739  0.00  0.00    +0.000 C 
ENDBRANCH  16  18
ENDBRANCH  15  16
ENDBRANCH   1  15
TORSDOF 5
ENDMDL
MODEL 2
REMARK VINA RESULT:      -6.7      0.049      1.193
REMARK  Name = 
REMARK  8 active torsions:
REMARK  status: ('A' for Active; 'I' for Inactive)
REMARK    1  A    between atoms: C_1  and  C_2
REMARK    2  A    between atoms: C_2  and  C_3
REMARK    3  A    between atoms: C_3  and  C_4
REMARK    4  A    between atoms: C_4  and  N_5
REMARK    5  A    between atoms: N_5  and  C_6
REMARK    6  A    between atoms: C_6  and  C_7
REMARK    7  A    between atoms: C_10  and  C_11
REMARK    8  A    between atoms: C_13  and  C_14
REMARK                            x       y       z     vdW  Elec       q    Type
REMARK                         _______ _______ _______ _____ _____    ______ ____
ROOT
ATOM      1  N   UNL     1       2.721   3.415  18.029  0.00  0.00    +0.000 N 
ATOM      2  C   UNL     1       3.387   4.611  17.807  0.00  0.00    +0.000 A 
ATOM      3  N   UNL     1       2.722   5.752  17.951  0.00  0.00    +0.000 NA
ATOM      4  C   UNL     1       3.398   6.885  17.771  0.00  0.00    +0.000 A 
ATOM      5  C   UNL     1       2.666   8.172  17.977  0.00  0.00    +0.000 C 
ATOM      6  N   UNL     1       4.683   6.946  17.447  0.00  0.00    +0.000 NA
ATOM      7  C   UNL     1       5.304   5.766  17.312  0.00  0.00    +0.000 A 
ATOM      8  N   UNL     1       4.679   4.587  17.490  0.00  0.00    +0.000 NA
ENDROOT
BRANCH   7   9
ATOM      9  C   UNL     1       6.795   5.736  16.946  0.00  0.00    +0.000 C 
ATOM     10 CL   UNL     1       7.610   7.327  17.176  0.00  0.00    +0.000 Cl
ATOM     11 CL   UNL     1       7.660   4.536  17.971  0.00  0.00    +0.000 Cl
ATOM     12 CL   UNL     1       6.999   5.274  15.218  0.00  0.00    +0.000 Cl
ENDBRANCH   7   9
BRANCH   1  13
ATOM     13  C   UNL     1       3.407   2.161  17.723  0.00  0.00    +0.000 C 
ATOM     14  C   UNL     1       3.912   1.426  18.958  0.00  0.00    +0.000 C 
ENDBRANCH   1  13
BRANCH   1  15
ATOM     15  C   UNL     1       1.264   3.450  18.172  0.00  0.00    +0.000 C 
BRANCH  15  16
ATOM     16  C   UNL     1       0.775   2.925  19.525  0.00  0.00    +0.000 C 
BRANCH  16  18
ATOM     17  C   UNL     1       1.951   2.939  21.746  0.00  0.00    +0.000 C 
ATOM     18  C   UNL     1       1.202   3.780  20.721  0.00  0.00    +0.000 C 
ENDBRANCH  16  18
ENDBRANCH  15  16
ENDBRANCH   1  15
TORSDOF 5
ENDMDL
MODEL 3
REMARK VINA RESULT:      -6.7      0.076      1.187
REMARK  Name = 
REMARK  8 active torsions:
REMARK  status: ('A' for Active; 'I' for Inactive)
REMARK    1  A    between atoms: C_1  and  C_2
REMARK    2  A    between atoms: C_2  and  C_3
REMARK    3  A    between atoms: C_3  and  C_4
REMARK    4  A    between atoms: C_4  and  N_5
REMARK    5  A    between atoms: N_5  and  C_6
REMARK    6  A    between atoms: C_6  and  C_7
REMARK    7  A    between atoms: C_10  and  C_11
REMARK    8  A    between atoms: C_13  and  C_14
REMARK                            x       y       z     vdW  Elec       q    Type
REMARK                         _______ _______ _______ _____ _____    ______ ____
ROOT
ATOM      1  N   UNL     1       2.729   3.424  18.044  0.00  0.00    +0.000 N 
ATOM      2  C   UNL     1       3.400   4.613  17.805  0.00  0.00    +0.000 A 
ATOM      3  N   UNL     1       2.746   5.760  17.949  0.00  0.00    +0.000 NA
ATOM      4  C   UNL     1       3.428   6.887  17.753  0.00  0.00    +0.000 A 
ATOM      5  C   UNL     1       2.708   8.181  17.959  0.00  0.00    +0.000 C 
ATOM      6  N   UNL     1       4.709   6.937  17.414  0.00  0.00    +0.000 NA
ATOM      7  C   UNL     1       5.319   5.751  17.279  0.00  0.00    +0.000 A 
ATOM      8  N   UNL     1       4.688   4.578  17.473  0.00  0.00    +0.000 NA
ENDROOT
BRANCH   7   9
ATOM      9  C   UNL     1       6.806   5.708  16.896  0.00  0.00    +0.000 C 
ATOM     10 CL   UNL     1       7.077   5.254  15.173  0.00  0.00    +0.000 Cl
ATOM     11 CL   UNL     1       7.559   7.322  17.151  0.00  0.00    +0.000 Cl
ATOM     12 CL   UNL     1       7.672   4.498  17.912  0.00  0.00    +0.000 Cl
ENDBRANCH   7   9
BRANCH   1  13
ATOM     13  C   UNL     1       3.401   2.163  17.738  0.00  0.00    +0.000 C 
ATOM     14  C   UNL     1       3.918   1.435  18.972  0.00  0.00    +0.000 C 
ENDBRANCH   1  13
BRANCH   1  15
ATOM     15  C   UNL     1       1.273   3.471  18.203  0.00  0.00    +0.000 C 
BRANCH  15  16
ATOM     16  C   UNL     1       0.799   2.986  19.576  0.00  0.00    +0.000 C 
BRANCH  16  18
ATOM     17  C   UNL     1       2.111   3.169  21.712  0.00  0.00    +0.000 C 
ATOM     18  C   UNL     1       1.197   3.899  20.738  0.00  0.00    +0.000 C 
ENDBRANCH  16  18
ENDBRANCH  15  16
ENDBRANCH   1  15
TORSDOF 5
ENDMDL
MODEL 4
REMARK VINA RESULT:      -6.4      3.180      5.292
REMARK  Name = 
REMARK  8 active torsions:
REMARK  status: ('A' for Active; 'I' for Inactive)
REMARK    1  A    between atoms: C_1  and  C_2
REMARK    2  A    between atoms: C_2  and  C_3
REMARK    3  A    between atoms: C_3  and  C_4
REMARK    4  A    between atoms: C_4  and  N_5
REMARK    5  A    between atoms: N_5  and  C_6
REMARK    6  A    between atoms: C_6  and  C_7
REMARK    7  A    between atoms: C_10  and  C_11
REMARK    8  A    between atoms: C_13  and  C_14
REMARK                            x       y       z     vdW  Elec       q    Type
REMARK                         _______ _______ _______ _____ _____    ______ ____
ROOT
ATOM      1  N   UNL     1       5.187   5.487  16.968  0.00  0.00    +0.000 N 
ATOM      2  C   UNL     1       4.173   5.363  17.906  0.00  0.00    +0.000 A 
ATOM      3  N   UNL     1       3.672   6.462  18.458  0.00  0.00    +0.000 NA
ATOM      4  C   UNL     1       2.672   6.315  19.325  0.00  0.00    +0.000 A 
ATOM      5  C   UNL     1       2.073   7.552  19.914  0.00  0.00    +0.000 C 
ATOM      6  N   UNL     1       2.155   5.146  19.679  0.00  0.00    +0.000 NA
ATOM      7  C   UNL     1       2.699   4.070  19.094  0.00  0.00    +0.000 A 
ATOM      8  N   UNL     1       3.705   4.153  18.203  0.00  0.00    +0.000 NA
ENDROOT
BRANCH   7   9
ATOM      9  C   UNL     1       2.162   2.673  19.435  0.00  0.00    +0.000 C 
ATOM     10 CL   UNL     1       0.531   2.355  18.737  0.00  0.00    +0.000 Cl
ATOM     11 CL   UNL     1       3.274   1.409  18.800  0.00  0.00    +0.000 Cl
ATOM     12 CL   UNL     1       2.026   2.480  21.221  0.00  0.00    +0.000 Cl
ENDBRANCH   7   9
BRANCH   1  13
ATOM     13  C   UNL     1       5.841   4.276  16.476  0.00  0.00    +0.000 C 
ATOM     14  C   UNL     1       5.790   4.130  14.961  0.00  0.00    +0.000 C 
ENDBRANCH   1  13
BRANCH   1  15
ATOM     15  C   UNL     1       5.826   6.795  16.808  0.00  0.00    +0.000 C 
BRANCH  15  16
ATOM     16  C   UNL     1       7.350   6.747  16.958  0.00  0.00    +0.000 C 
BRANCH  16  18
ATOM     17  C   UNL     1       7.870   5.785  19.221  0.00  0.00    +0.000 C 
ATOM     18  C   UNL     1       7.851   7.049  18.372  0.00  0.00    +0.000 C 
ENDBRANCH  16  18
ENDBRANCH  15  16
ENDBRANCH   1  15
TORSDOF 5
ENDMDL
MODEL 5
REMARK VINA RESULT:      -6.3      3.137      5.298
REMARK  Name = 
REMARK  8 active torsions:
REMARK  status: ('A' for Active; 'I' for Inactive)
REMARK    1  A    between atoms: C_1  and  C_2
REMARK    2  A    between atoms: C_2  and  C_3
REMARK    3  A    between atoms: C_3  and  C_4
REMARK    4  A    between atoms: C_4  and  N_5
REMARK    5  A    between atoms: N_5  and  C_6
REMARK    6  A    between atoms: C_6  and  C_7
REMARK    7  A    between atoms: C_10  and  C_11
REMARK    8  A    between atoms: C_13  and  C_14
REMARK                            x       y       z     vdW  Elec       q    Type
REMARK                         _______ _______ _______ _____ _____    ______ ____
ROOT
ATOM      1  N   UNL     1       5.166   5.336  16.677  0.00  0.00    +0.000 N 
ATOM      2  C   UNL     1       4.180   5.272  17.649  0.00  0.00    +0.000 A 
ATOM      3  N   UNL     1       3.695   6.404  18.147  0.00  0.00    +0.000 NA
ATOM      4  C   UNL     1       2.719   6.312  19.049  0.00  0.00    +0.000 A 
ATOM      5  C   UNL     1       2.139   7.584  19.579  0.00  0.00    +0.000 C 
ATOM      6  N   UNL     1       2.212   5.168  19.488  0.00  0.00    +0.000 NA
ATOM      7  C   UNL     1       2.739   4.057  18.954  0.00  0.00    +0.000 A 
ATOM      8  N   UNL     1       3.720   4.084  18.032  0.00  0.00    +0.000 NA
ENDROOT
BRANCH   7   9
ATOM      9  C   UNL     1       2.210   2.685  19.394  0.00  0.00    +0.000 C 
ATOM     10 CL   UNL     1       3.209   1.315  18.785  0.00  0.00    +0.000 Cl
ATOM     11 CL   UNL     1       2.187   2.576  21.190  0.00  0.00    +0.000 Cl
ATOM     12 CL   UNL     1       0.535   2.441  18.779  0.00  0.00    +0.000 Cl
ENDBRANCH   7   9
BRANCH   1  13
ATOM     13  C   UNL     1       5.806   4.096  16.242  0.00  0.00    +0.000 C 
ATOM     14  C   UNL     1       6.048   4.033  14.739  0.00  0.00    +0.000 C 
ENDBRANCH   1  13
BRANCH   1  15
ATOM     15  C   UNL     1       5.802   6.631  16.421  0.00  0.00    +0.000 C 
BRANCH  15  16
ATOM     16  C   UNL     1       7.305   6.638  16.718  0.00  0.00    +0.000 C 
BRANCH  16  18
ATOM     17  C   UNL     1       7.844   5.891  19.057  0.00  0.00    +0.000 C 
ATOM     18  C   UNL     1       7.662   7.090  18.136  0.00  0.00    +0.000 C 
ENDBRANCH  16  18
ENDBRANCH  15  16
ENDBRANCH   1  15
TORSDOF 5
ENDMDL
MODEL 6
REMARK VINA RESULT:      -6.1      3.207      5.569
REMARK  Name = 
REMARK  8 active torsions:
REMARK  status: ('A' for Active; 'I' for Inactive)
REMARK    1  A    between atoms: C_1  and  C_2
REMARK    2  A    between atoms: C_2  and  C_3
REMARK    3  A    between atoms: C_3  and  C_4
REMARK    4  A    between atoms: C_4  and  N_5
REMARK    5  A    between atoms: N_5  and  C_6
REMARK    6  A    between atoms: C_6  and  C_7
REMARK    7  A    between atoms: C_10  and  C_11
REMARK    8  A    between atoms: C_13  and  C_14
REMARK                            x       y       z     vdW  Elec       q    Type
REMARK                         _______ _______ _______ _____ _____    ______ ____
ROOT
ATOM      1  N   UNL     1       5.590   5.703  17.258  0.00  0.00    +0.000 N 
ATOM      2  C   UNL     1       4.477   5.585  18.076  0.00  0.00    +0.000 A 
ATOM      3  N   UNL     1       3.816   6.685  18.422  0.00  0.00    +0.000 NA
ATOM      4  C   UNL     1       2.728   6.537  19.175  0.00  0.00    +0.000 A 
ATOM      5  C   UNL     1       1.955   7.767  19.529  0.00  0.00    +0.000 C 
ATOM      6  N   UNL     1       2.270   5.370  19.607  0.00  0.00    +0.000 NA
ATOM      7  C   UNL     1       2.975   4.295  19.231  0.00  0.00    +0.000 A 
ATOM      8  N   UNL     1       4.078   4.377  18.463  0.00  0.00    +0.000 NA
ENDROOT
BRANCH   7   9
ATOM      9  C   UNL     1       2.518   2.899  19.677  0.00  0.00    +0.000 C 
ATOM     10 CL   UNL     1       2.649   2.648  21.456  0.00  0.00    +0.000 Cl
ATOM     11 CL   UNL     1       0.796   2.637  19.223  0.00  0.00    +0.000 Cl
ATOM     12 CL   UNL     1       3.523   1.634  18.881  0.00  0.00    +0.000 Cl
ENDBRANCH   7   9
BRANCH   1  13
ATOM     13  C   UNL     1       6.404   4.515  17.003  0.00  0.00    +0.000 C 
ATOM     14  C   UNL     1       6.540   4.178  15.524  0.00  0.00    +0.000 C 
ENDBRANCH   1  13
BRANCH   1  15
ATOM     15  C   UNL     1       6.132   7.042  17.013  0.00  0.00    +0.000 C 
BRANCH  15  16
ATOM     16  C   UNL     1       7.487   7.279  17.687  0.00  0.00    +0.000 C 
BRANCH  16  18
ATOM     17  C   UNL     1       8.819   9.086  18.817  0.00  0.00    +0.000 C 
ATOM     18  C   UNL     1       7.992   8.720  17.591  0.00  0.00    +0.000 C 
ENDBRANCH  16  18
ENDBRANCH  15  16
ENDBRANCH   1  15
TORSDOF 5
ENDMDL
MODEL 7
REMARK VINA RESULT:      -6.0      3.113      5.171
REMARK  Name = 
REMARK  8 active torsions:
REMARK  status: ('A' for Active; 'I' for Inactive)
REMARK    1  A    between atoms: C_1  and  C_2
REMARK    2  A    between atoms: C_2  and  C_3
REMARK    3  A    between atoms: C_3  and  C_4
REMARK    4  A    between atoms: C_4  and  N_5
REMARK    5  A    between atoms: N_5  and  C_6
REMARK    6  A    between atoms: C_6  and  C_7
REMARK    7  A    between atoms: C_10  and  C_11
REMARK    8  A    between atoms: C_13  and  C_14
REMARK                            x       y       z     vdW  Elec       q    Type
REMARK                         _______ _______ _______ _____ _____    ______ ____
ROOT
ATOM      1  N   UNL     1       4.998   5.350  16.499  0.00  0.00    +0.000 N 
ATOM      2  C   UNL     1       4.072   5.283  17.528  0.00  0.00    +0.000 A 
ATOM      3  N   UNL     1       3.590   6.414  18.033  0.00  0.00    +0.000 NA
ATOM      4  C   UNL     1       2.672   6.317  18.992  0.00  0.00    +0.000 A 
ATOM      5  C   UNL     1       2.093   7.586  19.531  0.00  0.00    +0.000 C 
ATOM      6  N   UNL     1       2.219   5.171  19.482  0.00  0.00    +0.000 NA
ATOM      7  C   UNL     1       2.740   4.062  18.940  0.00  0.00    +0.000 A 
ATOM      8  N   UNL     1       3.664   4.093  17.961  0.00  0.00    +0.000 NA
ENDROOT
BRANCH   7   9
ATOM      9  C   UNL     1       2.271   2.688  19.436  0.00  0.00    +0.000 C 
ATOM     10 CL   UNL     1       2.248   2.557  21.234  0.00  0.00    +0.000 Cl
ATOM     11 CL   UNL     1       0.602   2.354  18.852  0.00  0.00    +0.000 Cl
ATOM     12 CL   UNL     1       3.368   1.399  18.820  0.00  0.00    +0.000 Cl
ENDBRANCH   7   9
BRANCH   1  13
ATOM     13  C   UNL     1       5.641   4.116  16.050  0.00  0.00    +0.000 C 
ATOM     14  C   UNL     1       5.942   4.096  14.557  0.00  0.00    +0.000 C 
ENDBRANCH   1  13
BRANCH   1  15
ATOM     15  C   UNL     1       5.586   6.653  16.180  0.00  0.00    +0.000 C 
BRANCH  15  16
ATOM     16  C   UNL     1       6.361   7.270  17.349  0.00  0.00    +0.000 C 
BRANCH  16  18
ATOM     17  C   UNL     1       7.586   5.802  18.980  0.00  0.00    +0.000 C 
ATOM     18  C   UNL     1       7.682   6.567  17.667  0.00  0.00    +0.000 C 
ENDBRANCH  16  18
ENDBRANCH  15  16
ENDBRANCH   1  15
TORSDOF 5
ENDMDL
MODEL 8
REMARK VINA RESULT:      -6.0      3.173      5.717
REMARK  Name = 
REMARK  8 active torsions:
REMARK  status: ('A' for Active; 'I' for Inactive)
REMARK    1  A    between atoms: C_1  and  C_2
REMARK    2  A    between atoms: C_2  and  C_3
REMARK    3  A    between atoms: C_3  and  C_4
REMARK    4  A    between atoms: C_4  and  N_5
REMARK    5  A    between atoms: N_5  and  C_6
REMARK    6  A    between atoms: C_6  and  C_7
REMARK    7  A    between atoms: C_10  and  C_11
REMARK    8  A    between atoms: C_13  and  C_14
REMARK                            x       y       z     vdW  Elec       q    Type
REMARK                         _______ _______ _______ _____ _____    ______ ____
ROOT
ATOM      1  N   UNL     1       6.182   6.332  17.515  0.00  0.00    +0.000 N 
ATOM      2  C   UNL     1       4.848   6.248  17.884  0.00  0.00    +0.000 A 
ATOM      3  N   UNL     1       4.076   7.321  17.751  0.00  0.00    +0.000 NA
ATOM      4  C   UNL     1       2.791   7.199  18.074  0.00  0.00    +0.000 A 
ATOM      5  C   UNL     1       1.908   8.390  17.883  0.00  0.00    +0.000 C 
ATOM      6  N   UNL     1       2.237   6.083  18.529  0.00  0.00    +0.000 NA
ATOM      7  C   UNL     1       3.060   5.032  18.646  0.00  0.00    +0.000 A 
ATOM      8  N   UNL     1       4.367   5.089  18.327  0.00  0.00    +0.000 NA
ENDROOT
BRANCH   7   9
ATOM      9  C   UNL     1       2.508   3.694  19.157  0.00  0.00    +0.000 C 
ATOM     10 CL   UNL     1       2.148   2.528  17.832  0.00  0.00    +0.000 Cl
ATOM     11 CL   UNL     1       3.700   2.910  20.254  0.00  0.00    +0.000 Cl
ATOM     12 CL   UNL     1       0.976   3.962  20.066  0.00  0.00    +0.000 Cl
ENDBRANCH   7   9
BRANCH   1  13
ATOM     13  C   UNL     1       7.064   5.203  17.804  0.00  0.00    +0.000 C 
ATOM     14  C   UNL     1       7.425   4.384  16.572  0.00  0.00    +0.000 C 
ENDBRANCH   1  13
BRANCH   1  15
ATOM     15  C   UNL     1       6.739   7.657  17.230  0.00  0.00    +0.000 C 
BRANCH  15  16
ATOM     16  C   UNL     1       7.999   7.972  18.042  0.00  0.00    +0.000 C 
BRANCH  16  18
ATOM     17  C   UNL     1       9.078   9.879  19.273  0.00  0.00    +0.000 C 
ATOM     18  C   UNL     1       8.450   9.432  17.960  0.00  0.00    +0.000 C 
ENDBRANCH  16  18
ENDBRANCH  15  16
ENDBRANCH   1  15
TORSDOF 5
ENDMDL
MODEL 9
REMARK VINA RESULT:      -5.6      3.394      5.689
REMARK  Name = 
REMARK  8 active torsions:
REMARK  status: ('A' for Active; 'I' for Inactive)
REMARK    1  A    between atoms: C_1  and  C_2
REMARK    2  A    between atoms: C_2  and  C_3
REMARK    3  A    between atoms: C_3  and  C_4
REMARK    4  A    between atoms: C_4  and  N_5
REMARK    5  A    between atoms: N_5  and  C_6
REMARK    6  A    between atoms: C_6  and  C_7
REMARK    7  A    between atoms: C_10  and  C_11
REMARK    8  A    between atoms: C_13  and  C_14
REMARK                            x       y       z     vdW  Elec       q    Type
REMARK                         _______ _______ _______ _____ _____    ______ ____
ROOT
ATOM      1  N   UNL     1       2.047   7.868  19.691  0.00  0.00    +0.000 N 
ATOM      2  C   UNL     1       2.631   6.716  19.187  0.00  0.00    +0.000 A 
ATOM      3  N   UNL     1       3.377   6.800  18.091  0.00  0.00    +0.000 NA
ATOM      4  C   UNL     1       3.957   5.684  17.654  0.00  0.00    +0.000 A 
ATOM      5  C   UNL     1       4.835   5.783  16.448  0.00  0.00    +0.000 C 
ATOM      6  N   UNL     1       3.830   4.498  18.234  0.00  0.00    +0.000 NA
ATOM      7  C   UNL     1       3.065   4.469  19.333  0.00  0.00    +0.000 A 
ATOM      8  N   UNL     1       2.459   5.564  19.831  0.00  0.00    +0.000 NA
ENDROOT
BRANCH   7   9
ATOM      9  C   UNL     1       2.864   3.142  20.079  0.00  0.00    +0.000 C 
ATOM     10 CL   UNL     1       4.392   2.208  20.280  0.00  0.00    +0.000 Cl
ATOM     11 CL   UNL     1       2.202   3.448  21.723  0.00  0.00    +0.000 Cl
ATOM     12 CL   UNL     1       1.711   2.094  19.177  0.00  0.00    +0.000 Cl
ENDBRANCH   7   9
BRANCH   1  13
ATOM     13  C   UNL     1       1.106   7.751  20.803  0.00  0.00    +0.000 C 
ATOM     14  C   UNL     1       1.191   8.904  21.795  0.00  0.00    +0.000 C 
ENDBRANCH   1  13
BRANCH   1  15
ATOM     15  C   UNL     1       2.075   9.076  18.863  0.00  0.00    +0.000 C 
BRANCH  15  16
ATOM     16  C   UNL     1       0.838   9.228  17.973  0.00  0.00    +0.000 C 
BRANCH  16  18
ATOM     17  C   UNL     1      -1.491  10.146  17.741  0.00  0.00    +0.000 C 
ATOM     18  C   UNL     1      -0.150  10.297  18.447  0.00  0.00    +0.000 C 
ENDBRANCH  16  18
ENDBRANCH  15  16
ENDBRANCH   1  15
TORSDOF 5
ENDMDL
