MODEL 1
REMARK VINA RESULT:      -8.0      0.000      0.000
REMARK  Name = 
REMARK  6 active torsions:
REMARK  status: ('A' for Active; 'I' for Inactive)
REMARK    1  A    between atoms: C_1  and  C_2
REMARK    2  A    between atoms: C_2  and  C_3
REMARK    3  A    between atoms: C_2  and  O_4
REMARK    4  A    between atoms: C_2  and  C_5
REMARK    5  A    between atoms: C_10  and  C_11
REMARK    6  A    between atoms: C_14  and  N_15
REMARK                            x       y       z     vdW  Elec       q    Type
REMARK                         _______ _______ _______ _____ _____    ______ ____
ROOT
ATOM      1  C   UNL     1       1.626   8.421  19.297  0.00  0.00    +0.000 A 
ATOM      2  C   UNL     1       1.149   9.419  18.453  0.00  0.00    +0.000 A 
ATOM      3  C   UNL     1       0.250  10.365  18.942  0.00  0.00    +0.000 A 
ATOM      4  C   UNL     1      -0.178  10.302  20.264  0.00  0.00    +0.000 A 
ATOM      5  C   UNL     1       0.367   9.285  21.043  0.00  0.00    +0.000 A 
ATOM      6  N   UNL     1       1.247   8.346  20.596  0.00  0.00    +0.000 NA
ENDROOT
BRANCH   4   7
ATOM      7  N   UNL     1      -1.108  11.217  20.819  0.00  0.00    +0.000 N 
ATOM      8  C   UNL     1      -0.779  12.267  21.649  0.00  0.00    +0.000 C 
ATOM      9  O   UNL     1       0.370  12.594  21.939  0.00  0.00    +0.000 OA
ATOM     10  N   UNL     1      -1.843  12.986  22.134  0.00  0.00    +0.000 N 
ATOM     11  C   UNL     1      -1.572  14.195  22.907  0.00  0.00    +0.000 C 
ATOM     12  C   UNL     1      -2.929  14.677  23.296  0.00  0.00    +0.000 A 
ATOM     13  C   UNL     1      -3.269  15.842  23.962  0.00  0.00    +0.000 A 
ATOM     14  C   UNL     1      -4.618  16.074  24.234  0.00  0.00    +0.000 A 
ATOM     15  C   UNL     1      -5.596  15.143  23.846  0.00  0.00    +0.000 A 
ATOM     16  C   UNL     1      -5.242  13.971  23.171  0.00  0.00    +0.000 A 
ATOM     17  C   UNL     1      -3.902  13.753  22.895  0.00  0.00    +0.000 A 
ATOM     18  C   UNL     1      -3.256  12.604  22.186  0.00  0.00    +0.000 C 
ATOM     19  H   UNL     1      -2.004  11.284  20.363  0.00  0.00    +0.000 HD
ENDBRANCH   4   7
BRANCH   1  25
ATOM     20  C   UNL     1       4.648   4.582  16.610  0.00  0.00    +0.000 C 
ATOM     21  O   UNL     1       4.214   3.424  16.674  0.00  0.00    +0.000 OA
ATOM     22  N   UNL     1       4.320   5.509  17.594  0.00  0.00    +0.000 N 
ATOM     23  C   UNL     1       3.511   5.057  18.730  0.00  0.00    +0.000 C 
ATOM     24  C   UNL     1       2.617   6.146  19.262  0.00  0.00    +0.000 C 
ATOM     25  C   UNL     1       2.588   7.413  18.798  0.00  0.00    +0.000 C 
ATOM     26  C   UNL     1       3.562   7.835  17.725  0.00  0.00    +0.000 C 
ATOM     27  C   UNL     1       4.769   6.897  17.669  0.00  0.00    +0.000 C 
BRANCH  20  29
ATOM     28  C   UNL     1       5.481   4.010  14.283  0.00  0.00    +0.000 C 
ATOM     29  C   UNL     1       5.680   4.948  15.484  0.00  0.00    +0.000 C 
ATOM     30  C   UNL     1       7.084   4.735  16.066  0.00  0.00    +0.000 C 
BRANCH  29  31
ATOM     31  O   UNL     1       5.592   6.267  14.953  0.00  0.00    +0.000 OA
ATOM     32  H   UNL     1       6.270   6.811  15.391  0.00  0.00    +0.000 HD
ENDBRANCH  29  31
ENDBRANCH  20  29
ENDBRANCH   1  25
TORSDOF 4
ENDMDL
MODEL 2
REMARK VINA RESULT:      -7.9      2.063      2.862
REMARK  Name = 
REMARK  6 active torsions:
REMARK  status: ('A' for Active; 'I' for Inactive)
REMARK    1  A    between atoms: C_1  and  C_2
REMARK    2  A    between atoms: C_2  and  C_3
REMARK    3  A    between atoms: C_2  and  O_4
REMARK    4  A    between atoms: C_2  and  C_5
REMARK    5  A    between atoms: C_10  and  C_11
REMARK    6  A    between atoms: C_14  and  N_15
REMARK                            x       y       z     vdW  Elec       q    Type
REMARK                         _______ _______ _______ _____ _____    ______ ____
ROOT
ATOM      1  C   UNL     1       1.431   8.280  20.214  0.00  0.00    +0.000 A 
ATOM      2  C   UNL     1       0.983   9.262  19.337  0.00  0.00    +0.000 A 
ATOM      3  C   UNL     1       0.320  10.383  19.835  0.00  0.00    +0.000 A 
ATOM      4  C   UNL     1       0.097  10.511  21.202  0.00  0.00    +0.000 A 
ATOM      5  C   UNL     1       0.597   9.492  22.008  0.00  0.00    +0.000 A 
ATOM      6  N   UNL     1       1.249   8.385  21.554  0.00  0.00    +0.000 NA
ENDROOT
BRANCH   4   7
ATOM      7  N   UNL     1      -0.590  11.611  21.773  0.00  0.00    +0.000 N 
ATOM      8  C   UNL     1      -0.047  12.863  21.968  0.00  0.00    +0.000 C 
ATOM      9  O   UNL     1       1.071  13.205  21.590  0.00  0.00    +0.000 OA
ATOM     10  N   UNL     1      -0.864  13.764  22.605  0.00  0.00    +0.000 N 
ATOM     11  C   UNL     1      -0.413  15.148  22.726  0.00  0.00    +0.000 C 
ATOM     12  C   UNL     1      -1.509  15.809  23.492  0.00  0.00    +0.000 A 
ATOM     13  C   UNL     1      -1.647  17.150  23.810  0.00  0.00    +0.000 A 
ATOM     14  C   UNL     1      -2.759  17.536  24.559  0.00  0.00    +0.000 A 
ATOM     15  C   UNL     1      -3.703  16.586  24.980  0.00  0.00    +0.000 A 
ATOM     16  C   UNL     1      -3.556  15.235  24.651  0.00  0.00    +0.000 A 
ATOM     17  C   UNL     1      -2.455  14.860  23.898  0.00  0.00    +0.000 A 
ATOM     18  C   UNL     1      -2.063  13.503  23.403  0.00  0.00    +0.000 C 
ATOM     19  H   UNL     1      -1.597  11.568  21.770  0.00  0.00    +0.000 HD
ENDBRANCH   4   7
BRANCH   1  25
ATOM     20  C   UNL     1       4.570   3.786  19.200  0.00  0.00    +0.000 C 
ATOM     21  O   UNL     1       5.747   4.018  18.894  0.00  0.00    +0.000 OA
ATOM     22  N   UNL     1       3.588   4.747  18.989  0.00  0.00    +0.000 N 
ATOM     23  C   UNL     1       3.975   6.001  18.337  0.00  0.00    +0.000 C 
ATOM     24  C   UNL     1       3.157   7.171  18.819  0.00  0.00    +0.000 C 
ATOM     25  C   UNL     1       2.144   7.087  19.706  0.00  0.00    +0.000 C 
ATOM     26  C   UNL     1       1.711   5.734  20.216  0.00  0.00    +0.000 C 
ATOM     27  C   UNL     1       2.162   4.615  19.276  0.00  0.00    +0.000 C 
BRANCH  20  29
ATOM     28  C   UNL     1       3.429   1.605  18.583  0.00  0.00    +0.000 C 
ATOM     29  C   UNL     1       4.181   2.348  19.699  0.00  0.00    +0.000 C 
ATOM     30  C   UNL     1       3.252   2.521  20.908  0.00  0.00    +0.000 C 
BRANCH  29  31
ATOM     31  O   UNL     1       5.261   1.492  20.062  0.00  0.00    +0.000 OA
ATOM     32  H   UNL     1       4.902   0.781  20.622  0.00  0.00    +0.000 HD
ENDBRANCH  29  31
ENDBRANCH  20  29
ENDBRANCH   1  25
TORSDOF 4
ENDMDL
MODEL 3
REMARK VINA RESULT:      -7.8      2.319     11.981
REMARK  Name = 
REMARK  6 active torsions:
REMARK  status: ('A' for Active; 'I' for Inactive)
REMARK    1  A    between atoms: C_1  and  C_2
REMARK    2  A    between atoms: C_2  and  C_3
REMARK    3  A    between atoms: C_2  and  O_4
REMARK    4  A    between atoms: C_2  and  C_5
REMARK    5  A    between atoms: C_10  and  C_11
REMARK    6  A    between atoms: C_14  and  N_15
REMARK                            x       y       z     vdW  Elec       q    Type
REMARK                         _______ _______ _______ _____ _____    ______ ____
ROOT
ATOM      1  C   UNL     1      -0.800  11.654  21.413  0.00  0.00    +0.000 A 
ATOM      2  C   UNL     1      -1.268  11.288  20.156  0.00  0.00    +0.000 A 
ATOM      3  C   UNL     1      -0.530  10.400  19.376  0.00  0.00    +0.000 A 
ATOM      4  C   UNL     1       0.676   9.894  19.849  0.00  0.00    +0.000 A 
ATOM      5  C   UNL     1       1.058  10.296  21.126  0.00  0.00    +0.000 A 
ATOM      6  N   UNL     1       0.360  11.162  21.913  0.00  0.00    +0.000 NA
ENDROOT
BRANCH   4   7
ATOM      7  N   UNL     1       1.489   9.006  19.100  0.00  0.00    +0.000 N 
ATOM      8  C   UNL     1       1.933   7.780  19.545  0.00  0.00    +0.000 C 
ATOM      9  O   UNL     1       1.606   7.265  20.612  0.00  0.00    +0.000 OA
ATOM     10  N   UNL     1       2.770   7.112  18.686  0.00  0.00    +0.000 N 
ATOM     11  C   UNL     1       3.172   5.749  19.025  0.00  0.00    +0.000 C 
ATOM     12  C   UNL     1       4.092   5.367  17.914  0.00  0.00    +0.000 A 
ATOM     13  C   UNL     1       4.694   4.142  17.680  0.00  0.00    +0.000 A 
ATOM     14  C   UNL     1       5.538   4.026  16.575  0.00  0.00    +0.000 A 
ATOM     15  C   UNL     1       5.771   5.126  15.734  0.00  0.00    +0.000 A 
ATOM     16  C   UNL     1       5.156   6.358  15.978  0.00  0.00    +0.000 A 
ATOM     17  C   UNL     1       4.311   6.463  17.070  0.00  0.00    +0.000 A 
ATOM     18  C   UNL     1       3.526   7.644  17.551  0.00  0.00    +0.000 C 
ATOM     19  H   UNL     1       1.504   9.140  18.101  0.00  0.00    +0.000 HD
ENDBRANCH   4   7
BRANCH   1  25
ATOM     20  C   UNL     1      -3.830  15.710  23.751  0.00  0.00    +0.000 C 
ATOM     21  O   UNL     1      -3.212  16.749  24.017  0.00  0.00    +0.000 OA
ATOM     22  N   UNL     1      -3.155  14.497  23.652  0.00  0.00    +0.000 N 
ATOM     23  C   UNL     1      -1.718  14.480  23.937  0.00  0.00    +0.000 C 
ATOM     24  C   UNL     1      -0.987  13.447  23.119  0.00  0.00    +0.000 C 
ATOM     25  C   UNL     1      -1.575  12.590  22.260  0.00  0.00    +0.000 C 
ATOM     26  C   UNL     1      -3.080  12.573  22.137  0.00  0.00    +0.000 C 
ATOM     27  C   UNL     1      -3.744  13.192  23.368  0.00  0.00    +0.000 C 
BRANCH  20  29
ATOM     28  C   UNL     1      -5.833  15.615  22.197  0.00  0.00    +0.000 C 
ATOM     29  C   UNL     1      -5.398  15.756  23.664  0.00  0.00    +0.000 C 
ATOM     30  C   UNL     1      -5.843  17.125  24.195  0.00  0.00    +0.000 C 
BRANCH  29  31
ATOM     31  O   UNL     1      -6.099  14.734  24.367  0.00  0.00    +0.000 OA
ATOM     32  H   UNL     1      -7.035  14.998  24.420  0.00  0.00    +0.000 HD
ENDBRANCH  29  31
ENDBRANCH  20  29
ENDBRANCH   1  25
TORSDOF 4
ENDMDL
MODEL 4
REMARK VINA RESULT:      -7.8      2.595     12.006
REMARK  Name = 
REMARK  6 active torsions:
REMARK  status: ('A' for Active; 'I' for Inactive)
REMARK    1  A    between atoms: C_1  and  C_2
REMARK    2  A    between atoms: C_2  and  C_3
REMARK    3  A    between atoms: C_2  and  O_4
REMARK    4  A    between atoms: C_2  and  C_5
REMARK    5  A    between atoms: C_10  and  C_11
REMARK    6  A    between atoms: C_14  and  N_15
REMARK                            x       y       z     vdW  Elec       q    Type
REMARK                         _______ _______ _______ _____ _____    ______ ____
ROOT
ATOM      1  C   UNL     1      -0.644  11.714  22.579  0.00  0.00    +0.000 A 
ATOM      2  C   UNL     1      -1.020  10.501  23.145  0.00  0.00    +0.000 A 
ATOM      3  C   UNL     1      -0.391   9.325  22.739  0.00  0.00    +0.000 A 
ATOM      4  C   UNL     1       0.599   9.365  21.764  0.00  0.00    +0.000 A 
ATOM      5  C   UNL     1       0.928  10.624  21.267  0.00  0.00    +0.000 A 
ATOM      6  N   UNL     1       0.333  11.791  21.642  0.00  0.00    +0.000 NA
ENDROOT
BRANCH   4   7
ATOM      7  N   UNL     1       1.263   8.206  21.288  0.00  0.00    +0.000 N 
ATOM      8  C   UNL     1       1.636   7.994  19.978  0.00  0.00    +0.000 C 
ATOM      9  O   UNL     1       1.519   8.821  19.077  0.00  0.00    +0.000 OA
ATOM     10  N   UNL     1       2.203   6.771  19.721  0.00  0.00    +0.000 N 
ATOM     11  C   UNL     1       2.749   6.522  18.389  0.00  0.00    +0.000 C 
ATOM     12  C   UNL     1       3.228   5.112  18.463  0.00  0.00    +0.000 A 
ATOM     13  C   UNL     1       3.920   4.389  17.505  0.00  0.00    +0.000 A 
ATOM     14  C   UNL     1       4.252   3.065  17.794  0.00  0.00    +0.000 A 
ATOM     15  C   UNL     1       3.885   2.488  19.020  0.00  0.00    +0.000 A 
ATOM     16  C   UNL     1       3.188   3.227  19.982  0.00  0.00    +0.000 A 
ATOM     17  C   UNL     1       2.872   4.544  19.692  0.00  0.00    +0.000 A 
ATOM     18  C   UNL     1       2.152   5.552  20.532  0.00  0.00    +0.000 C 
ATOM     19  H   UNL     1       1.742   7.645  21.975  0.00  0.00    +0.000 HD
ENDBRANCH   4   7
BRANCH   1  25
ATOM     20  C   UNL     1      -3.622  16.369  23.318  0.00  0.00    +0.000 C 
ATOM     21  O   UNL     1      -3.238  17.354  22.674  0.00  0.00    +0.000 OA
ATOM     22  N   UNL     1      -2.735  15.343  23.626  0.00  0.00    +0.000 N 
ATOM     23  C   UNL     1      -1.334  15.495  23.226  0.00  0.00    +0.000 C 
ATOM     24  C   UNL     1      -0.688  14.175  22.896  0.00  0.00    +0.000 C 
ATOM     25  C   UNL     1      -1.294  12.975  23.002  0.00  0.00    +0.000 C 
ATOM     26  C   UNL     1      -2.693  12.894  23.565  0.00  0.00    +0.000 C 
ATOM     27  C   UNL     1      -3.031  14.135  24.392  0.00  0.00    +0.000 C 
BRANCH  20  29
ATOM     28  C   UNL     1      -6.065  16.843  22.822  0.00  0.00    +0.000 C 
ATOM     29  C   UNL     1      -5.081  16.360  23.900  0.00  0.00    +0.000 C 
ATOM     30  C   UNL     1      -5.107  17.338  25.082  0.00  0.00    +0.000 C 
BRANCH  29  31
ATOM     31  O   UNL     1      -5.582  15.098  24.330  0.00  0.00    +0.000 OA
ATOM     32  H   UNL     1      -5.972  15.217  25.214  0.00  0.00    +0.000 HD
ENDBRANCH  29  31
ENDBRANCH  20  29
ENDBRANCH   1  25
TORSDOF 4
ENDMDL
MODEL 5
REMARK VINA RESULT:      -7.8      2.137      3.094
REMARK  Name = 
REMARK  6 active torsions:
REMARK  status: ('A' for Active; 'I' for Inactive)
REMARK    1  A    between atoms: C_1  and  C_2
REMARK    2  A    between atoms: C_2  and  C_3
REMARK    3  A    between atoms: C_2  and  O_4
REMARK    4  A    between atoms: C_2  and  C_5
REMARK    5  A    between atoms: C_10  and  C_11
REMARK    6  A    between atoms: C_14  and  N_15
REMARK                            x       y       z     vdW  Elec       q    Type
REMARK                         _______ _______ _______ _____ _____    ______ ____
ROOT
ATOM      1  C   UNL     1       1.520   8.374  20.349  0.00  0.00    +0.000 A 
ATOM      2  C   UNL     1       1.244   8.474  21.709  0.00  0.00    +0.000 A 
ATOM      3  C   UNL     1       0.643   9.628  22.208  0.00  0.00    +0.000 A 
ATOM      4  C   UNL     1       0.333  10.679  21.352  0.00  0.00    +0.000 A 
ATOM      5  C   UNL     1       0.624  10.486  20.004  0.00  0.00    +0.000 A 
ATOM      6  N   UNL     1       1.210   9.371  19.484  0.00  0.00    +0.000 NA
ENDROOT
BRANCH   4   7
ATOM      7  N   UNL     1      -0.257  11.889  21.796  0.00  0.00    +0.000 N 
ATOM      8  C   UNL     1      -1.302  11.973  22.690  0.00  0.00    +0.000 C 
ATOM      9  O   UNL     1      -1.793  11.015  23.281  0.00  0.00    +0.000 OA
ATOM     10  N   UNL     1      -1.769  13.242  22.928  0.00  0.00    +0.000 N 
ATOM     11  C   UNL     1      -2.782  13.429  23.964  0.00  0.00    +0.000 C 
ATOM     12  C   UNL     1      -3.073  14.891  23.912  0.00  0.00    +0.000 A 
ATOM     13  C   UNL     1      -3.894  15.633  24.745  0.00  0.00    +0.000 A 
ATOM     14  C   UNL     1      -4.027  16.998  24.489  0.00  0.00    +0.000 A 
ATOM     15  C   UNL     1      -3.350  17.593  23.413  0.00  0.00    +0.000 A 
ATOM     16  C   UNL     1      -2.522  16.835  22.579  0.00  0.00    +0.000 A 
ATOM     17  C   UNL     1      -2.386  15.483  22.845  0.00  0.00    +0.000 A 
ATOM     18  C   UNL     1      -1.567  14.454  22.131  0.00  0.00    +0.000 C 
ATOM     19  H   UNL     1       0.291  12.728  21.684  0.00  0.00    +0.000 HD
ENDBRANCH   4   7
BRANCH   1  25
ATOM     20  C   UNL     1       4.441   3.785  19.123  0.00  0.00    +0.000 C 
ATOM     21  O   UNL     1       5.583   3.983  18.689  0.00  0.00    +0.000 OA
ATOM     22  N   UNL     1       3.461   4.765  18.992  0.00  0.00    +0.000 N 
ATOM     23  C   UNL     1       3.804   5.994  18.272  0.00  0.00    +0.000 C 
ATOM     24  C   UNL     1       3.065   7.193  18.808  0.00  0.00    +0.000 C 
ATOM     25  C   UNL     1       2.150   7.153  19.798  0.00  0.00    +0.000 C 
ATOM     26  C   UNL     1       1.745   5.822  20.385  0.00  0.00    +0.000 C 
ATOM     27  C   UNL     1       2.071   4.672  19.431  0.00  0.00    +0.000 C 
BRANCH  20  29
ATOM     28  C   UNL     1       3.244   1.596  18.659  0.00  0.00    +0.000 C 
ATOM     29  C   UNL     1       4.076   2.369  19.696  0.00  0.00    +0.000 C 
ATOM     30  C   UNL     1       3.233   2.591  20.958  0.00  0.00    +0.000 C 
BRANCH  29  31
ATOM     31  O   UNL     1       5.172   1.515  20.013  0.00  0.00    +0.000 OA
ATOM     32  H   UNL     1       5.326   0.932  19.249  0.00  0.00    +0.000 HD
ENDBRANCH  29  31
ENDBRANCH  20  29
ENDBRANCH   1  25
TORSDOF 4
ENDMDL
MODEL 6
REMARK VINA RESULT:      -7.6      1.086      1.460
REMARK  Name = 
REMARK  6 active torsions:
REMARK  status: ('A' for Active; 'I' for Inactive)
REMARK    1  A    between atoms: C_1  and  C_2
REMARK    2  A    between atoms: C_2  and  C_3
REMARK    3  A    between atoms: C_2  and  O_4
REMARK    4  A    between atoms: C_2  and  C_5
REMARK    5  A    between atoms: C_10  and  C_11
REMARK    6  A    between atoms: C_14  and  N_15
REMARK                            x       y       z     vdW  Elec       q    Type
REMARK                         _______ _______ _______ _____ _____    ______ ____
ROOT
ATOM      1  C   UNL     1       1.824   7.939  19.616  0.00  0.00    +0.000 A 
ATOM      2  C   UNL     1       1.186   7.808  20.845  0.00  0.00    +0.000 A 
ATOM      3  C   UNL     1       0.279   8.782  21.260  0.00  0.00    +0.000 A 
ATOM      4  C   UNL     1       0.026   9.886  20.454  0.00  0.00    +0.000 A 
ATOM      5  C   UNL     1       0.692   9.927  19.232  0.00  0.00    +0.000 A 
ATOM      6  N   UNL     1       1.582   8.992  18.797  0.00  0.00    +0.000 NA
ENDROOT
BRANCH   4   7
ATOM      7  N   UNL     1      -0.865  10.925  20.824  0.00  0.00    +0.000 N 
ATOM      8  C   UNL     1      -0.937  11.491  22.079  0.00  0.00    +0.000 C 
ATOM      9  O   UNL     1      -0.176  11.227  23.007  0.00  0.00    +0.000 OA
ATOM     10  N   UNL     1      -1.921  12.433  22.242  0.00  0.00    +0.000 N 
ATOM     11  C   UNL     1      -1.973  13.176  23.498  0.00  0.00    +0.000 C 
ATOM     12  C   UNL     1      -3.167  14.057  23.337  0.00  0.00    +0.000 A 
ATOM     13  C   UNL     1      -3.629  15.042  24.194  0.00  0.00    +0.000 A 
ATOM     14  C   UNL     1      -4.788  15.731  23.838  0.00  0.00    +0.000 A 
ATOM     15  C   UNL     1      -5.465  15.424  22.646  0.00  0.00    +0.000 A 
ATOM     16  C   UNL     1      -4.988  14.429  21.787  0.00  0.00    +0.000 A 
ATOM     17  C   UNL     1      -3.831  13.756  22.142  0.00  0.00    +0.000 A 
ATOM     18  C   UNL     1      -3.105  12.670  21.412  0.00  0.00    +0.000 C 
ATOM     19  H   UNL     1      -1.259  11.473  20.075  0.00  0.00    +0.000 HD
ENDBRANCH   4   7
BRANCH   1  25
ATOM     20  C   UNL     1       4.824   3.984  17.078  0.00  0.00    +0.000 C 
ATOM     21  O   UNL     1       4.396   2.829  17.204  0.00  0.00    +0.000 OA
ATOM     22  N   UNL     1       4.506   4.957  18.020  0.00  0.00    +0.000 N 
ATOM     23  C   UNL     1       3.714   4.558  19.187  0.00  0.00    +0.000 C 
ATOM     24  C   UNL     1       2.823   5.669  19.678  0.00  0.00    +0.000 C 
ATOM     25  C   UNL     1       2.783   6.911  19.154  0.00  0.00    +0.000 C 
ATOM     26  C   UNL     1       3.742   7.284  18.049  0.00  0.00    +0.000 C 
ATOM     27  C   UNL     1       4.951   6.348  18.022  0.00  0.00    +0.000 C 
BRANCH  20  29
ATOM     28  C   UNL     1       7.218   4.617  16.525  0.00  0.00    +0.000 C 
ATOM     29  C   UNL     1       5.840   4.299  15.922  0.00  0.00    +0.000 C 
ATOM     30  C   UNL     1       5.316   5.535  15.179  0.00  0.00    +0.000 C 
BRANCH  29  31
ATOM     31  O   UNL     1       6.071   3.254  14.982  0.00  0.00    +0.000 OA
ATOM     32  H   UNL     1       7.032   3.113  14.923  0.00  0.00    +0.000 HD
ENDBRANCH  29  31
ENDBRANCH  20  29
ENDBRANCH   1  25
TORSDOF 4
ENDMDL
MODEL 7
REMARK VINA RESULT:      -7.6      2.093      3.017
REMARK  Name = 
REMARK  6 active torsions:
REMARK  status: ('A' for Active; 'I' for Inactive)
REMARK    1  A    between atoms: C_1  and  C_2
REMARK    2  A    between atoms: C_2  and  C_3
REMARK    3  A    between atoms: C_2  and  O_4
REMARK    4  A    between atoms: C_2  and  C_5
REMARK    5  A    between atoms: C_10  and  C_11
REMARK    6  A    between atoms: C_14  and  N_15
REMARK                            x       y       z     vdW  Elec       q    Type
REMARK                         _______ _______ _______ _____ _____    ______ ____
ROOT
ATOM      1  C   UNL     1       1.256   8.418  20.595  0.00  0.00    +0.000 A 
ATOM      2  C   UNL     1       1.130   9.609  19.888  0.00  0.00    +0.000 A 
ATOM      3  C   UNL     1       0.532  10.713  20.494  0.00  0.00    +0.000 A 
ATOM      4  C   UNL     1       0.052  10.617  21.796  0.00  0.00    +0.000 A 
ATOM      5  C   UNL     1       0.238   9.396  22.437  0.00  0.00    +0.000 A 
ATOM      6  N   UNL     1       0.819   8.299  21.873  0.00  0.00    +0.000 NA
ENDROOT
BRANCH   4   7
ATOM      7  N   UNL     1      -0.588  11.692  22.464  0.00  0.00    +0.000 N 
ATOM      8  C   UNL     1      -1.718  12.339  22.012  0.00  0.00    +0.000 C 
ATOM      9  O   UNL     1      -2.362  12.007  21.020  0.00  0.00    +0.000 OA
ATOM     10  N   UNL     1      -2.130  13.401  22.777  0.00  0.00    +0.000 N 
ATOM     11  C   UNL     1      -3.395  14.052  22.442  0.00  0.00    +0.000 C 
ATOM     12  C   UNL     1      -3.493  15.162  23.434  0.00  0.00    +0.000 A 
ATOM     13  C   UNL     1      -4.542  16.044  23.634  0.00  0.00    +0.000 A 
ATOM     14  C   UNL     1      -4.399  17.021  24.620  0.00  0.00    +0.000 A 
ATOM     15  C   UNL     1      -3.220  17.105  25.378  0.00  0.00    +0.000 A 
ATOM     16  C   UNL     1      -2.168  16.207  25.170  0.00  0.00    +0.000 A 
ATOM     17  C   UNL     1      -2.321  15.233  24.197  0.00  0.00    +0.000 A 
ATOM     18  C   UNL     1      -1.372  14.154  23.779  0.00  0.00    +0.000 C 
ATOM     19  H   UNL     1      -0.387  11.798  23.446  0.00  0.00    +0.000 HD
ENDBRANCH   4   7
BRANCH   1  25
ATOM     20  C   UNL     1       4.276   3.993  19.052  0.00  0.00    +0.000 C 
ATOM     21  O   UNL     1       5.372   4.251  18.536  0.00  0.00    +0.000 OA
ATOM     22  N   UNL     1       3.247   4.928  19.017  0.00  0.00    +0.000 N 
ATOM     23  C   UNL     1       3.477   6.185  18.300  0.00  0.00    +0.000 C 
ATOM     24  C   UNL     1       2.729   7.338  18.916  0.00  0.00    +0.000 C 
ATOM     25  C   UNL     1       1.896   7.238  19.972  0.00  0.00    +0.000 C 
ATOM     26  C   UNL     1       1.598   5.880  20.559  0.00  0.00    +0.000 C 
ATOM     27  C   UNL     1       1.900   4.763  19.559  0.00  0.00    +0.000 C 
BRANCH  20  29
ATOM     28  C   UNL     1       3.215   1.733  18.598  0.00  0.00    +0.000 C 
ATOM     29  C   UNL     1       4.022   2.551  19.620  0.00  0.00    +0.000 C 
ATOM     30  C   UNL     1       3.199   2.707  20.906  0.00  0.00    +0.000 C 
BRANCH  29  31
ATOM     31  O   UNL     1       5.179   1.769  19.901  0.00  0.00    +0.000 OA
ATOM     32  H   UNL     1       5.713   1.725  19.088  0.00  0.00    +0.000 HD
ENDBRANCH  29  31
ENDBRANCH  20  29
ENDBRANCH   1  25
TORSDOF 4
ENDMDL
MODEL 8
REMARK VINA RESULT:      -7.5      1.323      2.126
REMARK  Name = 
REMARK  6 active torsions:
REMARK  status: ('A' for Active; 'I' for Inactive)
REMARK    1  A    between atoms: C_1  and  C_2
REMARK    2  A    between atoms: C_2  and  C_3
REMARK    3  A    between atoms: C_2  and  O_4
REMARK    4  A    between atoms: C_2  and  C_5
REMARK    5  A    between atoms: C_10  and  C_11
REMARK    6  A    between atoms: C_14  and  N_15
REMARK                            x       y       z     vdW  Elec       q    Type
REMARK                         _______ _______ _______ _____ _____    ______ ____
ROOT
ATOM      1  C   UNL     1       1.380   8.866  19.375  0.00  0.00    +0.000 A 
ATOM      2  C   UNL     1       0.995   8.661  20.696  0.00  0.00    +0.000 A 
ATOM      3  C   UNL     1       0.053   9.507  21.279  0.00  0.00    +0.000 A 
ATOM      4  C   UNL     1      -0.487  10.559  20.548  0.00  0.00    +0.000 A 
ATOM      5  C   UNL     1      -0.061  10.678  19.227  0.00  0.00    +0.000 A 
ATOM      6  N   UNL     1       0.857   9.869  18.628  0.00  0.00    +0.000 NA
ENDROOT
BRANCH   4   7
ATOM      7  N   UNL     1      -1.430  11.471  21.085  0.00  0.00    +0.000 N 
ATOM      8  C   UNL     1      -1.120  12.522  21.921  0.00  0.00    +0.000 C 
ATOM      9  O   UNL     1       0.022  12.853  22.232  0.00  0.00    +0.000 OA
ATOM     10  N   UNL     1      -2.195  13.238  22.385  0.00  0.00    +0.000 N 
ATOM     11  C   UNL     1      -1.942  14.449  23.164  0.00  0.00    +0.000 C 
ATOM     12  C   UNL     1      -3.308  14.926  23.527  0.00  0.00    +0.000 A 
ATOM     13  C   UNL     1      -3.664  16.090  24.186  0.00  0.00    +0.000 A 
ATOM     14  C   UNL     1      -5.019  16.318  24.432  0.00  0.00    +0.000 A 
ATOM     15  C   UNL     1      -5.986  15.384  24.026  0.00  0.00    +0.000 A 
ATOM     16  C   UNL     1      -5.616  14.213  23.358  0.00  0.00    +0.000 A 
ATOM     17  C   UNL     1      -4.271  13.999  23.107  0.00  0.00    +0.000 A 
ATOM     18  C   UNL     1      -3.607  12.852  22.411  0.00  0.00    +0.000 C 
ATOM     19  H   UNL     1      -2.318  11.536  20.613  0.00  0.00    +0.000 HD
ENDBRANCH   4   7
BRANCH   1  25
ATOM     20  C   UNL     1       5.800   6.056  17.461  0.00  0.00    +0.000 C 
ATOM     21  O   UNL     1       6.412   6.598  16.532  0.00  0.00    +0.000 OA
ATOM     22  N   UNL     1       4.460   6.355  17.687  0.00  0.00    +0.000 N 
ATOM     23  C   UNL     1       3.789   7.270  16.759  0.00  0.00    +0.000 C 
ATOM     24  C   UNL     1       2.723   8.089  17.438  0.00  0.00    +0.000 C 
ATOM     25  C   UNL     1       2.372   7.973  18.735  0.00  0.00    +0.000 C 
ATOM     26  C   UNL     1       3.011   6.901  19.585  0.00  0.00    +0.000 C 
ATOM     27  C   UNL     1       3.601   5.786  18.722  0.00  0.00    +0.000 C 
BRANCH  20  29
ATOM     28  C   UNL     1       7.032   5.516  19.612  0.00  0.00    +0.000 C 
ATOM     29  C   UNL     1       6.513   4.928  18.290  0.00  0.00    +0.000 C 
ATOM     30  C   UNL     1       7.701   4.432  17.456  0.00  0.00    +0.000 C 
BRANCH  29  31
ATOM     31  O   UNL     1       5.708   3.814  18.662  0.00  0.00    +0.000 OA
ATOM     32  H   UNL     1       5.117   4.100  19.381  0.00  0.00    +0.000 HD
ENDBRANCH  29  31
ENDBRANCH  20  29
ENDBRANCH   1  25
TORSDOF 4
ENDMDL
MODEL 9
REMARK VINA RESULT:      -7.5      2.550     11.996
REMARK  Name = 
REMARK  6 active torsions:
REMARK  status: ('A' for Active; 'I' for Inactive)
REMARK    1  A    between atoms: C_1  and  C_2
REMARK    2  A    between atoms: C_2  and  C_3
REMARK    3  A    between atoms: C_2  and  O_4
REMARK    4  A    between atoms: C_2  and  C_5
REMARK    5  A    between atoms: C_10  and  C_11
REMARK    6  A    between atoms: C_14  and  N_15
REMARK                            x       y       z     vdW  Elec       q    Type
REMARK                         _______ _______ _______ _____ _____    ______ ____
ROOT
ATOM      1  C   UNL     1      -0.958  11.529  22.554  0.00  0.00    +0.000 A 
ATOM      2  C   UNL     1      -0.126  11.659  21.446  0.00  0.00    +0.000 A 
ATOM      3  C   UNL     1       0.575  10.549  20.976  0.00  0.00    +0.000 A 
ATOM      4  C   UNL     1       0.452   9.323  21.620  0.00  0.00    +0.000 A 
ATOM      5  C   UNL     1      -0.418   9.279  22.706  0.00  0.00    +0.000 A 
ATOM      6  N   UNL     1      -1.117  10.343  23.191  0.00  0.00    +0.000 NA
ENDROOT
BRANCH   4   7
ATOM      7  N   UNL     1       1.153   8.161  21.210  0.00  0.00    +0.000 N 
ATOM      8  C   UNL     1       1.660   7.953  19.946  0.00  0.00    +0.000 C 
ATOM      9  O   UNL     1       1.646   8.787  19.043  0.00  0.00    +0.000 OA
ATOM     10  N   UNL     1       2.241   6.726  19.741  0.00  0.00    +0.000 N 
ATOM     11  C   UNL     1       2.923   6.481  18.473  0.00  0.00    +0.000 C 
ATOM     12  C   UNL     1       3.380   5.065  18.587  0.00  0.00    +0.000 A 
ATOM     13  C   UNL     1       4.164   4.342  17.704  0.00  0.00    +0.000 A 
ATOM     14  C   UNL     1       4.452   3.014  18.018  0.00  0.00    +0.000 A 
ATOM     15  C   UNL     1       3.952   2.432  19.194  0.00  0.00    +0.000 A 
ATOM     16  C   UNL     1       3.164   3.173  20.081  0.00  0.00    +0.000 A 
ATOM     17  C   UNL     1       2.891   4.494  19.768  0.00  0.00    +0.000 A 
ATOM     18  C   UNL     1       2.095   5.504  20.534  0.00  0.00    +0.000 C 
ATOM     19  H   UNL     1       1.551   7.591  21.940  0.00  0.00    +0.000 HD
ENDBRANCH   4   7
BRANCH   1  25
ATOM     20  C   UNL     1      -4.012  16.098  23.498  0.00  0.00    +0.000 C 
ATOM     21  O   UNL     1      -3.428  17.174  23.318  0.00  0.00    +0.000 OA
ATOM     22  N   UNL     1      -3.288  14.947  23.791  0.00  0.00    +0.000 N 
ATOM     23  C   UNL     1      -1.835  15.063  23.945  0.00  0.00    +0.000 C 
ATOM     24  C   UNL     1      -1.113  13.818  23.502  0.00  0.00    +0.000 C 
ATOM     25  C   UNL     1      -1.717  12.694  23.063  0.00  0.00    +0.000 C 
ATOM     26  C   UNL     1      -3.224  12.604  23.077  0.00  0.00    +0.000 C 
ATOM     27  C   UNL     1      -3.832  13.616  24.049  0.00  0.00    +0.000 C 
BRANCH  20  29
ATOM     28  C   UNL     1      -6.116  15.668  22.146  0.00  0.00    +0.000 C 
ATOM     29  C   UNL     1      -5.583  16.078  23.528  0.00  0.00    +0.000 C 
ATOM     30  C   UNL     1      -6.050  17.504  23.849  0.00  0.00    +0.000 C 
BRANCH  29  31
ATOM     31  O   UNL     1      -6.185  15.173  24.449  0.00  0.00    +0.000 OA
ATOM     32  H   UNL     1      -5.515  14.512  24.698  0.00  0.00    +0.000 HD
ENDBRANCH  29  31
ENDBRANCH  20  29
ENDBRANCH   1  25
TORSDOF 4
ENDMDL
