MODEL 1
REMARK VINA RESULT:      -9.4      0.000      0.000
REMARK  Name = 
REMARK  8 active torsions:
REMARK  status: ('A' for Active; 'I' for Inactive)
REMARK    1  A    between atoms: C_1  and  O_2
REMARK    2  A    between atoms: O_2  and  C_3
REMARK    3  A    between atoms: C_8  and  O_9
REMARK    4  A    between atoms: O_9  and  C_10
REMARK    5  A    between atoms: C_10  and  C_11
REMARK    6  A    between atoms: C_20  and  C_21
REMARK    7  A    between atoms: C_24  and  C_25
REMARK    8  A    between atoms: C_28  and  O_29
REMARK                            x       y       z     vdW  Elec       q    Type
REMARK                         _______ _______ _______ _____ _____    ______ ____
ROOT
ATOM      1  C   UNL     1       4.009   3.898  18.776  0.00  0.00    +0.000 A 
ATOM      2  C   UNL     1       3.366   4.685  19.750  0.00  0.00    +0.000 A 
ATOM      3  C   UNL     1       2.955   5.956  19.408  0.00  0.00    +0.000 A 
ATOM      4  C   UNL     1       3.259   6.476  18.128  0.00  0.00    +0.000 A 
ATOM      5  C   UNL     1       3.970   5.765  17.191  0.00  0.00    +0.000 A 
ATOM      6  C   UNL     1       4.369   4.459  17.521  0.00  0.00    +0.000 A 
ATOM      7  C   UNL     1       2.669   7.769  18.087  0.00  0.00    +0.000 A 
ATOM      8  N   UNL     1       2.562   8.749  17.211  0.00  0.00    +0.000 NA
ATOM      9  N   UNL     1       1.818   9.654  17.897  0.00  0.00    +0.000 N 
ATOM     10  C   UNL     1       1.432   9.252  19.168  0.00  0.00    +0.000 A 
ATOM     11  C   UNL     1       2.012   8.014  19.301  0.00  0.00    +0.000 A 
ATOM     12  C   UNL     1       2.111   6.899  20.278  0.00  0.00    +0.000 C 
ATOM     13  H   UNL     1       1.608  10.537  17.443  0.00  0.00    +0.000 HD
ENDROOT
BRANCH  10  14
ATOM     14  C   UNL     1       0.612  10.054  20.071  0.00  0.00    +0.000 A 
ATOM     15  C   UNL     1      -0.291  10.993  19.572  0.00  0.00    +0.000 A 
ATOM     16  C   UNL     1      -1.048  11.789  20.440  0.00  0.00    +0.000 A 
ATOM     17  C   UNL     1      -0.952  11.660  21.837  0.00  0.00    +0.000 A 
ATOM     18  C   UNL     1      -0.068  10.686  22.325  0.00  0.00    +0.000 A 
ATOM     19  C   UNL     1       0.708   9.900  21.458  0.00  0.00    +0.000 A 
BRANCH  17  20
ATOM     20  C   UNL     1      -1.740  12.529  22.742  0.00  0.00    +0.000 A 
ATOM     21  C   UNL     1      -1.240  13.770  23.184  0.00  0.00    +0.000 A 
ATOM     22  C   UNL     1      -1.956  14.577  24.075  0.00  0.00    +0.000 A 
ATOM     23  C   UNL     1      -3.201  14.160  24.524  0.00  0.00    +0.000 A 
ATOM     24  C   UNL     1      -3.734  12.951  24.098  0.00  0.00    +0.000 A 
ATOM     25  C   UNL     1      -3.007  12.142  23.219  0.00  0.00    +0.000 A 
BRANCH  23  26
ATOM     26  O   UNL     1      -3.932  14.912  25.391  0.00  0.00    +0.000 OA
ATOM     27  H   UNL     1      -3.384  15.653  25.693  0.00  0.00    +0.000 HD
ENDBRANCH  23  26
ENDBRANCH  17  20
ENDBRANCH  10  14
BRANCH   1  29
ATOM     28  C   UNL     1       4.185   2.152  20.379  0.00  0.00    +0.000 C 
ATOM     29  O   UNL     1       4.275   2.571  19.015  0.00  0.00    +0.000 OA
ENDBRANCH   1  29
BRANCH   6  30
ATOM     30  O   UNL     1       5.065   3.840  16.500  0.00  0.00    +0.000 OA
BRANCH  30  31
ATOM     31  C   UNL     1       6.296   4.440  16.107  0.00  0.00    +0.000 C 
BRANCH  31  32
ATOM     32  C   UNL     1       6.560   4.278  14.621  0.00  0.00    +0.000 A 
ATOM     33  C   UNL     1       5.780   3.459  13.799  0.00  0.00    +0.000 A 
ATOM     34  C   UNL     1       6.015   3.466  12.430  0.00  0.00    +0.000 A 
ATOM     35  N   UNL     1       6.958   4.226  11.829  0.00  0.00    +0.000 NA
ATOM     36  C   UNL     1       7.705   5.006  12.637  0.00  0.00    +0.000 A 
ATOM     37  C   UNL     1       7.547   5.064  14.014  0.00  0.00    +0.000 A 
ENDBRANCH  31  32
ENDBRANCH  30  31
ENDBRANCH   6  30
TORSDOF 7
ENDMDL
MODEL 2
REMARK VINA RESULT:      -9.3      1.005      1.333
REMARK  Name = 
REMARK  8 active torsions:
REMARK  status: ('A' for Active; 'I' for Inactive)
REMARK    1  A    between atoms: C_1  and  O_2
REMARK    2  A    between atoms: O_2  and  C_3
REMARK    3  A    between atoms: C_8  and  O_9
REMARK    4  A    between atoms: O_9  and  C_10
REMARK    5  A    between atoms: C_10  and  C_11
REMARK    6  A    between atoms: C_20  and  C_21
REMARK    7  A    between atoms: C_24  and  C_25
REMARK    8  A    between atoms: C_28  and  O_29
REMARK                            x       y       z     vdW  Elec       q    Type
REMARK                         _______ _______ _______ _____ _____    ______ ____
ROOT
ATOM      1  C   UNL     1       4.054   4.494  19.141  0.00  0.00    +0.000 A 
ATOM      2  C   UNL     1       3.271   5.277  20.010  0.00  0.00    +0.000 A 
ATOM      3  C   UNL     1       2.813   6.500  19.568  0.00  0.00    +0.000 A 
ATOM      4  C   UNL     1       3.204   6.983  18.296  0.00  0.00    +0.000 A 
ATOM      5  C   UNL     1       4.047   6.282  17.467  0.00  0.00    +0.000 A 
ATOM      6  C   UNL     1       4.496   5.023  17.898  0.00  0.00    +0.000 A 
ATOM      7  C   UNL     1       2.539   8.229  18.135  0.00  0.00    +0.000 A 
ATOM      8  N   UNL     1       2.453   9.159  17.205  0.00  0.00    +0.000 NA
ATOM      9  N   UNL     1       1.589  10.040  17.772  0.00  0.00    +0.000 N 
ATOM     10  C   UNL     1       1.109   9.669  19.020  0.00  0.00    +0.000 A 
ATOM     11  C   UNL     1       1.754   8.481  19.269  0.00  0.00    +0.000 A 
ATOM     12  C   UNL     1       1.830   7.420  20.306  0.00  0.00    +0.000 C 
ATOM     13  H   UNL     1       1.367  10.885  17.256  0.00  0.00    +0.000 HD
ENDROOT
BRANCH  10  14
ATOM     14  C   UNL     1       0.156  10.451  19.801  0.00  0.00    +0.000 A 
ATOM     15  C   UNL     1       0.255  10.515  21.192  0.00  0.00    +0.000 A 
ATOM     16  C   UNL     1      -0.683  11.233  21.944  0.00  0.00    +0.000 A 
ATOM     17  C   UNL     1      -1.739  11.935  21.335  0.00  0.00    +0.000 A 
ATOM     18  C   UNL     1      -1.805  11.893  19.934  0.00  0.00    +0.000 A 
ATOM     19  C   UNL     1      -0.878  11.157  19.179  0.00  0.00    +0.000 A 
BRANCH  17  20
ATOM     20  C   UNL     1      -2.740  12.667  22.146  0.00  0.00    +0.000 A 
ATOM     21  C   UNL     1      -3.309  13.872  21.692  0.00  0.00    +0.000 A 
ATOM     22  C   UNL     1      -4.220  14.595  22.470  0.00  0.00    +0.000 A 
ATOM     23  C   UNL     1      -4.592  14.107  23.715  0.00  0.00    +0.000 A 
ATOM     24  C   UNL     1      -4.065  12.915  24.190  0.00  0.00    +0.000 A 
ATOM     25  C   UNL     1      -3.143  12.204  23.414  0.00  0.00    +0.000 A 
BRANCH  23  26
ATOM     26  O   UNL     1      -5.475  14.777  24.505  0.00  0.00    +0.000 OA
ATOM     27  H   UNL     1      -6.080  15.277  23.935  0.00  0.00    +0.000 HD
ENDBRANCH  23  26
ENDBRANCH  17  20
ENDBRANCH  10  14
BRANCH   1  29
ATOM     28  C   UNL     1       3.372   2.219  19.227  0.00  0.00    +0.000 C 
ATOM     29  O   UNL     1       4.382   3.201  19.471  0.00  0.00    +0.000 OA
ENDBRANCH   1  29
BRANCH   6  30
ATOM     30  O   UNL     1       5.325   4.410  16.979  0.00  0.00    +0.000 OA
BRANCH  30  31
ATOM     31  C   UNL     1       4.744   4.052  15.728  0.00  0.00    +0.000 C 
BRANCH  31  32
ATOM     32  C   UNL     1       5.739   4.152  14.587  0.00  0.00    +0.000 A 
ATOM     33  C   UNL     1       5.557   3.498  13.365  0.00  0.00    +0.000 A 
ATOM     34  C   UNL     1       6.454   3.744  12.334  0.00  0.00    +0.000 A 
ATOM     35  N   UNL     1       7.505   4.589  12.432  0.00  0.00    +0.000 NA
ATOM     36  C   UNL     1       7.669   5.208  13.618  0.00  0.00    +0.000 A 
ATOM     37  C   UNL     1       6.829   5.023  14.707  0.00  0.00    +0.000 A 
ENDBRANCH  31  32
ENDBRANCH  30  31
ENDBRANCH   6  30
TORSDOF 7
ENDMDL
MODEL 3
REMARK VINA RESULT:      -9.3      0.954      1.558
REMARK  Name = 
REMARK  8 active torsions:
REMARK  status: ('A' for Active; 'I' for Inactive)
REMARK    1  A    between atoms: C_1  and  O_2
REMARK    2  A    between atoms: O_2  and  C_3
REMARK    3  A    between atoms: C_8  and  O_9
REMARK    4  A    between atoms: O_9  and  C_10
REMARK    5  A    between atoms: C_10  and  C_11
REMARK    6  A    between atoms: C_20  and  C_21
REMARK    7  A    between atoms: C_24  and  C_25
REMARK    8  A    between atoms: C_28  and  O_29
REMARK                            x       y       z     vdW  Elec       q    Type
REMARK                         _______ _______ _______ _____ _____    ______ ____
ROOT
ATOM      1  C   UNL     1       3.901   4.404  19.060  0.00  0.00    +0.000 A 
ATOM      2  C   UNL     1       3.105   5.171  19.931  0.00  0.00    +0.000 A 
ATOM      3  C   UNL     1       2.693   6.423  19.521  0.00  0.00    +0.000 A 
ATOM      4  C   UNL     1       3.143   6.944  18.285  0.00  0.00    +0.000 A 
ATOM      5  C   UNL     1       4.000   6.256  17.460  0.00  0.00    +0.000 A 
ATOM      6  C   UNL     1       4.402   4.970  17.857  0.00  0.00    +0.000 A 
ATOM      7  C   UNL     1       2.514   8.212  18.150  0.00  0.00    +0.000 A 
ATOM      8  N   UNL     1       2.486   9.180  17.255  0.00  0.00    +0.000 NA
ATOM      9  N   UNL     1       1.622  10.060  17.824  0.00  0.00    +0.000 N 
ATOM     10  C   UNL     1       1.087   9.652  19.039  0.00  0.00    +0.000 A 
ATOM     11  C   UNL     1       1.693   8.440  19.263  0.00  0.00    +0.000 A 
ATOM     12  C   UNL     1       1.705   7.337  20.259  0.00  0.00    +0.000 C 
ATOM     13  H   UNL     1       1.439  10.929  17.335  0.00  0.00    +0.000 HD
ENDROOT
BRANCH  10  14
ATOM     14  C   UNL     1       0.124  10.426  19.815  0.00  0.00    +0.000 A 
ATOM     15  C   UNL     1       0.167  10.427  21.210  0.00  0.00    +0.000 A 
ATOM     16  C   UNL     1      -0.782  11.139  21.955  0.00  0.00    +0.000 A 
ATOM     17  C   UNL     1      -1.792  11.897  21.336  0.00  0.00    +0.000 A 
ATOM     18  C   UNL     1      -1.801  11.917  19.932  0.00  0.00    +0.000 A 
ATOM     19  C   UNL     1      -0.864  11.189  19.183  0.00  0.00    +0.000 A 
BRANCH  17  20
ATOM     20  C   UNL     1      -2.805  12.622  22.138  0.00  0.00    +0.000 A 
ATOM     21  C   UNL     1      -2.695  12.722  23.538  0.00  0.00    +0.000 A 
ATOM     22  C   UNL     1      -3.670  13.365  24.309  0.00  0.00    +0.000 A 
ATOM     23  C   UNL     1      -4.767  13.938  23.683  0.00  0.00    +0.000 A 
ATOM     24  C   UNL     1      -4.902  13.874  22.303  0.00  0.00    +0.000 A 
ATOM     25  C   UNL     1      -3.932  13.218  21.539  0.00  0.00    +0.000 A 
BRANCH  23  26
ATOM     26  O   UNL     1      -5.739  14.573  24.392  0.00  0.00    +0.000 OA
ATOM     27  H   UNL     1      -6.580  14.114  24.240  0.00  0.00    +0.000 HD
ENDBRANCH  23  26
ENDBRANCH  17  20
ENDBRANCH  10  14
BRANCH   1  29
ATOM     28  C   UNL     1       3.085   2.182  19.276  0.00  0.00    +0.000 C 
ATOM     29  O   UNL     1       4.186   3.091  19.350  0.00  0.00    +0.000 OA
ENDBRANCH   1  29
BRANCH   6  30
ATOM     30  O   UNL     1       5.251   4.372  16.945  0.00  0.00    +0.000 OA
BRANCH  30  31
ATOM     31  C   UNL     1       6.244   5.203  16.351  0.00  0.00    +0.000 C 
BRANCH  31  32
ATOM     32  C   UNL     1       6.461   4.875  14.886  0.00  0.00    +0.000 A 
ATOM     33  C   UNL     1       7.516   5.408  14.139  0.00  0.00    +0.000 A 
ATOM     34  C   UNL     1       7.711   4.958  12.840  0.00  0.00    +0.000 A 
ATOM     35  N   UNL     1       6.942   4.021  12.240  0.00  0.00    +0.000 NA
ATOM     36  C   UNL     1       5.926   3.521  12.972  0.00  0.00    +0.000 A 
ATOM     37  C   UNL     1       5.650   3.911  14.275  0.00  0.00    +0.000 A 
ENDBRANCH  31  32
ENDBRANCH  30  31
ENDBRANCH   6  30
TORSDOF 7
ENDMDL
MODEL 4
REMARK VINA RESULT:      -9.2      1.017      1.462
REMARK  Name = 
REMARK  8 active torsions:
REMARK  status: ('A' for Active; 'I' for Inactive)
REMARK    1  A    between atoms: C_1  and  O_2
REMARK    2  A    between atoms: O_2  and  C_3
REMARK    3  A    between atoms: C_8  and  O_9
REMARK    4  A    between atoms: O_9  and  C_10
REMARK    5  A    between atoms: C_10  and  C_11
REMARK    6  A    between atoms: C_20  and  C_21
REMARK    7  A    between atoms: C_24  and  C_25
REMARK    8  A    between atoms: C_28  and  O_29
REMARK                            x       y       z     vdW  Elec       q    Type
REMARK                         _______ _______ _______ _____ _____    ______ ____
ROOT
ATOM      1  C   UNL     1       4.136   4.652  18.951  0.00  0.00    +0.000 A 
ATOM      2  C   UNL     1       3.308   5.360  19.843  0.00  0.00    +0.000 A 
ATOM      3  C   UNL     1       2.826   6.595  19.461  0.00  0.00    +0.000 A 
ATOM      4  C   UNL     1       3.236   7.162  18.231  0.00  0.00    +0.000 A 
ATOM      5  C   UNL     1       4.120   6.536  17.385  0.00  0.00    +0.000 A 
ATOM      6  C   UNL     1       4.593   5.266  17.754  0.00  0.00    +0.000 A 
ATOM      7  C   UNL     1       2.539   8.397  18.126  0.00  0.00    +0.000 A 
ATOM      8  N   UNL     1       2.450   9.379  17.250  0.00  0.00    +0.000 NA
ATOM      9  N   UNL     1       1.546  10.200  17.844  0.00  0.00    +0.000 N 
ATOM     10  C   UNL     1       1.046   9.742  19.055  0.00  0.00    +0.000 A 
ATOM     11  C   UNL     1       1.718   8.560  19.251  0.00  0.00    +0.000 A 
ATOM     12  C   UNL     1       1.798   7.441  20.225  0.00  0.00    +0.000 C 
ATOM     13  H   UNL     1       1.313  11.068  17.373  0.00  0.00    +0.000 HD
ENDROOT
BRANCH  10  14
ATOM     14  C   UNL     1       0.051  10.450  19.854  0.00  0.00    +0.000 A 
ATOM     15  C   UNL     1      -1.018  11.108  19.245  0.00  0.00    +0.000 A 
ATOM     16  C   UNL     1      -1.950  11.820  20.010  0.00  0.00    +0.000 A 
ATOM     17  C   UNL     1      -1.865  11.879  21.413  0.00  0.00    +0.000 A 
ATOM     18  C   UNL     1      -0.807  11.182  22.015  0.00  0.00    +0.000 A 
ATOM     19  C   UNL     1       0.141  10.484  21.250  0.00  0.00    +0.000 A 
BRANCH  17  20
ATOM     20  C   UNL     1      -2.843  12.659  22.207  0.00  0.00    +0.000 A 
ATOM     21  C   UNL     1      -4.173  12.825  21.772  0.00  0.00    +0.000 A 
ATOM     22  C   UNL     1      -5.091  13.597  22.490  0.00  0.00    +0.000 A 
ATOM     23  C   UNL     1      -4.695  14.204  23.674  0.00  0.00    +0.000 A 
ATOM     24  C   UNL     1      -3.399  14.051  24.143  0.00  0.00    +0.000 A 
ATOM     25  C   UNL     1      -2.480  13.289  23.413  0.00  0.00    +0.000 A 
BRANCH  23  26
ATOM     26  O   UNL     1      -5.555  14.964  24.405  0.00  0.00    +0.000 OA
ATOM     27  H   UNL     1      -5.701  15.801  23.936  0.00  0.00    +0.000 HD
ENDBRANCH  23  26
ENDBRANCH  17  20
ENDBRANCH  10  14
BRANCH   1  29
ATOM     28  C   UNL     1       3.414   2.445  19.459  0.00  0.00    +0.000 C 
ATOM     29  O   UNL     1       4.492   3.351  19.213  0.00  0.00    +0.000 OA
ENDBRANCH   1  29
BRANCH   6  30
ATOM     30  O   UNL     1       5.464   4.732  16.823  0.00  0.00    +0.000 OA
BRANCH  30  31
ATOM     31  C   UNL     1       4.880   4.063  15.709  0.00  0.00    +0.000 C 
BRANCH  31  32
ATOM     32  C   UNL     1       5.705   4.231  14.447  0.00  0.00    +0.000 A 
ATOM     33  C   UNL     1       6.887   4.977  14.409  0.00  0.00    +0.000 A 
ATOM     34  C   UNL     1       7.644   4.976  13.245  0.00  0.00    +0.000 A 
ATOM     35  N   UNL     1       7.312   4.289  12.129  0.00  0.00    +0.000 NA
ATOM     36  C   UNL     1       6.167   3.579  12.179  0.00  0.00    +0.000 A 
ATOM     37  C   UNL     1       5.345   3.521  13.295  0.00  0.00    +0.000 A 
ENDBRANCH  31  32
ENDBRANCH  30  31
ENDBRANCH   6  30
TORSDOF 7
ENDMDL
MODEL 5
REMARK VINA RESULT:      -9.1      2.098      2.607
REMARK  Name = 
REMARK  8 active torsions:
REMARK  status: ('A' for Active; 'I' for Inactive)
REMARK    1  A    between atoms: C_1  and  O_2
REMARK    2  A    between atoms: O_2  and  C_3
REMARK    3  A    between atoms: C_8  and  O_9
REMARK    4  A    between atoms: O_9  and  C_10
REMARK    5  A    between atoms: C_10  and  C_11
REMARK    6  A    between atoms: C_20  and  C_21
REMARK    7  A    between atoms: C_24  and  C_25
REMARK    8  A    between atoms: C_28  and  O_29
REMARK                            x       y       z     vdW  Elec       q    Type
REMARK                         _______ _______ _______ _____ _____    ______ ____
ROOT
ATOM      1  C   UNL     1       3.240   4.512  19.468  0.00  0.00    +0.000 A 
ATOM      2  C   UNL     1       2.602   5.380  20.374  0.00  0.00    +0.000 A 
ATOM      3  C   UNL     1       2.232   6.636  19.937  0.00  0.00    +0.000 A 
ATOM      4  C   UNL     1       2.575   7.058  18.631  0.00  0.00    +0.000 A 
ATOM      5  C   UNL     1       3.283   6.266  17.759  0.00  0.00    +0.000 A 
ATOM      6  C   UNL     1       3.639   4.976  18.186  0.00  0.00    +0.000 A 
ATOM      7  C   UNL     1       2.022   8.361  18.490  0.00  0.00    +0.000 A 
ATOM      8  N   UNL     1       1.959   9.281  17.547  0.00  0.00    +0.000 NA
ATOM      9  N   UNL     1       1.228  10.250  18.154  0.00  0.00    +0.000 N 
ATOM     10  C   UNL     1       0.807   9.947  19.442  0.00  0.00    +0.000 A 
ATOM     11  C   UNL     1       1.350   8.706  19.671  0.00  0.00    +0.000 A 
ATOM     12  C   UNL     1       1.399   7.658  20.723  0.00  0.00    +0.000 C 
ATOM     13  H   UNL     1       1.051  11.105  17.637  0.00  0.00    +0.000 HD
ENDROOT
BRANCH  10  14
ATOM     14  C   UNL     1      -0.007  10.830  20.271  0.00  0.00    +0.000 A 
ATOM     15  C   UNL     1      -0.744  11.868  19.700  0.00  0.00    +0.000 A 
ATOM     16  C   UNL     1      -1.493  12.739  20.500  0.00  0.00    +0.000 A 
ATOM     17  C   UNL     1      -1.555  12.592  21.898  0.00  0.00    +0.000 A 
ATOM     18  C   UNL     1      -0.839  11.521  22.456  0.00  0.00    +0.000 A 
ATOM     19  C   UNL     1      -0.071  10.659  21.658  0.00  0.00    +0.000 A 
BRANCH  17  20
ATOM     20  C   UNL     1      -2.330  13.538  22.734  0.00  0.00    +0.000 A 
ATOM     21  C   UNL     1      -1.724  14.250  23.786  0.00  0.00    +0.000 A 
ATOM     22  C   UNL     1      -2.456  15.111  24.611  0.00  0.00    +0.000 A 
ATOM     23  C   UNL     1      -3.812  15.289  24.378  0.00  0.00    +0.000 A 
ATOM     24  C   UNL     1      -4.442  14.618  23.340  0.00  0.00    +0.000 A 
ATOM     25  C   UNL     1      -3.708  13.747  22.528  0.00  0.00    +0.000 A 
BRANCH  23  26
ATOM     26  O   UNL     1      -4.564  16.117  25.154  0.00  0.00    +0.000 OA
ATOM     27  H   UNL     1      -4.530  17.009  24.774  0.00  0.00    +0.000 HD
ENDBRANCH  23  26
ENDBRANCH  17  20
ENDBRANCH  10  14
BRANCH   1  29
ATOM     28  C   UNL     1       2.467   2.266  19.380  0.00  0.00    +0.000 C 
ATOM     29  O   UNL     1       3.465   3.198  19.803  0.00  0.00    +0.000 OA
ENDBRANCH   1  29
BRANCH   6  30
ATOM     30  O   UNL     1       4.336   4.270  17.224  0.00  0.00    +0.000 OA
BRANCH  30  31
ATOM     31  C   UNL     1       5.193   5.023  16.370  0.00  0.00    +0.000 C 
BRANCH  31  32
ATOM     32  C   UNL     1       6.317   5.693  17.137  0.00  0.00    +0.000 A 
ATOM     33  C   UNL     1       6.678   7.029  16.938  0.00  0.00    +0.000 A 
ATOM     34  C   UNL     1       7.634   7.596  17.770  0.00  0.00    +0.000 A 
ATOM     35  N   UNL     1       8.247   6.935  18.778  0.00  0.00    +0.000 NA
ATOM     36  C   UNL     1       7.891   5.646  18.954  0.00  0.00    +0.000 A 
ATOM     37  C   UNL     1       6.949   4.993  18.172  0.00  0.00    +0.000 A 
ENDBRANCH  31  32
ENDBRANCH  30  31
ENDBRANCH   6  30
TORSDOF 7
ENDMDL
MODEL 6
REMARK VINA RESULT:      -9.1      1.334      2.153
REMARK  Name = 
REMARK  8 active torsions:
REMARK  status: ('A' for Active; 'I' for Inactive)
REMARK    1  A    between atoms: C_1  and  O_2
REMARK    2  A    between atoms: O_2  and  C_3
REMARK    3  A    between atoms: C_8  and  O_9
REMARK    4  A    between atoms: O_9  and  C_10
REMARK    5  A    between atoms: C_10  and  C_11
REMARK    6  A    between atoms: C_20  and  C_21
REMARK    7  A    between atoms: C_24  and  C_25
REMARK    8  A    between atoms: C_28  and  O_29
REMARK                            x       y       z     vdW  Elec       q    Type
REMARK                         _______ _______ _______ _____ _____    ______ ____
ROOT
ATOM      1  C   UNL     1       2.909   4.167  20.187  0.00  0.00    +0.000 A 
ATOM      2  C   UNL     1       2.187   5.069  20.990  0.00  0.00    +0.000 A 
ATOM      3  C   UNL     1       1.950   6.340  20.509  0.00  0.00    +0.000 A 
ATOM      4  C   UNL     1       2.503   6.740  19.270  0.00  0.00    +0.000 A 
ATOM      5  C   UNL     1       3.294   5.911  18.510  0.00  0.00    +0.000 A 
ATOM      6  C   UNL     1       3.517   4.606  18.980  0.00  0.00    +0.000 A 
ATOM      7  C   UNL     1       2.043   8.068  19.053  0.00  0.00    +0.000 A 
ATOM      8  N   UNL     1       2.167   8.987  18.116  0.00  0.00    +0.000 NA
ATOM      9  N   UNL     1       1.403   9.994  18.611  0.00  0.00    +0.000 N 
ATOM     10  C   UNL     1       0.781   9.717  19.820  0.00  0.00    +0.000 A 
ATOM     11  C   UNL     1       1.221   8.451  20.122  0.00  0.00    +0.000 A 
ATOM     12  C   UNL     1       1.061   7.406  21.166  0.00  0.00    +0.000 C 
ATOM     13  H   UNL     1       1.347  10.855  18.077  0.00  0.00    +0.000 HD
ENDROOT
BRANCH  10  14
ATOM     14  C   UNL     1      -0.103  10.642  20.523  0.00  0.00    +0.000 A 
ATOM     15  C   UNL     1      -0.137  10.676  21.918  0.00  0.00    +0.000 A 
ATOM     16  C   UNL     1      -1.013  11.537  22.591  0.00  0.00    +0.000 A 
ATOM     17  C   UNL     1      -1.869  12.413  21.899  0.00  0.00    +0.000 A 
ATOM     18  C   UNL     1      -1.797  12.394  20.497  0.00  0.00    +0.000 A 
ATOM     19  C   UNL     1      -0.935  11.519  19.819  0.00  0.00    +0.000 A 
BRANCH  17  20
ATOM     20  C   UNL     1      -2.810  13.297  22.625  0.00  0.00    +0.000 A 
ATOM     21  C   UNL     1      -4.175  13.350  22.284  0.00  0.00    +0.000 A 
ATOM     22  C   UNL     1      -5.062  14.215  22.933  0.00  0.00    +0.000 A 
ATOM     23  C   UNL     1      -4.597  15.031  23.954  0.00  0.00    +0.000 A 
ATOM     24  C   UNL     1      -3.261  14.995  24.330  0.00  0.00    +0.000 A 
ATOM     25  C   UNL     1      -2.376  14.138  23.668  0.00  0.00    +0.000 A 
BRANCH  23  26
ATOM     26  O   UNL     1      -5.424  15.887  24.613  0.00  0.00    +0.000 OA
ATOM     27  H   UNL     1      -5.220  15.843  25.561  0.00  0.00    +0.000 HD
ENDBRANCH  23  26
ENDBRANCH  17  20
ENDBRANCH  10  14
BRANCH   1  29
ATOM     28  C   UNL     1       2.117   2.399  21.564  0.00  0.00    +0.000 C 
ATOM     29  O   UNL     1       3.016   2.845  20.546  0.00  0.00    +0.000 OA
ENDBRANCH   1  29
BRANCH   6  30
ATOM     30  O   UNL     1       4.313   3.863  18.129  0.00  0.00    +0.000 OA
BRANCH  30  31
ATOM     31  C   UNL     1       4.065   4.001  16.733  0.00  0.00    +0.000 C 
BRANCH  31  32
ATOM     32  C   UNL     1       5.274   4.537  15.989  0.00  0.00    +0.000 A 
ATOM     33  C   UNL     1       6.265   5.305  16.609  0.00  0.00    +0.000 A 
ATOM     34  C   UNL     1       7.398   5.648  15.883  0.00  0.00    +0.000 A 
ATOM     35  N   UNL     1       7.613   5.282  14.599  0.00  0.00    +0.000 NA
ATOM     36  C   UNL     1       6.646   4.547  14.015  0.00  0.00    +0.000 A 
ATOM     37  C   UNL     1       5.479   4.158  14.657  0.00  0.00    +0.000 A 
ENDBRANCH  31  32
ENDBRANCH  30  31
ENDBRANCH   6  30
TORSDOF 7
ENDMDL
MODEL 7
REMARK VINA RESULT:      -9.1      1.775      2.580
REMARK  Name = 
REMARK  8 active torsions:
REMARK  status: ('A' for Active; 'I' for Inactive)
REMARK    1  A    between atoms: C_1  and  O_2
REMARK    2  A    between atoms: O_2  and  C_3
REMARK    3  A    between atoms: C_8  and  O_9
REMARK    4  A    between atoms: O_9  and  C_10
REMARK    5  A    between atoms: C_10  and  C_11
REMARK    6  A    between atoms: C_20  and  C_21
REMARK    7  A    between atoms: C_24  and  C_25
REMARK    8  A    between atoms: C_28  and  O_29
REMARK                            x       y       z     vdW  Elec       q    Type
REMARK                         _______ _______ _______ _____ _____    ______ ____
ROOT
ATOM      1  C   UNL     1       2.343   4.448  19.695  0.00  0.00    +0.000 A 
ATOM      2  C   UNL     1       2.042   5.495  20.586  0.00  0.00    +0.000 A 
ATOM      3  C   UNL     1       1.906   6.773  20.084  0.00  0.00    +0.000 A 
ATOM      4  C   UNL     1       2.156   7.023  18.714  0.00  0.00    +0.000 A 
ATOM      5  C   UNL     1       2.547   6.036  17.841  0.00  0.00    +0.000 A 
ATOM      6  C   UNL     1       2.660   4.728  18.338  0.00  0.00    +0.000 A 
ATOM      7  C   UNL     1       1.894   8.408  18.521  0.00  0.00    +0.000 A 
ATOM      8  N   UNL     1       1.911   9.258  17.513  0.00  0.00    +0.000 NA
ATOM      9  N   UNL     1       1.502  10.406  18.112  0.00  0.00    +0.000 N 
ATOM     10  C   UNL     1       1.201  10.288  19.462  0.00  0.00    +0.000 A 
ATOM     11  C   UNL     1       1.480   8.971  19.737  0.00  0.00    +0.000 A 
ATOM     12  C   UNL     1       1.435   8.007  20.866  0.00  0.00    +0.000 C 
ATOM     13  H   UNL     1       1.452  11.245  17.544  0.00  0.00    +0.000 HD
ENDROOT
BRANCH  10  14
ATOM     14  C   UNL     1       0.723  11.385  20.297  0.00  0.00    +0.000 A 
ATOM     15  C   UNL     1       1.414  12.597  20.349  0.00  0.00    +0.000 A 
ATOM     16  C   UNL     1       0.977  13.635  21.181  0.00  0.00    +0.000 A 
ATOM     17  C   UNL     1      -0.179  13.512  21.973  0.00  0.00    +0.000 A 
ATOM     18  C   UNL     1      -0.885  12.302  21.883  0.00  0.00    +0.000 A 
ATOM     19  C   UNL     1      -0.438  11.252  21.066  0.00  0.00    +0.000 A 
BRANCH  17  20
ATOM     20  C   UNL     1      -0.613  14.610  22.869  0.00  0.00    +0.000 A 
ATOM     21  C   UNL     1      -1.448  14.364  23.975  0.00  0.00    +0.000 A 
ATOM     22  C   UNL     1      -1.901  15.399  24.801  0.00  0.00    +0.000 A 
ATOM     23  C   UNL     1      -1.504  16.702  24.540  0.00  0.00    +0.000 A 
ATOM     24  C   UNL     1      -0.668  16.982  23.468  0.00  0.00    +0.000 A 
ATOM     25  C   UNL     1      -0.231  15.945  22.638  0.00  0.00    +0.000 A 
BRANCH  23  26
ATOM     26  O   UNL     1      -1.920  17.740  25.316  0.00  0.00    +0.000 OA
ATOM     27  H   UNL     1      -2.836  17.954  25.078  0.00  0.00    +0.000 HD
ENDBRANCH  23  26
ENDBRANCH  17  20
ENDBRANCH  10  14
BRANCH   1  29
ATOM     28  C   UNL     1       1.913   2.933  21.474  0.00  0.00    +0.000 C 
ATOM     29  O   UNL     1       2.313   3.141  20.118  0.00  0.00    +0.000 OA
ENDBRANCH   1  29
BRANCH   6  30
ATOM     30  O   UNL     1       3.047   3.822  17.368  0.00  0.00    +0.000 OA
BRANCH  30  31
ATOM     31  C   UNL     1       4.372   3.307  17.463  0.00  0.00    +0.000 C 
BRANCH  31  32
ATOM     32  C   UNL     1       5.390   4.232  16.823  0.00  0.00    +0.000 A 
ATOM     33  C   UNL     1       6.167   5.130  17.562  0.00  0.00    +0.000 A 
ATOM     34  C   UNL     1       7.160   5.849  16.911  0.00  0.00    +0.000 A 
ATOM     35  N   UNL     1       7.434   5.736  15.592  0.00  0.00    +0.000 NA
ATOM     36  C   UNL     1       6.673   4.870  14.893  0.00  0.00    +0.000 A 
ATOM     37  C   UNL     1       5.657   4.110  15.454  0.00  0.00    +0.000 A 
ENDBRANCH  31  32
ENDBRANCH  30  31
ENDBRANCH   6  30
TORSDOF 7
ENDMDL
MODEL 8
REMARK VINA RESULT:      -9.1      2.010      2.611
REMARK  Name = 
REMARK  8 active torsions:
REMARK  status: ('A' for Active; 'I' for Inactive)
REMARK    1  A    between atoms: C_1  and  O_2
REMARK    2  A    between atoms: O_2  and  C_3
REMARK    3  A    between atoms: C_8  and  O_9
REMARK    4  A    between atoms: O_9  and  C_10
REMARK    5  A    between atoms: C_10  and  C_11
REMARK    6  A    between atoms: C_20  and  C_21
REMARK    7  A    between atoms: C_24  and  C_25
REMARK    8  A    between atoms: C_28  and  O_29
REMARK                            x       y       z     vdW  Elec       q    Type
REMARK                         _______ _______ _______ _____ _____    ______ ____
ROOT
ATOM      1  C   UNL     1       3.365   4.289  19.302  0.00  0.00    +0.000 A 
ATOM      2  C   UNL     1       2.700   5.163  20.183  0.00  0.00    +0.000 A 
ATOM      3  C   UNL     1       2.341   6.415  19.728  0.00  0.00    +0.000 A 
ATOM      4  C   UNL     1       2.719   6.829  18.429  0.00  0.00    +0.000 A 
ATOM      5  C   UNL     1       3.453   6.032  17.583  0.00  0.00    +0.000 A 
ATOM      6  C   UNL     1       3.798   4.745  18.028  0.00  0.00    +0.000 A 
ATOM      7  C   UNL     1       2.169   8.129  18.264  0.00  0.00    +0.000 A 
ATOM      8  N   UNL     1       2.130   9.043  17.314  0.00  0.00    +0.000 NA
ATOM      9  N   UNL     1       1.381  10.016  17.894  0.00  0.00    +0.000 N 
ATOM     10  C   UNL     1       0.925   9.720  19.171  0.00  0.00    +0.000 A 
ATOM     11  C   UNL     1       1.463   8.481  19.423  0.00  0.00    +0.000 A 
ATOM     12  C   UNL     1       1.484   7.441  20.483  0.00  0.00    +0.000 C 
ATOM     13  H   UNL     1       1.217  10.866  17.366  0.00  0.00    +0.000 HD
ENDROOT
BRANCH  10  14
ATOM     14  C   UNL     1       0.087  10.607  19.972  0.00  0.00    +0.000 A 
ATOM     15  C   UNL     1       0.360  10.820  21.324  0.00  0.00    +0.000 A 
ATOM     16  C   UNL     1      -0.468  11.640  22.100  0.00  0.00    +0.000 A 
ATOM     17  C   UNL     1      -1.583  12.299  21.552  0.00  0.00    +0.000 A 
ATOM     18  C   UNL     1      -1.824  12.106  20.183  0.00  0.00    +0.000 A 
ATOM     19  C   UNL     1      -1.008  11.268  19.406  0.00  0.00    +0.000 A 
BRANCH  17  20
ATOM     20  C   UNL     1      -2.464  13.141  22.393  0.00  0.00    +0.000 A 
ATOM     21  C   UNL     1      -2.568  14.530  22.183  0.00  0.00    +0.000 A 
ATOM     22  C   UNL     1      -3.362  15.341  23.001  0.00  0.00    +0.000 A 
ATOM     23  C   UNL     1      -4.085  14.766  24.036  0.00  0.00    +0.000 A 
ATOM     24  C   UNL     1      -4.022  13.399  24.264  0.00  0.00    +0.000 A 
ATOM     25  C   UNL     1      -3.215  12.595  23.452  0.00  0.00    +0.000 A 
BRANCH  23  26
ATOM     26  O   UNL     1      -4.871  15.516  24.856  0.00  0.00    +0.000 OA
ATOM     27  H   UNL     1      -4.408  15.634  25.701  0.00  0.00    +0.000 HD
ENDBRANCH  23  26
ENDBRANCH  17  20
ENDBRANCH  10  14
BRANCH   1  29
ATOM     28  C   UNL     1       3.239   2.624  20.993  0.00  0.00    +0.000 C 
ATOM     29  O   UNL     1       3.582   2.978  19.651  0.00  0.00    +0.000 OA
ENDBRANCH   1  29
BRANCH   6  30
ATOM     30  O   UNL     1       4.523   4.034  17.090  0.00  0.00    +0.000 OA
BRANCH  30  31
ATOM     31  C   UNL     1       5.508   4.757  16.357  0.00  0.00    +0.000 C 
BRANCH  31  32
ATOM     32  C   UNL     1       6.418   5.563  17.266  0.00  0.00    +0.000 A 
ATOM     33  C   UNL     1       7.040   5.014  18.392  0.00  0.00    +0.000 A 
ATOM     34  C   UNL     1       7.953   5.789  19.096  0.00  0.00    +0.000 A 
ATOM     35  N   UNL     1       8.289   7.054  18.759  0.00  0.00    +0.000 NA
ATOM     36  C   UNL     1       7.676   7.570  17.675  0.00  0.00    +0.000 A 
ATOM     37  C   UNL     1       6.749   6.876  16.911  0.00  0.00    +0.000 A 
ENDBRANCH  31  32
ENDBRANCH  30  31
ENDBRANCH   6  30
TORSDOF 7
ENDMDL
MODEL 9
REMARK VINA RESULT:      -9.1      1.670      2.328
REMARK  Name = 
REMARK  8 active torsions:
REMARK  status: ('A' for Active; 'I' for Inactive)
REMARK    1  A    between atoms: C_1  and  O_2
REMARK    2  A    between atoms: O_2  and  C_3
REMARK    3  A    between atoms: C_8  and  O_9
REMARK    4  A    between atoms: O_9  and  C_10
REMARK    5  A    between atoms: C_10  and  C_11
REMARK    6  A    between atoms: C_20  and  C_21
REMARK    7  A    between atoms: C_24  and  C_25
REMARK    8  A    between atoms: C_28  and  O_29
REMARK                            x       y       z     vdW  Elec       q    Type
REMARK                         _______ _______ _______ _____ _____    ______ ____
ROOT
ATOM      1  C   UNL     1       2.346   4.418  19.610  0.00  0.00    +0.000 A 
ATOM      2  C   UNL     1       2.017   5.417  20.546  0.00  0.00    +0.000 A 
ATOM      3  C   UNL     1       1.880   6.717  20.105  0.00  0.00    +0.000 A 
ATOM      4  C   UNL     1       2.154   7.037  18.754  0.00  0.00    +0.000 A 
ATOM      5  C   UNL     1       2.572   6.098  17.841  0.00  0.00    +0.000 A 
ATOM      6  C   UNL     1       2.687   4.767  18.275  0.00  0.00    +0.000 A 
ATOM      7  C   UNL     1       1.883   8.427  18.625  0.00  0.00    +0.000 A 
ATOM      8  N   UNL     1       1.912   9.326  17.661  0.00  0.00    +0.000 NA
ATOM      9  N   UNL     1       1.481  10.440  18.307  0.00  0.00    +0.000 N 
ATOM     10  C   UNL     1       1.154  10.252  19.643  0.00  0.00    +0.000 A 
ATOM     11  C   UNL     1       1.440   8.926  19.858  0.00  0.00    +0.000 A 
ATOM     12  C   UNL     1       1.381   7.907  20.937  0.00  0.00    +0.000 C 
ATOM     13  H   UNL     1       1.434  11.305  17.780  0.00  0.00    +0.000 HD
ENDROOT
BRANCH  10  14
ATOM     14  C   UNL     1       0.650  11.303  20.522  0.00  0.00    +0.000 A 
ATOM     15  C   UNL     1      -0.392  11.048  21.415  0.00  0.00    +0.000 A 
ATOM     16  C   UNL     1      -0.902  12.066  22.230  0.00  0.00    +0.000 A 
ATOM     17  C   UNL     1      -0.375  13.370  22.202  0.00  0.00    +0.000 A 
ATOM     18  C   UNL     1       0.697  13.603  21.327  0.00  0.00    +0.000 A 
ATOM     19  C   UNL     1       1.197  12.590  20.494  0.00  0.00    +0.000 A 
BRANCH  17  20
ATOM     20  C   UNL     1      -0.944  14.443  23.051  0.00  0.00    +0.000 A 
ATOM     21  C   UNL     1      -0.472  15.767  22.969  0.00  0.00    +0.000 A 
ATOM     22  C   UNL     1      -0.970  16.778  23.798  0.00  0.00    +0.000 A 
ATOM     23  C   UNL     1      -1.970  16.480  24.713  0.00  0.00    +0.000 A 
ATOM     24  C   UNL     1      -2.472  15.191  24.811  0.00  0.00    +0.000 A 
ATOM     25  C   UNL     1      -1.960  14.181  23.990  0.00  0.00    +0.000 A 
BRANCH  23  26
ATOM     26  O   UNL     1      -2.484  17.432  25.539  0.00  0.00    +0.000 OA
ATOM     27  H   UNL     1      -2.895  16.990  26.298  0.00  0.00    +0.000 HD
ENDBRANCH  23  26
ENDBRANCH  17  20
ENDBRANCH  10  14
BRANCH   1  29
ATOM     28  C   UNL     1       1.970   2.818  21.326  0.00  0.00    +0.000 C 
ATOM     29  O   UNL     1       2.319   3.091  19.967  0.00  0.00    +0.000 OA
ENDBRANCH   1  29
BRANCH   6  30
ATOM     30  O   UNL     1       3.102   3.914  17.270  0.00  0.00    +0.000 OA
BRANCH  30  31
ATOM     31  C   UNL     1       4.367   3.283  17.445  0.00  0.00    +0.000 C 
BRANCH  31  32
ATOM     32  C   UNL     1       5.492   4.073  16.803  0.00  0.00    +0.000 A 
ATOM     33  C   UNL     1       5.804   3.976  15.444  0.00  0.00    +0.000 A 
ATOM     34  C   UNL     1       6.766   4.827  14.915  0.00  0.00    +0.000 A 
ATOM     35  N   UNL     1       7.428   5.760  15.636  0.00  0.00    +0.000 NA
ATOM     36  C   UNL     1       7.119   5.837  16.946  0.00  0.00    +0.000 A 
ATOM     37  C   UNL     1       6.176   5.029  17.564  0.00  0.00    +0.000 A 
ENDBRANCH  31  32
ENDBRANCH  30  31
ENDBRANCH   6  30
TORSDOF 7
ENDMDL
