MODEL 1
REMARK VINA RESULT:      -7.5      0.000      0.000
REMARK  Name = 
REMARK  4 active torsions:
REMARK  status: ('A' for Active; 'I' for Inactive)
REMARK    1  A    between atoms: C_2  and  O_3
REMARK    2  A    between atoms: C_2  and  C_4
REMARK    3  A    between atoms: C_5  and  O_6
REMARK    4  A    between atoms: C_13  and  N_14
REMARK                            x       y       z     vdW  Elec       q    Type
REMARK                         _______ _______ _______ _____ _____    ______ ____
ROOT
ATOM      1  C   UNL     1       3.667   3.634  19.018  0.00  0.00    +0.000 A 
ATOM      2  C   UNL     1       2.820   4.104  19.961  0.00  0.00    +0.000 A 
ATOM      3  C   UNL     1       2.407   5.550  19.966  0.00  0.00    +0.000 A 
ATOM      4  O   UNL     1       1.621   5.994  20.797  0.00  0.00    +0.000 OA
ATOM      5  N   UNL     1       2.961   6.357  19.023  0.00  0.00    +0.000 N 
ATOM      6  C   UNL     1       3.853   5.921  18.046  0.00  0.00    +0.000 A 
ATOM      7  C   UNL     1       4.341   6.858  17.126  0.00  0.00    +0.000 A 
ATOM      8  C   UNL     1       5.222   6.455  16.126  0.00  0.00    +0.000 A 
ATOM      9  C   UNL     1       5.609   5.113  16.057  0.00  0.00    +0.000 A 
ATOM     10  C   UNL     1       5.117   4.174  16.981  0.00  0.00    +0.000 A 
ATOM     11  C   UNL     1       4.234   4.567  18.003  0.00  0.00    +0.000 A 
ATOM     12  H   UNL     1       2.675   7.329  19.066  0.00  0.00    +0.000 HD
ENDROOT
BRANCH   9  13
ATOM     13  N   UNL     1       6.540   4.685  15.000  0.00  0.00    +0.000 N 
ATOM     14  O   UNL     1       7.554   5.373  14.818  0.00  0.00    +0.000 OA
ATOM     15  O   UNL     1       6.254   3.668  14.356  0.00  0.00    +0.000 OA
ENDBRANCH   9  13
BRANCH   1  17
ATOM     16  O   UNL     1       3.581   1.338  18.345  0.00  0.00    +0.000 OA
ATOM     17  C   UNL     1       4.060   2.196  19.070  0.00  0.00    +0.000 C 
BRANCH  17  18
ATOM     18  O   UNL     1       5.021   1.901  19.973  0.00  0.00    +0.000 OA
ATOM     19  H   UNL     1       5.824   2.465  19.924  0.00  0.00    +0.000 HD
ENDBRANCH  17  18
ENDBRANCH   1  17
BRANCH   2  20
ATOM     20  O   UNL     1       2.261   3.304  20.950  0.00  0.00    +0.000 OA
ATOM     21  H   UNL     1       1.381   3.659  21.183  0.00  0.00    +0.000 HD
ENDBRANCH   2  20
TORSDOF 4
ENDMDL
MODEL 2
REMARK VINA RESULT:      -7.4      1.238      1.544
REMARK  Name = 
REMARK  4 active torsions:
REMARK  status: ('A' for Active; 'I' for Inactive)
REMARK    1  A    between atoms: C_2  and  O_3
REMARK    2  A    between atoms: C_2  and  C_4
REMARK    3  A    between atoms: C_5  and  O_6
REMARK    4  A    between atoms: C_13  and  N_14
REMARK                            x       y       z     vdW  Elec       q    Type
REMARK                         _______ _______ _______ _____ _____    ______ ____
ROOT
ATOM      1  C   UNL     1       3.772   3.117  19.677  0.00  0.00    +0.000 A 
ATOM      2  C   UNL     1       2.580   3.293  20.292  0.00  0.00    +0.000 A 
ATOM      3  C   UNL     1       1.756   4.523  20.022  0.00  0.00    +0.000 A 
ATOM      4  O   UNL     1       0.660   4.693  20.549  0.00  0.00    +0.000 OA
ATOM      5  N   UNL     1       2.285   5.454  19.186  0.00  0.00    +0.000 N 
ATOM      6  C   UNL     1       3.517   5.324  18.549  0.00  0.00    +0.000 A 
ATOM      7  C   UNL     1       3.939   6.356  17.702  0.00  0.00    +0.000 A 
ATOM      8  C   UNL     1       5.158   6.254  17.036  0.00  0.00    +0.000 A 
ATOM      9  C   UNL     1       5.945   5.114  17.225  0.00  0.00    +0.000 A 
ATOM     10  C   UNL     1       5.519   4.077  18.074  0.00  0.00    +0.000 A 
ATOM     11  C   UNL     1       4.295   4.172  18.762  0.00  0.00    +0.000 A 
ATOM     12  H   UNL     1       1.712   6.277  19.041  0.00  0.00    +0.000 HD
ENDROOT
BRANCH   9  13
ATOM     13  N   UNL     1       7.233   5.003  16.521  0.00  0.00    +0.000 N 
ATOM     14  O   UNL     1       8.083   4.240  17.000  0.00  0.00    +0.000 OA
ATOM     15  O   UNL     1       7.391   5.680  15.497  0.00  0.00    +0.000 OA
ENDBRANCH   9  13
BRANCH   1  17
ATOM     16  O   UNL     1       5.152   1.722  21.048  0.00  0.00    +0.000 OA
ATOM     17  C   UNL     1       4.558   1.890  19.995  0.00  0.00    +0.000 C 
BRANCH  17  18
ATOM     18  O   UNL     1       4.547   0.942  19.032  0.00  0.00    +0.000 OA
ATOM     19  H   UNL     1       3.931   1.114  18.286  0.00  0.00    +0.000 HD
ENDBRANCH  17  18
ENDBRANCH   1  17
BRANCH   2  20
ATOM     20  O   UNL     1       2.030   2.367  21.169  0.00  0.00    +0.000 OA
ATOM     21  H   UNL     1       2.102   2.716  22.080  0.00  0.00    +0.000 HD
ENDBRANCH   2  20
TORSDOF 4
ENDMDL
MODEL 3
REMARK VINA RESULT:      -7.3      0.151      1.056
REMARK  Name = 
REMARK  4 active torsions:
REMARK  status: ('A' for Active; 'I' for Inactive)
REMARK    1  A    between atoms: C_2  and  O_3
REMARK    2  A    between atoms: C_2  and  C_4
REMARK    3  A    between atoms: C_5  and  O_6
REMARK    4  A    between atoms: C_13  and  N_14
REMARK                            x       y       z     vdW  Elec       q    Type
REMARK                         _______ _______ _______ _____ _____    ______ ____
ROOT
ATOM      1  C   UNL     1       3.615   3.688  19.157  0.00  0.00    +0.000 A 
ATOM      2  C   UNL     1       2.753   4.176  20.077  0.00  0.00    +0.000 A 
ATOM      3  C   UNL     1       2.326   5.618  20.035  0.00  0.00    +0.000 A 
ATOM      4  O   UNL     1       1.526   6.079  20.844  0.00  0.00    +0.000 OA
ATOM      5  N   UNL     1       2.883   6.403  19.075  0.00  0.00    +0.000 N 
ATOM      6  C   UNL     1       3.791   5.947  18.121  0.00  0.00    +0.000 A 
ATOM      7  C   UNL     1       4.279   6.861  17.179  0.00  0.00    +0.000 A 
ATOM      8  C   UNL     1       5.176   6.438  16.202  0.00  0.00    +0.000 A 
ATOM      9  C   UNL     1       5.576   5.099  16.176  0.00  0.00    +0.000 A 
ATOM     10  C   UNL     1       5.083   4.182  17.121  0.00  0.00    +0.000 A 
ATOM     11  C   UNL     1       4.185   4.597  18.122  0.00  0.00    +0.000 A 
ATOM     12  H   UNL     1       2.587   7.372  19.086  0.00  0.00    +0.000 HD
ENDROOT
BRANCH   9  13
ATOM     13  N   UNL     1       6.523   4.649  15.143  0.00  0.00    +0.000 N 
ATOM     14  O   UNL     1       6.239   3.621  14.514  0.00  0.00    +0.000 OA
ATOM     15  O   UNL     1       7.547   5.322  14.966  0.00  0.00    +0.000 OA
ENDBRANCH   9  13
BRANCH   1  17
ATOM     16  O   UNL     1       4.854   1.842  20.047  0.00  0.00    +0.000 OA
ATOM     17  C   UNL     1       4.021   2.256  19.256  0.00  0.00    +0.000 C 
BRANCH  17  18
ATOM     18  O   UNL     1       3.372   1.421  18.415  0.00  0.00    +0.000 OA
ATOM     19  H   UNL     1       3.291   1.742  17.490  0.00  0.00    +0.000 HD
ENDBRANCH  17  18
ENDBRANCH   1  17
BRANCH   2  20
ATOM     20  O   UNL     1       2.190   3.400  21.083  0.00  0.00    +0.000 OA
ATOM     21  H   UNL     1       2.890   2.845  21.481  0.00  0.00    +0.000 HD
ENDBRANCH   2  20
TORSDOF 4
ENDMDL
MODEL 4
REMARK VINA RESULT:      -7.0      0.768      1.135
REMARK  Name = 
REMARK  4 active torsions:
REMARK  status: ('A' for Active; 'I' for Inactive)
REMARK    1  A    between atoms: C_2  and  O_3
REMARK    2  A    between atoms: C_2  and  C_4
REMARK    3  A    between atoms: C_5  and  O_6
REMARK    4  A    between atoms: C_13  and  N_14
REMARK                            x       y       z     vdW  Elec       q    Type
REMARK                         _______ _______ _______ _____ _____    ______ ____
ROOT
ATOM      1  C   UNL     1       3.048   3.752  18.327  0.00  0.00    +0.000 A 
ATOM      2  C   UNL     1       2.303   4.229  19.350  0.00  0.00    +0.000 A 
ATOM      3  C   UNL     1       2.348   5.688  19.713  0.00  0.00    +0.000 A 
ATOM      4  O   UNL     1       1.664   6.148  20.622  0.00  0.00    +0.000 OA
ATOM      5  N   UNL     1       3.199   6.478  19.007  0.00  0.00    +0.000 N 
ATOM      6  C   UNL     1       3.999   6.026  17.960  0.00  0.00    +0.000 A 
ATOM      7  C   UNL     1       4.824   6.951  17.307  0.00  0.00    +0.000 A 
ATOM      8  C   UNL     1       5.627   6.538  16.247  0.00  0.00    +0.000 A 
ATOM      9  C   UNL     1       5.595   5.199  15.848  0.00  0.00    +0.000 A 
ATOM     10  C   UNL     1       4.764   4.272  16.502  0.00  0.00    +0.000 A 
ATOM     11  C   UNL     1       3.956   4.671  17.583  0.00  0.00    +0.000 A 
ATOM     12  H   UNL     1       3.217   7.451  19.289  0.00  0.00    +0.000 HD
ENDROOT
BRANCH   9  13
ATOM     13  N   UNL     1       6.440   4.761  14.726  0.00  0.00    +0.000 N 
ATOM     14  O   UNL     1       6.006   3.857  13.999  0.00  0.00    +0.000 OA
ATOM     15  O   UNL     1       7.536   5.318  14.576  0.00  0.00    +0.000 OA
ENDBRANCH   9  13
BRANCH   1  17
ATOM     16  O   UNL     1       2.067   1.774  17.403  0.00  0.00    +0.000 OA
ATOM     17  C   UNL     1       2.982   2.294  18.021  0.00  0.00    +0.000 C 
BRANCH  17  18
ATOM     18  O   UNL     1       4.038   1.572  18.458  0.00  0.00    +0.000 OA
ATOM     19  H   UNL     1       3.978   0.607  18.291  0.00  0.00    +0.000 HD
ENDBRANCH  17  18
ENDBRANCH   1  17
BRANCH   2  20
ATOM     20  O   UNL     1       1.446   3.436  20.103  0.00  0.00    +0.000 OA
ATOM     21  H   UNL     1       1.521   3.695  21.043  0.00  0.00    +0.000 HD
ENDBRANCH   2  20
TORSDOF 4
ENDMDL
MODEL 5
REMARK VINA RESULT:      -6.9      2.623      2.820
REMARK  Name = 
REMARK  4 active torsions:
REMARK  status: ('A' for Active; 'I' for Inactive)
REMARK    1  A    between atoms: C_2  and  O_3
REMARK    2  A    between atoms: C_2  and  C_4
REMARK    3  A    between atoms: C_5  and  O_6
REMARK    4  A    between atoms: C_13  and  N_14
REMARK                            x       y       z     vdW  Elec       q    Type
REMARK                         _______ _______ _______ _____ _____    ______ ____
ROOT
ATOM      1  C   UNL     1       3.793   2.899  19.065  0.00  0.00    +0.000 A 
ATOM      2  C   UNL     1       2.492   2.696  18.752  0.00  0.00    +0.000 A 
ATOM      3  C   UNL     1       1.719   3.738  17.990  0.00  0.00    +0.000 A 
ATOM      4  O   UNL     1       0.545   3.566  17.674  0.00  0.00    +0.000 OA
ATOM      5  N   UNL     1       2.366   4.893  17.685  0.00  0.00    +0.000 N 
ATOM      6  C   UNL     1       3.697   5.152  18.006  0.00  0.00    +0.000 A 
ATOM      7  C   UNL     1       4.246   6.382  17.620  0.00  0.00    +0.000 A 
ATOM      8  C   UNL     1       5.576   6.670  17.910  0.00  0.00    +0.000 A 
ATOM      9  C   UNL     1       6.349   5.720  18.586  0.00  0.00    +0.000 A 
ATOM     10  C   UNL     1       5.797   4.485  18.970  0.00  0.00    +0.000 A 
ATOM     11  C   UNL     1       4.451   4.184  18.694  0.00  0.00    +0.000 A 
ATOM     12  H   UNL     1       1.811   5.579  17.187  0.00  0.00    +0.000 HD
ENDROOT
BRANCH   9  13
ATOM     13  N   UNL     1       7.756   6.022  18.892  0.00  0.00    +0.000 N 
ATOM     14  O   UNL     1       8.401   5.171  19.520  0.00  0.00    +0.000 OA
ATOM     15  O   UNL     1       8.211   7.107  18.508  0.00  0.00    +0.000 OA
ENDBRANCH   9  13
BRANCH   1  17
ATOM     16  O   UNL     1       4.892   1.991  20.988  0.00  0.00    +0.000 OA
ATOM     17  C   UNL     1       4.508   1.843  19.839  0.00  0.00    +0.000 C 
BRANCH  17  18
ATOM     18  O   UNL     1       4.682   0.675  19.182  0.00  0.00    +0.000 OA
ATOM     19  H   UNL     1       5.183  -0.009  19.677  0.00  0.00    +0.000 HD
ENDBRANCH  17  18
ENDBRANCH   1  17
BRANCH   2  20
ATOM     20  O   UNL     1       1.802   1.535  19.076  0.00  0.00    +0.000 OA
ATOM     21  H   UNL     1       1.958   1.329  20.019  0.00  0.00    +0.000 HD
ENDBRANCH   2  20
TORSDOF 4
ENDMDL
MODEL 6
REMARK VINA RESULT:      -6.8      2.131      5.607
REMARK  Name = 
REMARK  4 active torsions:
REMARK  status: ('A' for Active; 'I' for Inactive)
REMARK    1  A    between atoms: C_2  and  O_3
REMARK    2  A    between atoms: C_2  and  C_4
REMARK    3  A    between atoms: C_5  and  O_6
REMARK    4  A    between atoms: C_13  and  N_14
REMARK                            x       y       z     vdW  Elec       q    Type
REMARK                         _______ _______ _______ _____ _____    ______ ____
ROOT
ATOM      1  C   UNL     1       6.170   4.939  17.879  0.00  0.00    +0.000 A 
ATOM      2  C   UNL     1       6.702   4.579  16.688  0.00  0.00    +0.000 A 
ATOM      3  C   UNL     1       5.844   3.936  15.632  0.00  0.00    +0.000 A 
ATOM      4  O   UNL     1       6.298   3.623  14.536  0.00  0.00    +0.000 OA
ATOM      5  N   UNL     1       4.546   3.693  15.949  0.00  0.00    +0.000 N 
ATOM      6  C   UNL     1       3.962   4.028  17.169  0.00  0.00    +0.000 A 
ATOM      7  C   UNL     1       2.607   3.731  17.362  0.00  0.00    +0.000 A 
ATOM      8  C   UNL     1       1.987   4.064  18.563  0.00  0.00    +0.000 A 
ATOM      9  C   UNL     1       2.732   4.695  19.564  0.00  0.00    +0.000 A 
ATOM     10  C   UNL     1       4.091   4.995  19.368  0.00  0.00    +0.000 A 
ATOM     11  C   UNL     1       4.735   4.654  18.165  0.00  0.00    +0.000 A 
ATOM     12  H   UNL     1       4.002   3.244  15.222  0.00  0.00    +0.000 HD
ENDROOT
BRANCH   9  13
ATOM     13  N   UNL     1       2.077   5.050  20.833  0.00  0.00    +0.000 N 
ATOM     14  O   UNL     1       2.128   4.224  21.754  0.00  0.00    +0.000 OA
ATOM     15  O   UNL     1       1.513   6.150  20.905  0.00  0.00    +0.000 OA
ENDBRANCH   9  13
BRANCH   1  17
ATOM     16  O   UNL     1       7.243   5.090  20.014  0.00  0.00    +0.000 OA
ATOM     17  C   UNL     1       7.068   5.554  18.898  0.00  0.00    +0.000 C 
BRANCH  17  18
ATOM     18  O   UNL     1       7.714   6.669  18.490  0.00  0.00    +0.000 OA
ATOM     19  H   UNL     1       8.627   6.522  18.157  0.00  0.00    +0.000 HD
ENDBRANCH  17  18
ENDBRANCH   1  17
BRANCH   2  20
ATOM     20  O   UNL     1       8.032   4.794  16.351  0.00  0.00    +0.000 OA
ATOM     21  H   UNL     1       8.581   4.111  16.784  0.00  0.00    +0.000 HD
ENDBRANCH   2  20
TORSDOF 4
ENDMDL
MODEL 7
REMARK VINA RESULT:      -6.8      2.311      5.271
REMARK  Name = 
REMARK  4 active torsions:
REMARK  status: ('A' for Active; 'I' for Inactive)
REMARK    1  A    between atoms: C_2  and  O_3
REMARK    2  A    between atoms: C_2  and  C_4
REMARK    3  A    between atoms: C_5  and  O_6
REMARK    4  A    between atoms: C_13  and  N_14
REMARK                            x       y       z     vdW  Elec       q    Type
REMARK                         _______ _______ _______ _____ _____    ______ ____
ROOT
ATOM      1  C   UNL     1       6.367   5.222  17.880  0.00  0.00    +0.000 A 
ATOM      2  C   UNL     1       6.396   6.020  16.788  0.00  0.00    +0.000 A 
ATOM      3  C   UNL     1       5.120   6.422  16.101  0.00  0.00    +0.000 A 
ATOM      4  O   UNL     1       5.119   7.164  15.124  0.00  0.00    +0.000 OA
ATOM      5  N   UNL     1       3.962   5.909  16.593  0.00  0.00    +0.000 N 
ATOM      6  C   UNL     1       3.886   5.067  17.701  0.00  0.00    +0.000 A 
ATOM      7  C   UNL     1       2.625   4.619  18.111  0.00  0.00    +0.000 A 
ATOM      8  C   UNL     1       2.510   3.789  19.223  0.00  0.00    +0.000 A 
ATOM      9  C   UNL     1       3.664   3.415  19.918  0.00  0.00    +0.000 A 
ATOM     10  C   UNL     1       4.930   3.868  19.507  0.00  0.00    +0.000 A 
ATOM     11  C   UNL     1       5.063   4.698  18.378  0.00  0.00    +0.000 A 
ATOM     12  H   UNL     1       3.123   6.186  16.096  0.00  0.00    +0.000 HD
ENDROOT
BRANCH   9  13
ATOM     13  N   UNL     1       3.545   2.540  21.094  0.00  0.00    +0.000 N 
ATOM     14  O   UNL     1       4.479   1.761  21.326  0.00  0.00    +0.000 OA
ATOM     15  O   UNL     1       2.518   2.630  21.780  0.00  0.00    +0.000 OA
ENDBRANCH   9  13
BRANCH   1  17
ATOM     16  O   UNL     1       8.023   5.231  19.609  0.00  0.00    +0.000 OA
ATOM     17  C   UNL     1       7.663   4.837  18.511  0.00  0.00    +0.000 C 
BRANCH  17  18
ATOM     18  O   UNL     1       8.417   3.981  17.787  0.00  0.00    +0.000 OA
ATOM     19  H   UNL     1       8.681   4.310  16.900  0.00  0.00    +0.000 HD
ENDBRANCH  17  18
ENDBRANCH   1  17
BRANCH   2  20
ATOM     20  O   UNL     1       7.570   6.535  16.252  0.00  0.00    +0.000 OA
ATOM     21  H   UNL     1       8.283   6.449  16.914  0.00  0.00    +0.000 HD
ENDBRANCH   2  20
TORSDOF 4
ENDMDL
MODEL 8
REMARK VINA RESULT:      -6.8      2.949      4.199
REMARK  Name = 
REMARK  4 active torsions:
REMARK  status: ('A' for Active; 'I' for Inactive)
REMARK    1  A    between atoms: C_2  and  O_3
REMARK    2  A    between atoms: C_2  and  C_4
REMARK    3  A    between atoms: C_5  and  O_6
REMARK    4  A    between atoms: C_13  and  N_14
REMARK                            x       y       z     vdW  Elec       q    Type
REMARK                         _______ _______ _______ _____ _____    ______ ____
ROOT
ATOM      1  C   UNL     1       5.337   4.334  16.684  0.00  0.00    +0.000 A 
ATOM      2  C   UNL     1       5.963   5.073  17.627  0.00  0.00    +0.000 A 
ATOM      3  C   UNL     1       7.157   5.916  17.269  0.00  0.00    +0.000 A 
ATOM      4  O   UNL     1       7.728   6.613  18.103  0.00  0.00    +0.000 OA
ATOM      5  N   UNL     1       7.598   5.856  15.986  0.00  0.00    +0.000 N 
ATOM      6  C   UNL     1       6.996   5.093  14.986  0.00  0.00    +0.000 A 
ATOM      7  C   UNL     1       7.546   5.131  13.699  0.00  0.00    +0.000 A 
ATOM      8  C   UNL     1       6.963   4.394  12.672  0.00  0.00    +0.000 A 
ATOM      9  C   UNL     1       5.829   3.622  12.945  0.00  0.00    +0.000 A 
ATOM     10  C   UNL     1       5.277   3.586  14.238  0.00  0.00    +0.000 A 
ATOM     11  C   UNL     1       5.862   4.317  15.288  0.00  0.00    +0.000 A 
ATOM     12  H   UNL     1       8.414   6.421  15.783  0.00  0.00    +0.000 HD
ENDROOT
BRANCH   9  13
ATOM     13  N   UNL     1       5.210   2.843  11.861  0.00  0.00    +0.000 N 
ATOM     14  O   UNL     1       4.138   3.256  11.399  0.00  0.00    +0.000 OA
ATOM     15  O   UNL     1       5.794   1.820  11.478  0.00  0.00    +0.000 OA
ENDBRANCH   9  13
BRANCH   1  17
ATOM     16  O   UNL     1       3.013   3.777  16.822  0.00  0.00    +0.000 OA
ATOM     17  C   UNL     1       4.170   3.501  17.095  0.00  0.00    +0.000 C 
BRANCH  17  18
ATOM     18  O   UNL     1       4.485   2.380  17.781  0.00  0.00    +0.000 OA
ATOM     19  H   UNL     1       5.192   2.489  18.453  0.00  0.00    +0.000 HD
ENDBRANCH  17  18
ENDBRANCH   1  17
BRANCH   2  20
ATOM     20  O   UNL     1       5.548   5.130  18.951  0.00  0.00    +0.000 OA
ATOM     21  H   UNL     1       6.193   4.648  19.505  0.00  0.00    +0.000 HD
ENDBRANCH   2  20
TORSDOF 4
ENDMDL
MODEL 9
REMARK VINA RESULT:      -6.8      2.377      5.269
REMARK  Name = 
REMARK  4 active torsions:
REMARK  status: ('A' for Active; 'I' for Inactive)
REMARK    1  A    between atoms: C_2  and  O_3
REMARK    2  A    between atoms: C_2  and  C_4
REMARK    3  A    between atoms: C_5  and  O_6
REMARK    4  A    between atoms: C_13  and  N_14
REMARK                            x       y       z     vdW  Elec       q    Type
REMARK                         _______ _______ _______ _____ _____    ______ ____
ROOT
ATOM      1  C   UNL     1       6.490   5.164  17.848  0.00  0.00    +0.000 A 
ATOM      2  C   UNL     1       6.457   5.981  16.771  0.00  0.00    +0.000 A 
ATOM      3  C   UNL     1       5.144   6.364  16.142  0.00  0.00    +0.000 A 
ATOM      4  O   UNL     1       5.088   7.122  15.179  0.00  0.00    +0.000 OA
ATOM      5  N   UNL     1       4.019   5.814  16.669  0.00  0.00    +0.000 N 
ATOM      6  C   UNL     1       4.008   4.952  17.764  0.00  0.00    +0.000 A 
ATOM      7  C   UNL     1       2.774   4.466  18.214  0.00  0.00    +0.000 A 
ATOM      8  C   UNL     1       2.723   3.615  19.315  0.00  0.00    +0.000 A 
ATOM      9  C   UNL     1       3.913   3.257  19.957  0.00  0.00    +0.000 A 
ATOM     10  C   UNL     1       5.151   3.748  19.505  0.00  0.00    +0.000 A 
ATOM     11  C   UNL     1       5.219   4.600  18.387  0.00  0.00    +0.000 A 
ATOM     12  H   UNL     1       3.155   6.079  16.211  0.00  0.00    +0.000 HD
ENDROOT
BRANCH   9  13
ATOM     13  N   UNL     1       3.861   2.358  21.121  0.00  0.00    +0.000 N 
ATOM     14  O   UNL     1       2.843   2.392  21.826  0.00  0.00    +0.000 OA
ATOM     15  O   UNL     1       4.836   1.625  21.329  0.00  0.00    +0.000 OA
ENDBRANCH   9  13
BRANCH   1  17
ATOM     16  O   UNL     1       8.607   4.047  17.872  0.00  0.00    +0.000 OA
ATOM     17  C   UNL     1       7.818   4.799  18.421  0.00  0.00    +0.000 C 
BRANCH  17  18
ATOM     18  O   UNL     1       8.111   5.391  19.600  0.00  0.00    +0.000 OA
ATOM     19  H   UNL     1       8.981   5.845  19.632  0.00  0.00    +0.000 HD
ENDBRANCH  17  18
ENDBRANCH   1  17
BRANCH   2  20
ATOM     20  O   UNL     1       7.595   6.534  16.198  0.00  0.00    +0.000 OA
ATOM     21  H   UNL     1       8.383   6.092  16.573  0.00  0.00    +0.000 HD
ENDBRANCH   2  20
TORSDOF 4
ENDMDL
