MODEL 1
REMARK VINA RESULT:      -8.0      0.000      0.000
REMARK  Name = 
REMARK  7 active torsions:
REMARK  status: ('A' for Active; 'I' for Inactive)
REMARK    1  A    between atoms: C_1  and  C_2
REMARK    2  A    between atoms: C_7  and  N_8
REMARK    3  A    between atoms: C_9  and  C_11
REMARK    4  A    between atoms: C_11  and  C_13
REMARK    5  A    between atoms: C_13  and  C_14
REMARK    6  A    between atoms: C_14  and  C_16
REMARK    7  A    between atoms: C_17  and  C_18
REMARK                            x       y       z     vdW  Elec       q    Type
REMARK                         _______ _______ _______ _____ _____    ______ ____
ROOT
ATOM      1  C   UNL     1      -0.005  11.390  20.752  0.00  0.00    +0.000 C 
ATOM      2  O   UNL     1       0.974  12.102  20.527  0.00  0.00    +0.000 OA
ENDROOT
BRANCH   1   3
ATOM      3  C   UNL     1      -1.147  11.373  19.754  0.00  0.00    +0.000 A 
ATOM      4  C   UNL     1      -1.106  10.628  18.543  0.00  0.00    +0.000 A 
ATOM      5  C   UNL     1       0.050   9.815  18.035  0.00  0.00    +0.000 C 
ATOM      6  N   UNL     1      -2.206  10.657  17.669  0.00  0.00    +0.000 N 
ATOM      7  O   UNL     1      -2.142  10.074  16.533  0.00  0.00    +0.000 OA
ATOM      8  C   UNL     1      -3.393  11.309  18.041  0.00  0.00    +0.000 A 
ATOM      9  C   UNL     1      -4.556  11.253  17.237  0.00  0.00    +0.000 A 
ATOM     10  C   UNL     1      -5.746  11.860  17.639  0.00  0.00    +0.000 A 
ATOM     11  C   UNL     1      -5.793  12.563  18.835  0.00  0.00    +0.000 A 
ATOM     12  C   UNL     1      -4.645  12.656  19.622  0.00  0.00    +0.000 A 
ATOM     13  C   UNL     1      -3.435  12.027  19.248  0.00  0.00    +0.000 A 
ATOM     14  N   UNL     1      -2.291  12.109  20.069  0.00  0.00    +0.000 N 
ATOM     15  O   UNL     1      -2.356  12.879  21.082  0.00  0.00    +0.000 OA
ENDBRANCH   1   3
BRANCH   1  16
ATOM     16  C   UNL     1      -0.035  10.563  22.019  0.00  0.00    +0.000 C 
BRANCH  16  17
ATOM     17  C   UNL     1       1.035   9.504  22.108  0.00  0.00    +0.000 C 
ATOM     18  O   UNL     1       2.035   9.571  22.817  0.00  0.00    +0.000 OA
BRANCH  17  20
ATOM     19  N   UNL     1       1.941   7.675  20.761  0.00  0.00    +0.000 N 
ATOM     20  C   UNL     1       0.788   8.246  21.281  0.00  0.00    +0.000 C 
ATOM     21  O   UNL     1      -0.369   7.861  21.191  0.00  0.00    +0.000 OA
ATOM     22  H   UNL     1       2.801   8.188  20.938  0.00  0.00    +0.000 HD
BRANCH  19  29
ATOM     23  C   UNL     1       2.938   7.717  17.962  0.00  0.00    +0.000 C 
ATOM     24  C   UNL     1       2.485   6.474  18.681  0.00  0.00    +0.000 A 
ATOM     25  C   UNL     1       2.530   5.258  17.964  0.00  0.00    +0.000 A 
ATOM     26  C   UNL     1       2.127   4.058  18.546  0.00  0.00    +0.000 A 
ATOM     27  C   UNL     1       1.675   4.053  19.854  0.00  0.00    +0.000 A 
ATOM     28  C   UNL     1       1.624   5.246  20.575  0.00  0.00    +0.000 A 
ATOM     29  C   UNL     1       2.014   6.470  20.012  0.00  0.00    +0.000 A 
ENDBRANCH  19  29
ENDBRANCH  17  20
ENDBRANCH  16  17
ENDBRANCH   1  16
TORSDOF 5
ENDMDL
MODEL 2
REMARK VINA RESULT:      -7.7      6.280      9.344
REMARK  Name = 
REMARK  7 active torsions:
REMARK  status: ('A' for Active; 'I' for Inactive)
REMARK    1  A    between atoms: C_1  and  C_2
REMARK    2  A    between atoms: C_7  and  N_8
REMARK    3  A    between atoms: C_9  and  C_11
REMARK    4  A    between atoms: C_11  and  C_13
REMARK    5  A    between atoms: C_13  and  C_14
REMARK    6  A    between atoms: C_14  and  C_16
REMARK    7  A    between atoms: C_17  and  C_18
REMARK                            x       y       z     vdW  Elec       q    Type
REMARK                         _______ _______ _______ _____ _____    ______ ____
ROOT
ATOM      1  C   UNL     1       4.973   6.689  16.541  0.00  0.00    +0.000 C 
ATOM      2  O   UNL     1       4.867   6.838  15.324  0.00  0.00    +0.000 OA
ENDROOT
BRANCH   1   3
ATOM      3  C   UNL     1       4.244   5.539  17.209  0.00  0.00    +0.000 A 
ATOM      4  C   UNL     1       4.572   4.175  16.977  0.00  0.00    +0.000 A 
ATOM      5  C   UNL     1       5.611   3.658  16.022  0.00  0.00    +0.000 C 
ATOM      6  N   UNL     1       3.855   3.163  17.636  0.00  0.00    +0.000 N 
ATOM      7  O   UNL     1       4.072   1.934  17.359  0.00  0.00    +0.000 OA
ATOM      8  C   UNL     1       2.906   3.488  18.618  0.00  0.00    +0.000 A 
ATOM      9  C   UNL     1       2.255   2.491  19.384  0.00  0.00    +0.000 A 
ATOM     10  C   UNL     1       1.352   2.826  20.394  0.00  0.00    +0.000 A 
ATOM     11  C   UNL     1       1.054   4.159  20.640  0.00  0.00    +0.000 A 
ATOM     12  C   UNL     1       1.661   5.151  19.870  0.00  0.00    +0.000 A 
ATOM     13  C   UNL     1       2.599   4.838  18.860  0.00  0.00    +0.000 A 
ATOM     14  N   UNL     1       3.223   5.856  18.109  0.00  0.00    +0.000 N 
ATOM     15  O   UNL     1       2.809   7.048  18.286  0.00  0.00    +0.000 OA
ENDBRANCH   1   3
BRANCH   1  16
ATOM     16  C   UNL     1       5.823   7.664  17.328  0.00  0.00    +0.000 C 
BRANCH  16  17
ATOM     17  C   UNL     1       7.310   7.454  17.196  0.00  0.00    +0.000 C 
ATOM     18  O   UNL     1       7.846   6.697  16.393  0.00  0.00    +0.000 OA
BRANCH  17  20
ATOM     19  N   UNL     1       8.193   9.659  17.777  0.00  0.00    +0.000 N 
ATOM     20  C   UNL     1       8.180   8.312  18.109  0.00  0.00    +0.000 C 
ATOM     21  O   UNL     1       8.737   7.744  19.038  0.00  0.00    +0.000 OA
ATOM     22  H   UNL     1       7.676   9.907  16.936  0.00  0.00    +0.000 HD
BRANCH  19  29
ATOM     23  C   UNL     1       7.752  12.505  17.043  0.00  0.00    +0.000 C 
ATOM     24  C   UNL     1       8.662  12.048  18.151  0.00  0.00    +0.000 A 
ATOM     25  C   UNL     1       9.354  13.044  18.874  0.00  0.00    +0.000 A 
ATOM     26  C   UNL     1      10.221  12.716  19.914  0.00  0.00    +0.000 A 
ATOM     27  C   UNL     1      10.407  11.387  20.251  0.00  0.00    +0.000 A 
ATOM     28  C   UNL     1       9.731  10.391  19.547  0.00  0.00    +0.000 A 
ATOM     29  C   UNL     1       8.861  10.691  18.489  0.00  0.00    +0.000 A 
ENDBRANCH  19  29
ENDBRANCH  17  20
ENDBRANCH  16  17
ENDBRANCH   1  16
TORSDOF 5
ENDMDL
MODEL 3
REMARK VINA RESULT:      -7.6      4.940      8.637
REMARK  Name = 
REMARK  7 active torsions:
REMARK  status: ('A' for Active; 'I' for Inactive)
REMARK    1  A    between atoms: C_1  and  C_2
REMARK    2  A    between atoms: C_7  and  N_8
REMARK    3  A    between atoms: C_9  and  C_11
REMARK    4  A    between atoms: C_11  and  C_13
REMARK    5  A    between atoms: C_13  and  C_14
REMARK    6  A    between atoms: C_14  and  C_16
REMARK    7  A    between atoms: C_17  and  C_18
REMARK                            x       y       z     vdW  Elec       q    Type
REMARK                         _______ _______ _______ _____ _____    ______ ____
ROOT
ATOM      1  C   UNL     1       4.193   2.401  20.237  0.00  0.00    +0.000 C 
ATOM      2  O   UNL     1       5.093   1.735  20.748  0.00  0.00    +0.000 OA
ENDROOT
BRANCH   1   3
ATOM      3  C   UNL     1       4.507   3.256  19.024  0.00  0.00    +0.000 A 
ATOM      4  C   UNL     1       3.843   3.105  17.776  0.00  0.00    +0.000 A 
ATOM      5  C   UNL     1       2.802   2.075  17.440  0.00  0.00    +0.000 C 
ATOM      6  N   UNL     1       4.184   3.938  16.698  0.00  0.00    +0.000 N 
ATOM      7  O   UNL     1       3.666   3.745  15.545  0.00  0.00    +0.000 OA
ATOM      8  C   UNL     1       5.084   5.002  16.878  0.00  0.00    +0.000 A 
ATOM      9  C   UNL     1       5.355   5.930  15.845  0.00  0.00    +0.000 A 
ATOM     10  C   UNL     1       6.210   7.014  16.050  0.00  0.00    +0.000 A 
ATOM     11  C   UNL     1       6.837   7.176  17.278  0.00  0.00    +0.000 A 
ATOM     12  C   UNL     1       6.606   6.250  18.294  0.00  0.00    +0.000 A 
ATOM     13  C   UNL     1       5.723   5.160  18.120  0.00  0.00    +0.000 A 
ATOM     14  N   UNL     1       5.481   4.247  19.167  0.00  0.00    +0.000 N 
ATOM     15  O   UNL     1       6.187   4.370  20.221  0.00  0.00    +0.000 OA
ENDBRANCH   1   3
BRANCH   1  16
ATOM     16  C   UNL     1       2.806   2.346  20.841  0.00  0.00    +0.000 C 
BRANCH  16  17
ATOM     17  C   UNL     1       2.335   3.639  21.458  0.00  0.00    +0.000 C 
ATOM     18  O   UNL     1       2.380   3.906  22.655  0.00  0.00    +0.000 OA
BRANCH  17  20
ATOM     19  N   UNL     1       2.451   5.923  20.592  0.00  0.00    +0.000 N 
ATOM     20  C   UNL     1       1.825   4.690  20.476  0.00  0.00    +0.000 C 
ATOM     21  O   UNL     1       0.963   4.336  19.685  0.00  0.00    +0.000 OA
ATOM     22  H   UNL     1       3.125   6.002  21.350  0.00  0.00    +0.000 HD
BRANCH  19  29
ATOM     23  C   UNL     1       1.002   8.282  21.674  0.00  0.00    +0.000 C 
ATOM     24  C   UNL     1       1.535   8.186  20.269  0.00  0.00    +0.000 A 
ATOM     25  C   UNL     1       1.315   9.290  19.416  0.00  0.00    +0.000 A 
ATOM     26  C   UNL     1       1.768   9.291  18.099  0.00  0.00    +0.000 A 
ATOM     27  C   UNL     1       2.451   8.189  17.613  0.00  0.00    +0.000 A 
ATOM     28  C   UNL     1       2.675   7.091  18.443  0.00  0.00    +0.000 A 
ATOM     29  C   UNL     1       2.222   7.058  19.769  0.00  0.00    +0.000 A 
ENDBRANCH  19  29
ENDBRANCH  17  20
ENDBRANCH  16  17
ENDBRANCH   1  16
TORSDOF 5
ENDMDL
MODEL 4
REMARK VINA RESULT:      -7.5      0.984      1.226
REMARK  Name = 
REMARK  7 active torsions:
REMARK  status: ('A' for Active; 'I' for Inactive)
REMARK    1  A    between atoms: C_1  and  C_2
REMARK    2  A    between atoms: C_7  and  N_8
REMARK    3  A    between atoms: C_9  and  C_11
REMARK    4  A    between atoms: C_11  and  C_13
REMARK    5  A    between atoms: C_13  and  C_14
REMARK    6  A    between atoms: C_14  and  C_16
REMARK    7  A    between atoms: C_17  and  C_18
REMARK                            x       y       z     vdW  Elec       q    Type
REMARK                         _______ _______ _______ _____ _____    ______ ____
ROOT
ATOM      1  C   UNL     1      -0.303  11.530  21.715  0.00  0.00    +0.000 C 
ATOM      2  O   UNL     1       0.658  12.297  21.653  0.00  0.00    +0.000 OA
ENDROOT
BRANCH   1   3
ATOM      3  C   UNL     1      -1.526  11.811  20.864  0.00  0.00    +0.000 A 
ATOM      4  C   UNL     1      -1.641  11.392  19.510  0.00  0.00    +0.000 A 
ATOM      5  C   UNL     1      -0.590  10.681  18.705  0.00  0.00    +0.000 C 
ATOM      6  N   UNL     1      -2.808  11.684  18.785  0.00  0.00    +0.000 N 
ATOM      7  O   UNL     1      -2.881  11.401  17.540  0.00  0.00    +0.000 OA
ATOM      8  C   UNL     1      -3.912  12.274  19.422  0.00  0.00    +0.000 A 
ATOM      9  C   UNL     1      -5.142  12.471  18.750  0.00  0.00    +0.000 A 
ATOM     10  C   UNL     1      -6.249  13.009  19.406  0.00  0.00    +0.000 A 
ATOM     11  C   UNL     1      -6.145  13.393  20.736  0.00  0.00    +0.000 A 
ATOM     12  C   UNL     1      -4.929  13.237  21.402  0.00  0.00    +0.000 A 
ATOM     13  C   UNL     1      -3.801  12.669  20.766  0.00  0.00    +0.000 A 
ATOM     14  N   UNL     1      -2.587  12.495  21.463  0.00  0.00    +0.000 N 
ATOM     15  O   UNL     1      -2.512  12.990  22.634  0.00  0.00    +0.000 OA
ENDBRANCH   1   3
BRANCH   1  16
ATOM     16  C   UNL     1      -0.231  10.338  22.645  0.00  0.00    +0.000 C 
BRANCH  16  17
ATOM     17  C   UNL     1       0.941   9.420  22.406  0.00  0.00    +0.000 C 
ATOM     18  O   UNL     1       2.025   9.498  22.975  0.00  0.00    +0.000 OA
BRANCH  17  20
ATOM     19  N   UNL     1       1.853   7.639  21.001  0.00  0.00    +0.000 N 
ATOM     20  C   UNL     1       0.698   8.287  21.414  0.00  0.00    +0.000 C 
ATOM     21  O   UNL     1      -0.465   8.049  21.118  0.00  0.00    +0.000 OA
ATOM     22  H   UNL     1       2.724   8.029  21.354  0.00  0.00    +0.000 HD
BRANCH  19  29
ATOM     23  C   UNL     1       2.615   7.989  18.149  0.00  0.00    +0.000 C 
ATOM     24  C   UNL     1       2.278   6.664  18.779  0.00  0.00    +0.000 A 
ATOM     25  C   UNL     1       2.319   5.523  17.949  0.00  0.00    +0.000 A 
ATOM     26  C   UNL     1       2.019   4.255  18.442  0.00  0.00    +0.000 A 
ATOM     27  C   UNL     1       1.676   4.107  19.775  0.00  0.00    +0.000 A 
ATOM     28  C   UNL     1       1.631   5.225  20.608  0.00  0.00    +0.000 A 
ATOM     29  C   UNL     1       1.918   6.513  20.137  0.00  0.00    +0.000 A 
ENDBRANCH  19  29
ENDBRANCH  17  20
ENDBRANCH  16  17
ENDBRANCH   1  16
TORSDOF 5
ENDMDL
MODEL 5
REMARK VINA RESULT:      -7.5      5.787      9.599
REMARK  Name = 
REMARK  7 active torsions:
REMARK  status: ('A' for Active; 'I' for Inactive)
REMARK    1  A    between atoms: C_1  and  C_2
REMARK    2  A    between atoms: C_7  and  N_8
REMARK    3  A    between atoms: C_9  and  C_11
REMARK    4  A    between atoms: C_11  and  C_13
REMARK    5  A    between atoms: C_13  and  C_14
REMARK    6  A    between atoms: C_14  and  C_16
REMARK    7  A    between atoms: C_17  and  C_18
REMARK                            x       y       z     vdW  Elec       q    Type
REMARK                         _______ _______ _______ _____ _____    ______ ____
ROOT
ATOM      1  C   UNL     1       5.791   6.352  16.790  0.00  0.00    +0.000 C 
ATOM      2  O   UNL     1       5.339   6.703  15.700  0.00  0.00    +0.000 OA
ENDROOT
BRANCH   1   3
ATOM      3  C   UNL     1       4.829   5.948  17.891  0.00  0.00    +0.000 A 
ATOM      4  C   UNL     1       3.724   6.750  18.287  0.00  0.00    +0.000 A 
ATOM      5  C   UNL     1       3.369   8.108  17.748  0.00  0.00    +0.000 C 
ATOM      6  N   UNL     1       2.873   6.308  19.313  0.00  0.00    +0.000 N 
ATOM      7  O   UNL     1       1.937   7.065  19.746  0.00  0.00    +0.000 OA
ATOM      8  C   UNL     1       3.027   5.024  19.861  0.00  0.00    +0.000 A 
ATOM      9  C   UNL     1       2.113   4.505  20.809  0.00  0.00    +0.000 A 
ATOM     10  C   UNL     1       2.245   3.209  21.309  0.00  0.00    +0.000 A 
ATOM     11  C   UNL     1       3.309   2.416  20.901  0.00  0.00    +0.000 A 
ATOM     12  C   UNL     1       4.237   2.926  19.994  0.00  0.00    +0.000 A 
ATOM     13  C   UNL     1       4.109   4.226  19.452  0.00  0.00    +0.000 A 
ATOM     14  N   UNL     1       5.043   4.717  18.516  0.00  0.00    +0.000 N 
ATOM     15  O   UNL     1       6.068   3.998  18.285  0.00  0.00    +0.000 OA
ENDBRANCH   1   3
BRANCH   1  16
ATOM     16  C   UNL     1       7.291   6.342  16.993  0.00  0.00    +0.000 C 
BRANCH  16  17
ATOM     17  C   UNL     1       7.765   7.066  18.228  0.00  0.00    +0.000 C 
ATOM     18  O   UNL     1       7.980   6.538  19.314  0.00  0.00    +0.000 OA
BRANCH  17  20
ATOM     19  N   UNL     1       8.980   9.065  18.940  0.00  0.00    +0.000 N 
ATOM     20  C   UNL     1       8.043   8.555  18.053  0.00  0.00    +0.000 C 
ATOM     21  O   UNL     1       7.450   9.127  17.148  0.00  0.00    +0.000 OA
ATOM     22  H   UNL     1       9.325   8.408  19.637  0.00  0.00    +0.000 HD
BRANCH  19  29
ATOM     23  C   UNL     1       8.881  10.651  21.451  0.00  0.00    +0.000 C 
ATOM     24  C   UNL     1       9.434  11.162  20.148  0.00  0.00    +0.000 A 
ATOM     25  C   UNL     1       9.924  12.487  20.127  0.00  0.00    +0.000 A 
ATOM     26  C   UNL     1      10.451  13.047  18.966  0.00  0.00    +0.000 A 
ATOM     27  C   UNL     1      10.501  12.291  17.807  0.00  0.00    +0.000 A 
ATOM     28  C   UNL     1      10.020  10.982  17.811  0.00  0.00    +0.000 A 
ATOM     29  C   UNL     1       9.476  10.396  18.962  0.00  0.00    +0.000 A 
ENDBRANCH  19  29
ENDBRANCH  17  20
ENDBRANCH  16  17
ENDBRANCH   1  16
TORSDOF 5
ENDMDL
MODEL 6
REMARK VINA RESULT:      -7.4      3.293      4.874
REMARK  Name = 
REMARK  7 active torsions:
REMARK  status: ('A' for Active; 'I' for Inactive)
REMARK    1  A    between atoms: C_1  and  C_2
REMARK    2  A    between atoms: C_7  and  N_8
REMARK    3  A    between atoms: C_9  and  C_11
REMARK    4  A    between atoms: C_11  and  C_13
REMARK    5  A    between atoms: C_13  and  C_14
REMARK    6  A    between atoms: C_14  and  C_16
REMARK    7  A    between atoms: C_17  and  C_18
REMARK                            x       y       z     vdW  Elec       q    Type
REMARK                         _______ _______ _______ _____ _____    ______ ____
ROOT
ATOM      1  C   UNL     1       1.082   9.733  18.311  0.00  0.00    +0.000 C 
ATOM      2  O   UNL     1       0.145   9.425  17.576  0.00  0.00    +0.000 OA
ENDROOT
BRANCH   1   3
ATOM      3  C   UNL     1       0.894  10.854  19.315  0.00  0.00    +0.000 A 
ATOM      4  C   UNL     1       1.496  12.134  19.171  0.00  0.00    +0.000 A 
ATOM      5  C   UNL     1       2.434  12.558  18.076  0.00  0.00    +0.000 C 
ATOM      6  N   UNL     1       1.272  13.125  20.140  0.00  0.00    +0.000 N 
ATOM      7  O   UNL     1       1.887  14.243  20.074  0.00  0.00    +0.000 OA
ATOM      8  C   UNL     1       0.356  12.905  21.182  0.00  0.00    +0.000 A 
ATOM      9  C   UNL     1       0.018  13.926  22.103  0.00  0.00    +0.000 A 
ATOM     10  C   UNL     1      -0.932  13.714  23.103  0.00  0.00    +0.000 A 
ATOM     11  C   UNL     1      -1.541  12.473  23.227  0.00  0.00    +0.000 A 
ATOM     12  C   UNL     1      -1.193  11.448  22.348  0.00  0.00    +0.000 A 
ATOM     13  C   UNL     1      -0.253  11.645  21.310  0.00  0.00    +0.000 A 
ATOM     14  N   UNL     1       0.068  10.605  20.414  0.00  0.00    +0.000 N 
ATOM     15  O   UNL     1      -0.419   9.454  20.661  0.00  0.00    +0.000 OA
ENDBRANCH   1   3
BRANCH   1  16
ATOM     16  C   UNL     1       2.393   8.986  18.181  0.00  0.00    +0.000 C 
BRANCH  16  17
ATOM     17  C   UNL     1       2.423   7.642  18.863  0.00  0.00    +0.000 C 
ATOM     18  O   UNL     1       1.885   7.383  19.935  0.00  0.00    +0.000 OA
BRANCH  17  20
ATOM     19  N   UNL     1       4.386   6.893  17.611  0.00  0.00    +0.000 N 
ATOM     20  C   UNL     1       3.138   6.532  18.099  0.00  0.00    +0.000 C 
ATOM     21  O   UNL     1       2.567   5.453  18.025  0.00  0.00    +0.000 OA
ATOM     22  H   UNL     1       4.651   7.864  17.765  0.00  0.00    +0.000 HD
BRANCH  19  29
ATOM     23  C   UNL     1       6.503   5.444  19.112  0.00  0.00    +0.000 C 
ATOM     24  C   UNL     1       6.305   5.351  17.623  0.00  0.00    +0.000 A 
ATOM     25  C   UNL     1       7.198   4.527  16.902  0.00  0.00    +0.000 A 
ATOM     26  C   UNL     1       7.095   4.381  15.520  0.00  0.00    +0.000 A 
ATOM     27  C   UNL     1       6.097   5.054  14.837  0.00  0.00    +0.000 A 
ATOM     28  C   UNL     1       5.209   5.872  15.535  0.00  0.00    +0.000 A 
ATOM     29  C   UNL     1       5.294   6.045  16.923  0.00  0.00    +0.000 A 
ENDBRANCH  19  29
ENDBRANCH  17  20
ENDBRANCH  16  17
ENDBRANCH   1  16
TORSDOF 5
ENDMDL
MODEL 7
REMARK VINA RESULT:      -7.3      4.585      9.404
REMARK  Name = 
REMARK  7 active torsions:
REMARK  status: ('A' for Active; 'I' for Inactive)
REMARK    1  A    between atoms: C_1  and  C_2
REMARK    2  A    between atoms: C_7  and  N_8
REMARK    3  A    between atoms: C_9  and  C_11
REMARK    4  A    between atoms: C_11  and  C_13
REMARK    5  A    between atoms: C_13  and  C_14
REMARK    6  A    between atoms: C_14  and  C_16
REMARK    7  A    between atoms: C_17  and  C_18
REMARK                            x       y       z     vdW  Elec       q    Type
REMARK                         _______ _______ _______ _____ _____    ______ ____
ROOT
ATOM      1  C   UNL     1       4.623   4.076  18.856  0.00  0.00    +0.000 C 
ATOM      2  O   UNL     1       5.196   3.349  19.667  0.00  0.00    +0.000 OA
ENDROOT
BRANCH   1   3
ATOM      3  C   UNL     1       5.351   4.484  17.590  0.00  0.00    +0.000 A 
ATOM      4  C   UNL     1       6.442   5.398  17.583  0.00  0.00    +0.000 A 
ATOM      5  C   UNL     1       6.996   6.132  18.771  0.00  0.00    +0.000 C 
ATOM      6  N   UNL     1       7.071   5.724  16.371  0.00  0.00    +0.000 N 
ATOM      7  O   UNL     1       7.984   6.619  16.339  0.00  0.00    +0.000 OA
ATOM      8  C   UNL     1       6.718   5.061  15.185  0.00  0.00    +0.000 A 
ATOM      9  C   UNL     1       7.415   5.281  13.973  0.00  0.00    +0.000 A 
ATOM     10  C   UNL     1       7.090   4.578  12.811  0.00  0.00    +0.000 A 
ATOM     11  C   UNL     1       6.044   3.667  12.825  0.00  0.00    +0.000 A 
ATOM     12  C   UNL     1       5.325   3.464  14.003  0.00  0.00    +0.000 A 
ATOM     13  C   UNL     1       5.653   4.144  15.199  0.00  0.00    +0.000 A 
ATOM     14  N   UNL     1       4.932   3.908  16.388  0.00  0.00    +0.000 N 
ATOM     15  O   UNL     1       3.900   3.165  16.306  0.00  0.00    +0.000 OA
ENDBRANCH   1   3
BRANCH   1  16
ATOM     16  C   UNL     1       3.214   4.542  19.155  0.00  0.00    +0.000 C 
BRANCH  16  17
ATOM     17  C   UNL     1       2.994   6.026  19.007  0.00  0.00    +0.000 C 
ATOM     18  O   UNL     1       3.453   6.719  18.104  0.00  0.00    +0.000 OA
BRANCH  17  20
ATOM     19  N   UNL     1       1.925   8.035  19.901  0.00  0.00    +0.000 N 
ATOM     20  C   UNL     1       2.080   6.664  20.048  0.00  0.00    +0.000 C 
ATOM     21  O   UNL     1       1.562   5.914  20.864  0.00  0.00    +0.000 OA
ATOM     22  H   UNL     1       2.481   8.462  19.164  0.00  0.00    +0.000 HD
BRANCH  19  29
ATOM     23  C   UNL     1       0.160  10.032  18.585  0.00  0.00    +0.000 C 
ATOM     24  C   UNL     1       0.242   9.825  20.073  0.00  0.00    +0.000 A 
ATOM     25  C   UNL     1      -0.569  10.647  20.887  0.00  0.00    +0.000 A 
ATOM     26  C   UNL     1      -0.557  10.531  22.275  0.00  0.00    +0.000 A 
ATOM     27  C   UNL     1       0.262   9.589  22.873  0.00  0.00    +0.000 A 
ATOM     28  C   UNL     1       1.069   8.770  22.083  0.00  0.00    +0.000 A 
ATOM     29  C   UNL     1       1.085   8.871  20.685  0.00  0.00    +0.000 A 
ENDBRANCH  19  29
ENDBRANCH  17  20
ENDBRANCH  16  17
ENDBRANCH   1  16
TORSDOF 5
ENDMDL
MODEL 8
REMARK VINA RESULT:      -7.3      5.519      9.418
REMARK  Name = 
REMARK  7 active torsions:
REMARK  status: ('A' for Active; 'I' for Inactive)
REMARK    1  A    between atoms: C_1  and  C_2
REMARK    2  A    between atoms: C_7  and  N_8
REMARK    3  A    between atoms: C_9  and  C_11
REMARK    4  A    between atoms: C_11  and  C_13
REMARK    5  A    between atoms: C_13  and  C_14
REMARK    6  A    between atoms: C_14  and  C_16
REMARK    7  A    between atoms: C_17  and  C_18
REMARK                            x       y       z     vdW  Elec       q    Type
REMARK                         _______ _______ _______ _____ _____    ______ ____
ROOT
ATOM      1  C   UNL     1       4.909   6.495  16.941  0.00  0.00    +0.000 C 
ATOM      2  O   UNL     1       4.811   5.933  15.850  0.00  0.00    +0.000 OA
ENDROOT
BRANCH   1   3
ATOM      3  C   UNL     1       4.135   5.946  18.124  0.00  0.00    +0.000 A 
ATOM      4  C   UNL     1       3.034   6.626  18.712  0.00  0.00    +0.000 A 
ATOM      5  C   UNL     1       2.508   7.978  18.318  0.00  0.00    +0.000 C 
ATOM      6  N   UNL     1       2.362   6.053  19.805  0.00  0.00    +0.000 N 
ATOM      7  O   UNL     1       1.437   6.701  20.405  0.00  0.00    +0.000 OA
ATOM      8  C   UNL     1       2.686   4.758  20.239  0.00  0.00    +0.000 A 
ATOM      9  C   UNL     1       1.948   4.107  21.256  0.00  0.00    +0.000 A 
ATOM     10  C   UNL     1       2.245   2.800  21.644  0.00  0.00    +0.000 A 
ATOM     11  C   UNL     1       3.303   2.126  21.050  0.00  0.00    +0.000 A 
ATOM     12  C   UNL     1       4.061   2.766  20.070  0.00  0.00    +0.000 A 
ATOM     13  C   UNL     1       3.763   4.080  19.641  0.00  0.00    +0.000 A 
ATOM     14  N   UNL     1       4.524   4.703  18.630  0.00  0.00    +0.000 N 
ATOM     15  O   UNL     1       5.562   4.089  18.221  0.00  0.00    +0.000 OA
ENDBRANCH   1   3
BRANCH   1  16
ATOM     16  C   UNL     1       5.794   7.717  17.059  0.00  0.00    +0.000 C 
BRANCH  16  17
ATOM     17  C   UNL     1       7.274   7.429  17.046  0.00  0.00    +0.000 C 
ATOM     18  O   UNL     1       7.829   6.631  16.298  0.00  0.00    +0.000 OA
BRANCH  17  20
ATOM     19  N   UNL     1       8.151   9.612  17.712  0.00  0.00    +0.000 N 
ATOM     20  C   UNL     1       8.114   8.257  18.012  0.00  0.00    +0.000 C 
ATOM     21  O   UNL     1       8.630   7.663  18.949  0.00  0.00    +0.000 OA
ATOM     22  H   UNL     1       7.670   9.884  16.858  0.00  0.00    +0.000 HD
BRANCH  19  29
ATOM     23  C   UNL     1       7.753  12.479  17.036  0.00  0.00    +0.000 C 
ATOM     24  C   UNL     1       8.620  11.987  18.164  0.00  0.00    +0.000 A 
ATOM     25  C   UNL     1       9.292  12.960  18.936  0.00  0.00    +0.000 A 
ATOM     26  C   UNL     1      10.119  12.600  19.998  0.00  0.00    +0.000 A 
ATOM     27  C   UNL     1      10.285  11.261  20.307  0.00  0.00    +0.000 A 
ATOM     28  C   UNL     1       9.629  10.288  19.554  0.00  0.00    +0.000 A 
ATOM     29  C   UNL     1       8.799  10.621  18.474  0.00  0.00    +0.000 A 
ENDBRANCH  19  29
ENDBRANCH  17  20
ENDBRANCH  16  17
ENDBRANCH   1  16
TORSDOF 5
ENDMDL
MODEL 9
REMARK VINA RESULT:      -7.2      2.335      3.828
REMARK  Name = 
REMARK  7 active torsions:
REMARK  status: ('A' for Active; 'I' for Inactive)
REMARK    1  A    between atoms: C_1  and  C_2
REMARK    2  A    between atoms: C_7  and  N_8
REMARK    3  A    between atoms: C_9  and  C_11
REMARK    4  A    between atoms: C_11  and  C_13
REMARK    5  A    between atoms: C_13  and  C_14
REMARK    6  A    between atoms: C_14  and  C_16
REMARK    7  A    between atoms: C_17  and  C_18
REMARK                            x       y       z     vdW  Elec       q    Type
REMARK                         _______ _______ _______ _____ _____    ______ ____
ROOT
ATOM      1  C   UNL     1       1.068  10.382  18.942  0.00  0.00    +0.000 C 
ATOM      2  O   UNL     1       1.966  11.165  18.632  0.00  0.00    +0.000 OA
ENDROOT
BRANCH   1   3
ATOM      3  C   UNL     1       0.146  10.737  20.093  0.00  0.00    +0.000 A 
ATOM      4  C   UNL     1       0.341  10.258  21.417  0.00  0.00    +0.000 A 
ATOM      5  C   UNL     1       1.413   9.308  21.873  0.00  0.00    +0.000 C 
ATOM      6  N   UNL     1      -0.552  10.634  22.434  0.00  0.00    +0.000 N 
ATOM      7  O   UNL     1      -0.446  10.129  23.605  0.00  0.00    +0.000 OA
ATOM      8  C   UNL     1      -1.559  11.579  22.182  0.00  0.00    +0.000 A 
ATOM      9  C   UNL     1      -2.397  12.068  23.214  0.00  0.00    +0.000 A 
ATOM     10  C   UNL     1      -3.360  13.046  22.964  0.00  0.00    +0.000 A 
ATOM     11  C   UNL     1      -3.531  13.534  21.676  0.00  0.00    +0.000 A 
ATOM     12  C   UNL     1      -2.737  13.037  20.643  0.00  0.00    +0.000 A 
ATOM     13  C   UNL     1      -1.736  12.066  20.876  0.00  0.00    +0.000 A 
ATOM     14  N   UNL     1      -0.924  11.594  19.824  0.00  0.00    +0.000 N 
ATOM     15  O   UNL     1      -1.218  11.977  18.645  0.00  0.00    +0.000 OA
ENDBRANCH   1   3
BRANCH   1  16
ATOM     16  C   UNL     1       0.920   9.091  18.166  0.00  0.00    +0.000 C 
BRANCH  16  17
ATOM     17  C   UNL     1       2.210   8.350  17.922  0.00  0.00    +0.000 C 
ATOM     18  O   UNL     1       3.160   8.783  17.277  0.00  0.00    +0.000 OA
BRANCH  17  20
ATOM     19  N   UNL     1       2.197   5.913  17.721  0.00  0.00    +0.000 N 
ATOM     20  C   UNL     1       2.322   6.985  18.593  0.00  0.00    +0.000 C 
ATOM     21  O   UNL     1       2.540   6.976  19.797  0.00  0.00    +0.000 OA
ATOM     22  H   UNL     1       1.985   6.157  16.756  0.00  0.00    +0.000 HD
BRANCH  19  29
ATOM     23  C   UNL     1       4.523   4.344  16.741  0.00  0.00    +0.000 C 
ATOM     24  C   UNL     1       3.423   3.781  17.600  0.00  0.00    +0.000 A 
ATOM     25  C   UNL     1       3.508   2.414  17.947  0.00  0.00    +0.000 A 
ATOM     26  C   UNL     1       2.534   1.804  18.735  0.00  0.00    +0.000 A 
ATOM     27  C   UNL     1       1.463   2.551  19.193  0.00  0.00    +0.000 A 
ATOM     28  C   UNL     1       1.365   3.902  18.859  0.00  0.00    +0.000 A 
ATOM     29  C   UNL     1       2.324   4.539  18.059  0.00  0.00    +0.000 A 
ENDBRANCH  19  29
ENDBRANCH  17  20
ENDBRANCH  16  17
ENDBRANCH   1  16
TORSDOF 5
ENDMDL
