MODEL 1
REMARK VINA RESULT:      -7.4      0.000      0.000
REMARK  Name = 
REMARK  7 active torsions:
REMARK  status: ('A' for Active; 'I' for Inactive)
REMARK    1  A    between atoms: C_1  and  N_2
REMARK    2  A    between atoms: C_3  and  S_11
REMARK    3  A    between atoms: N_4  and  C_5
REMARK    4  A    between atoms: S_11  and  C_12
REMARK    5  A    between atoms: N_16  and  C_17
REMARK    6  A    between atoms: C_21  and  O_22
REMARK    7  A    between atoms: O_22  and  C_23
REMARK                            x       y       z     vdW  Elec       q    Type
REMARK                         _______ _______ _______ _____ _____    ______ ____
ROOT
ATOM      1  C   UNL     1       5.661   5.725  18.109  0.00  0.00    +0.000 C 
ATOM      2  C   UNL     1       4.855   6.803  17.404  0.00  0.00    +0.000 C 
ATOM      3  C   UNL     1       5.095   6.573  15.944  0.00  0.00    +0.000 C 
ATOM      4  O   UNL     1       4.592   7.296  15.093  0.00  0.00    +0.000 OA
ATOM      5  N   UNL     1       5.873   5.453  15.774  0.00  0.00    +0.000 N 
ATOM      6  C   UNL     1       6.249   4.902  16.983  0.00  0.00    +0.000 C 
ATOM      7  O   UNL     1       7.024   3.967  17.149  0.00  0.00    +0.000 OA
ENDROOT
BRANCH   5   8
ATOM      8  C   UNL     1       6.296   4.952  14.504  0.00  0.00    +0.000 A 
ATOM      9  C   UNL     1       7.486   5.402  13.910  0.00  0.00    +0.000 A 
ATOM     10  C   UNL     1       7.912   4.895  12.681  0.00  0.00    +0.000 A 
ATOM     11  C   UNL     1       7.136   3.951  12.009  0.00  0.00    +0.000 A 
ATOM     12  C   UNL     1       5.941   3.504  12.564  0.00  0.00    +0.000 A 
ATOM     13  C   UNL     1       5.535   3.990  13.811  0.00  0.00    +0.000 A 
BRANCH  12  14
ATOM     14  O   UNL     1       5.265   2.603  11.788  0.00  0.00    +0.000 OA
ATOM     15  C   UNL     1       4.063   3.053  11.172  0.00  0.00    +0.000 C 
ENDBRANCH  12  14
ENDBRANCH   5   8
BRANCH   1  16
ATOM     16  S   UNL     1       4.562   4.793  19.206  0.00  0.00    +0.000 S 
BRANCH  16  19
ATOM     17  C   UNL     1       2.057   4.227  17.445  0.00  0.00    +0.000 C 
ATOM     18  N   UNL     1       1.989   5.036  18.652  0.00  0.00    +0.000 N 
ATOM     19  C   UNL     1       3.071   5.738  19.130  0.00  0.00    +0.000 C 
ATOM     20  N   UNL     1       3.163   6.958  19.537  0.00  0.00    +0.000 NA
ATOM     21  H   UNL     1       1.119   5.546  18.730  0.00  0.00    +0.000 HD
BRANCH  20  22
ATOM     22  C   UNL     1       2.096   7.874  19.576  0.00  0.00    +0.000 A 
ATOM     23  C   UNL     1       1.413   8.026  20.792  0.00  0.00    +0.000 A 
ATOM     24  C   UNL     1       0.400   8.982  20.942  0.00  0.00    +0.000 A 
ATOM     25  C   UNL     1       0.040   9.789  19.869  0.00  0.00    +0.000 A 
ATOM     26  C   UNL     1       0.713   9.663  18.653  0.00  0.00    +0.000 A 
ATOM     27  C   UNL     1       1.750   8.729  18.524  0.00  0.00    +0.000 A 
ENDBRANCH  20  22
ENDBRANCH  16  19
ENDBRANCH   1  16
TORSDOF 5
ENDMDL
MODEL 2
REMARK VINA RESULT:      -7.3      3.185      8.189
REMARK  Name = 
REMARK  7 active torsions:
REMARK  status: ('A' for Active; 'I' for Inactive)
REMARK    1  A    between atoms: C_1  and  N_2
REMARK    2  A    between atoms: C_3  and  S_11
REMARK    3  A    between atoms: N_4  and  C_5
REMARK    4  A    between atoms: S_11  and  C_12
REMARK    5  A    between atoms: N_16  and  C_17
REMARK    6  A    between atoms: C_21  and  O_22
REMARK    7  A    between atoms: O_22  and  C_23
REMARK                            x       y       z     vdW  Elec       q    Type
REMARK                         _______ _______ _______ _____ _____    ______ ____
ROOT
ATOM      1  C   UNL     1       2.307   7.222  19.626  0.00  0.00    +0.000 C 
ATOM      2  C   UNL     1       1.812   7.540  21.027  0.00  0.00    +0.000 C 
ATOM      3  C   UNL     1       1.082   8.841  20.893  0.00  0.00    +0.000 C 
ATOM      4  O   UNL     1       0.570   9.387  21.863  0.00  0.00    +0.000 OA
ATOM      5  N   UNL     1       1.058   9.225  19.574  0.00  0.00    +0.000 N 
ATOM      6  C   UNL     1       1.751   8.341  18.771  0.00  0.00    +0.000 C 
ATOM      7  O   UNL     1       1.990   8.474  17.577  0.00  0.00    +0.000 OA
ENDROOT
BRANCH   5   8
ATOM      8  C   UNL     1       0.446  10.425  19.096  0.00  0.00    +0.000 A 
ATOM      9  C   UNL     1       1.106  11.660  19.191  0.00  0.00    +0.000 A 
ATOM     10  C   UNL     1       0.519  12.828  18.702  0.00  0.00    +0.000 A 
ATOM     11  C   UNL     1      -0.756  12.784  18.137  0.00  0.00    +0.000 A 
ATOM     12  C   UNL     1      -1.442  11.577  18.051  0.00  0.00    +0.000 A 
ATOM     13  C   UNL     1      -0.836  10.404  18.512  0.00  0.00    +0.000 A 
BRANCH  12  14
ATOM     14  O   UNL     1      -2.692  11.680  17.505  0.00  0.00    +0.000 OA
ATOM     15  C   UNL     1      -2.914  11.016  16.266  0.00  0.00    +0.000 C 
ENDBRANCH  12  14
ENDBRANCH   5   8
BRANCH   1  16
ATOM     16  S   UNL     1       1.719   5.575  19.156  0.00  0.00    +0.000 S 
BRANCH  16  19
ATOM     17  C   UNL     1       2.925   2.719  19.442  0.00  0.00    +0.000 C 
ATOM     18  N   UNL     1       3.144   3.536  18.259  0.00  0.00    +0.000 N 
ATOM     19  C   UNL     1       3.115   4.911  18.299  0.00  0.00    +0.000 C 
ATOM     20  N   UNL     1       3.932   5.780  17.807  0.00  0.00    +0.000 NA
ATOM     21  H   UNL     1       3.876   3.172  17.664  0.00  0.00    +0.000 HD
BRANCH  20  22
ATOM     22  C   UNL     1       5.093   5.466  17.077  0.00  0.00    +0.000 A 
ATOM     23  C   UNL     1       6.214   5.027  17.796  0.00  0.00    +0.000 A 
ATOM     24  C   UNL     1       7.379   4.607  17.141  0.00  0.00    +0.000 A 
ATOM     25  C   UNL     1       7.447   4.639  15.753  0.00  0.00    +0.000 A 
ATOM     26  C   UNL     1       6.339   5.061  15.016  0.00  0.00    +0.000 A 
ATOM     27  C   UNL     1       5.166   5.445  15.680  0.00  0.00    +0.000 A 
ENDBRANCH  20  22
ENDBRANCH  16  19
ENDBRANCH   1  16
TORSDOF 5
ENDMDL
MODEL 3
REMARK VINA RESULT:      -7.3      3.347      5.704
REMARK  Name = 
REMARK  7 active torsions:
REMARK  status: ('A' for Active; 'I' for Inactive)
REMARK    1  A    between atoms: C_1  and  N_2
REMARK    2  A    between atoms: C_3  and  S_11
REMARK    3  A    between atoms: N_4  and  C_5
REMARK    4  A    between atoms: S_11  and  C_12
REMARK    5  A    between atoms: N_16  and  C_17
REMARK    6  A    between atoms: C_21  and  O_22
REMARK    7  A    between atoms: O_22  and  C_23
REMARK                            x       y       z     vdW  Elec       q    Type
REMARK                         _______ _______ _______ _____ _____    ______ ____
ROOT
ATOM      1  C   UNL     1       1.309   7.952  19.187  0.00  0.00    +0.000 C 
ATOM      2  C   UNL     1       1.645   6.901  20.231  0.00  0.00    +0.000 C 
ATOM      3  C   UNL     1       2.833   6.176  19.681  0.00  0.00    +0.000 C 
ATOM      4  O   UNL     1       3.347   5.242  20.285  0.00  0.00    +0.000 OA
ATOM      5  N   UNL     1       3.226   6.759  18.500  0.00  0.00    +0.000 N 
ATOM      6  C   UNL     1       2.390   7.797  18.140  0.00  0.00    +0.000 C 
ATOM      7  O   UNL     1       2.426   8.433  17.093  0.00  0.00    +0.000 OA
ENDROOT
BRANCH   5   8
ATOM      8  C   UNL     1       4.327   6.310  17.707  0.00  0.00    +0.000 A 
ATOM      9  C   UNL     1       4.233   5.139  16.938  0.00  0.00    +0.000 A 
ATOM     10  C   UNL     1       5.299   4.713  16.144  0.00  0.00    +0.000 A 
ATOM     11  C   UNL     1       6.492   5.437  16.131  0.00  0.00    +0.000 A 
ATOM     12  C   UNL     1       6.620   6.588  16.901  0.00  0.00    +0.000 A 
ATOM     13  C   UNL     1       5.537   7.030  17.669  0.00  0.00    +0.000 A 
BRANCH  12  14
ATOM     14  O   UNL     1       7.849   7.183  16.820  0.00  0.00    +0.000 OA
ATOM     15  C   UNL     1       8.073   8.322  17.645  0.00  0.00    +0.000 C 
ENDBRANCH  12  14
ENDBRANCH   5   8
BRANCH   1  16
ATOM     16  S   UNL     1       1.281   9.580  19.981  0.00  0.00    +0.000 S 
BRANCH  16  19
ATOM     17  C   UNL     1       1.331  12.618  19.304  0.00  0.00    +0.000 C 
ATOM     18  N   UNL     1       0.639  11.650  18.468  0.00  0.00    +0.000 N 
ATOM     19  C   UNL     1       0.139  10.470  18.967  0.00  0.00    +0.000 C 
ATOM     20  N   UNL     1      -1.013   9.914  18.805  0.00  0.00    +0.000 NA
ATOM     21  H   UNL     1       0.025  12.087  17.793  0.00  0.00    +0.000 HD
BRANCH  20  22
ATOM     22  C   UNL     1      -2.057  10.444  18.026  0.00  0.00    +0.000 A 
ATOM     23  C   UNL     1      -2.183   9.984  16.707  0.00  0.00    +0.000 A 
ATOM     24  C   UNL     1      -3.249  10.391  15.894  0.00  0.00    +0.000 A 
ATOM     25  C   UNL     1      -4.197  11.282  16.383  0.00  0.00    +0.000 A 
ATOM     26  C   UNL     1      -4.099  11.745  17.696  0.00  0.00    +0.000 A 
ATOM     27  C   UNL     1      -3.049  11.303  18.513  0.00  0.00    +0.000 A 
ENDBRANCH  20  22
ENDBRANCH  16  19
ENDBRANCH   1  16
TORSDOF 5
ENDMDL
MODEL 4
REMARK VINA RESULT:      -7.3      2.908      4.873
REMARK  Name = 
REMARK  7 active torsions:
REMARK  status: ('A' for Active; 'I' for Inactive)
REMARK    1  A    between atoms: C_1  and  N_2
REMARK    2  A    between atoms: C_3  and  S_11
REMARK    3  A    between atoms: N_4  and  C_5
REMARK    4  A    between atoms: S_11  and  C_12
REMARK    5  A    between atoms: N_16  and  C_17
REMARK    6  A    between atoms: C_21  and  O_22
REMARK    7  A    between atoms: O_22  and  C_23
REMARK                            x       y       z     vdW  Elec       q    Type
REMARK                         _______ _______ _______ _____ _____    ______ ____
ROOT
ATOM      1  C   UNL     1       1.804   7.375  19.018  0.00  0.00    +0.000 C 
ATOM      2  C   UNL     1       1.869   6.284  20.073  0.00  0.00    +0.000 C 
ATOM      3  C   UNL     1       3.092   5.490  19.734  0.00  0.00    +0.000 C 
ATOM      4  O   UNL     1       3.420   4.512  20.394  0.00  0.00    +0.000 OA
ATOM      5  N   UNL     1       3.738   6.068  18.668  0.00  0.00    +0.000 N 
ATOM      6  C   UNL     1       3.053   7.166  18.189  0.00  0.00    +0.000 C 
ATOM      7  O   UNL     1       3.328   7.818  17.188  0.00  0.00    +0.000 OA
ENDROOT
BRANCH   5   8
ATOM      8  C   UNL     1       4.939   5.559  18.082  0.00  0.00    +0.000 A 
ATOM      9  C   UNL     1       6.192   5.828  18.655  0.00  0.00    +0.000 A 
ATOM     10  C   UNL     1       7.363   5.312  18.098  0.00  0.00    +0.000 A 
ATOM     11  C   UNL     1       7.302   4.542  16.936  0.00  0.00    +0.000 A 
ATOM     12  C   UNL     1       6.075   4.278  16.335  0.00  0.00    +0.000 A 
ATOM     13  C   UNL     1       4.901   4.770  16.916  0.00  0.00    +0.000 A 
BRANCH  12  14
ATOM     14  O   UNL     1       6.160   3.539  15.187  0.00  0.00    +0.000 OA
ATOM     15  C   UNL     1       6.451   4.242  13.984  0.00  0.00    +0.000 C 
ENDBRANCH  12  14
ENDBRANCH   5   8
BRANCH   1  16
ATOM     16  S   UNL     1       1.729   8.985  19.843  0.00  0.00    +0.000 S 
BRANCH  16  19
ATOM     17  C   UNL     1       2.364  11.555  18.205  0.00  0.00    +0.000 C 
ATOM     18  N   UNL     1       1.261  10.672  17.862  0.00  0.00    +0.000 N 
ATOM     19  C   UNL     1       0.627   9.889  18.798  0.00  0.00    +0.000 C 
ATOM     20  N   UNL     1      -0.630   9.706  19.023  0.00  0.00    +0.000 NA
ATOM     21  H   UNL     1       0.624  11.086  17.194  0.00  0.00    +0.000 HD
BRANCH  20  22
ATOM     22  C   UNL     1      -1.672  10.313  18.299  0.00  0.00    +0.000 A 
ATOM     23  C   UNL     1      -1.974   9.791  17.032  0.00  0.00    +0.000 A 
ATOM     24  C   UNL     1      -3.055  10.277  16.285  0.00  0.00    +0.000 A 
ATOM     25  C   UNL     1      -3.840  11.309  16.786  0.00  0.00    +0.000 A 
ATOM     26  C   UNL     1      -3.565  11.836  18.049  0.00  0.00    +0.000 A 
ATOM     27  C   UNL     1      -2.504  11.318  18.804  0.00  0.00    +0.000 A 
ENDBRANCH  20  22
ENDBRANCH  16  19
ENDBRANCH   1  16
TORSDOF 5
ENDMDL
MODEL 5
REMARK VINA RESULT:      -7.3      4.082      6.644
REMARK  Name = 
REMARK  7 active torsions:
REMARK  status: ('A' for Active; 'I' for Inactive)
REMARK    1  A    between atoms: C_1  and  N_2
REMARK    2  A    between atoms: C_3  and  S_11
REMARK    3  A    between atoms: N_4  and  C_5
REMARK    4  A    between atoms: S_11  and  C_12
REMARK    5  A    between atoms: N_16  and  C_17
REMARK    6  A    between atoms: C_21  and  O_22
REMARK    7  A    between atoms: O_22  and  C_23
REMARK                            x       y       z     vdW  Elec       q    Type
REMARK                         _______ _______ _______ _____ _____    ______ ____
ROOT
ATOM      1  C   UNL     1       0.827   9.608  19.529  0.00  0.00    +0.000 C 
ATOM      2  C   UNL     1       0.891   8.669  20.722  0.00  0.00    +0.000 C 
ATOM      3  C   UNL     1       1.744   7.525  20.269  0.00  0.00    +0.000 C 
ATOM      4  O   UNL     1       1.980   6.575  21.005  0.00  0.00    +0.000 OA
ATOM      5  N   UNL     1       2.212   7.771  19.001  0.00  0.00    +0.000 N 
ATOM      6  C   UNL     1       1.722   8.959  18.495  0.00  0.00    +0.000 C 
ATOM      7  O   UNL     1       1.879   9.388  17.358  0.00  0.00    +0.000 OA
ENDROOT
BRANCH   5   8
ATOM      8  C   UNL     1       3.051   6.878  18.265  0.00  0.00    +0.000 A 
ATOM      9  C   UNL     1       2.658   5.553  18.020  0.00  0.00    +0.000 A 
ATOM     10  C   UNL     1       3.467   4.688  17.282  0.00  0.00    +0.000 A 
ATOM     11  C   UNL     1       4.701   5.126  16.801  0.00  0.00    +0.000 A 
ATOM     12  C   UNL     1       5.126   6.428  17.049  0.00  0.00    +0.000 A 
ATOM     13  C   UNL     1       4.297   7.301  17.761  0.00  0.00    +0.000 A 
BRANCH  12  14
ATOM     14  O   UNL     1       6.366   6.717  16.549  0.00  0.00    +0.000 OA
ATOM     15  C   UNL     1       7.307   7.295  17.448  0.00  0.00    +0.000 C 
ENDBRANCH  12  14
ENDBRANCH   5   8
BRANCH   1  16
ATOM     16  S   UNL     1       1.374  11.254  20.047  0.00  0.00    +0.000 S 
BRANCH  16  19
ATOM     17  C   UNL     1      -0.837  12.913  18.615  0.00  0.00    +0.000 C 
ATOM     18  N   UNL     1      -1.089  12.194  19.854  0.00  0.00    +0.000 N 
ATOM     19  C   UNL     1      -0.094  11.926  20.765  0.00  0.00    +0.000 C 
ATOM     20  N   UNL     1      -0.070  12.078  22.046  0.00  0.00    +0.000 NA
ATOM     21  H   UNL     1      -1.964  12.461  20.287  0.00  0.00    +0.000 HD
BRANCH  20  22
ATOM     22  C   UNL     1      -1.135  12.579  22.815  0.00  0.00    +0.000 A 
ATOM     23  C   UNL     1      -1.046  13.905  23.264  0.00  0.00    +0.000 A 
ATOM     24  C   UNL     1      -2.103  14.511  23.956  0.00  0.00    +0.000 A 
ATOM     25  C   UNL     1      -3.260  13.792  24.228  0.00  0.00    +0.000 A 
ATOM     26  C   UNL     1      -3.376  12.474  23.781  0.00  0.00    +0.000 A 
ATOM     27  C   UNL     1      -2.328  11.889  23.058  0.00  0.00    +0.000 A 
ENDBRANCH  20  22
ENDBRANCH  16  19
ENDBRANCH   1  16
TORSDOF 5
ENDMDL
MODEL 6
REMARK VINA RESULT:      -7.2      2.929      5.327
REMARK  Name = 
REMARK  7 active torsions:
REMARK  status: ('A' for Active; 'I' for Inactive)
REMARK    1  A    between atoms: C_1  and  N_2
REMARK    2  A    between atoms: C_3  and  S_11
REMARK    3  A    between atoms: N_4  and  C_5
REMARK    4  A    between atoms: S_11  and  C_12
REMARK    5  A    between atoms: N_16  and  C_17
REMARK    6  A    between atoms: C_21  and  O_22
REMARK    7  A    between atoms: O_22  and  C_23
REMARK                            x       y       z     vdW  Elec       q    Type
REMARK                         _______ _______ _______ _____ _____    ______ ____
ROOT
ATOM      1  C   UNL     1       1.501   7.265  19.923  0.00  0.00    +0.000 C 
ATOM      2  C   UNL     1       1.785   5.962  20.652  0.00  0.00    +0.000 C 
ATOM      3  C   UNL     1       2.868   5.302  19.856  0.00  0.00    +0.000 C 
ATOM      4  O   UNL     1       3.318   4.208  20.176  0.00  0.00    +0.000 OA
ATOM      5  N   UNL     1       3.256   6.128  18.829  0.00  0.00    +0.000 N 
ATOM      6  C   UNL     1       2.509   7.287  18.794  0.00  0.00    +0.000 C 
ATOM      7  O   UNL     1       2.554   8.159  17.934  0.00  0.00    +0.000 OA
ENDROOT
BRANCH   5   8
ATOM      8  C   UNL     1       4.268   5.802  17.873  0.00  0.00    +0.000 A 
ATOM      9  C   UNL     1       4.108   4.720  16.992  0.00  0.00    +0.000 A 
ATOM     10  C   UNL     1       5.084   4.416  16.042  0.00  0.00    +0.000 A 
ATOM     11  C   UNL     1       6.254   5.173  15.978  0.00  0.00    +0.000 A 
ATOM     12  C   UNL     1       6.449   6.237  16.853  0.00  0.00    +0.000 A 
ATOM     13  C   UNL     1       5.453   6.558  17.781  0.00  0.00    +0.000 A 
BRANCH  12  14
ATOM     14  O   UNL     1       7.650   6.874  16.703  0.00  0.00    +0.000 OA
ATOM     15  C   UNL     1       7.887   8.011  17.527  0.00  0.00    +0.000 C 
ENDBRANCH  12  14
ENDBRANCH   5   8
BRANCH   1  16
ATOM     16  S   UNL     1       1.671   8.639  21.090  0.00  0.00    +0.000 S 
BRANCH  16  19
ATOM     17  C   UNL     1      -0.541   9.596  23.060  0.00  0.00    +0.000 C 
ATOM     18  N   UNL     1      -0.280  10.275  21.801  0.00  0.00    +0.000 N 
ATOM     19  C   UNL     1       0.255   9.627  20.712  0.00  0.00    +0.000 C 
ATOM     20  N   UNL     1      -0.104   9.636  19.473  0.00  0.00    +0.000 NA
ATOM     21  H   UNL     1      -1.009  10.931  21.553  0.00  0.00    +0.000 HD
BRANCH  20  22
ATOM     22  C   UNL     1      -1.190  10.366  18.958  0.00  0.00    +0.000 A 
ATOM     23  C   UNL     1      -1.863   9.835  17.848  0.00  0.00    +0.000 A 
ATOM     24  C   UNL     1      -3.010  10.450  17.330  0.00  0.00    +0.000 A 
ATOM     25  C   UNL     1      -3.490  11.621  17.904  0.00  0.00    +0.000 A 
ATOM     26  C   UNL     1      -2.844  12.162  19.016  0.00  0.00    +0.000 A 
ATOM     27  C   UNL     1      -1.718  11.518  19.549  0.00  0.00    +0.000 A 
ENDBRANCH  20  22
ENDBRANCH  16  19
ENDBRANCH   1  16
TORSDOF 5
ENDMDL
MODEL 7
REMARK VINA RESULT:      -7.2      2.599      4.659
REMARK  Name = 
REMARK  7 active torsions:
REMARK  status: ('A' for Active; 'I' for Inactive)
REMARK    1  A    between atoms: C_1  and  N_2
REMARK    2  A    between atoms: C_3  and  S_11
REMARK    3  A    between atoms: N_4  and  C_5
REMARK    4  A    between atoms: S_11  and  C_12
REMARK    5  A    between atoms: N_16  and  C_17
REMARK    6  A    between atoms: C_21  and  O_22
REMARK    7  A    between atoms: O_22  and  C_23
REMARK                            x       y       z     vdW  Elec       q    Type
REMARK                         _______ _______ _______ _____ _____    ______ ____
ROOT
ATOM      1  C   UNL     1       1.773   6.823  19.963  0.00  0.00    +0.000 C 
ATOM      2  C   UNL     1       1.833   5.456  20.624  0.00  0.00    +0.000 C 
ATOM      3  C   UNL     1       2.975   4.754  19.959  0.00  0.00    +0.000 C 
ATOM      4  O   UNL     1       3.281   3.607  20.259  0.00  0.00    +0.000 OA
ATOM      5  N   UNL     1       3.587   5.606  19.071  0.00  0.00    +0.000 N 
ATOM      6  C   UNL     1       2.948   6.827  19.009  0.00  0.00    +0.000 C 
ATOM      7  O   UNL     1       3.199   7.745  18.236  0.00  0.00    +0.000 OA
ENDROOT
BRANCH   5   8
ATOM      8  C   UNL     1       4.711   5.252  18.261  0.00  0.00    +0.000 A 
ATOM      9  C   UNL     1       6.021   5.363  18.753  0.00  0.00    +0.000 A 
ATOM     10  C   UNL     1       7.117   4.996  17.972  0.00  0.00    +0.000 A 
ATOM     11  C   UNL     1       6.922   4.539  16.668  0.00  0.00    +0.000 A 
ATOM     12  C   UNL     1       5.636   4.440  16.146  0.00  0.00    +0.000 A 
ATOM     13  C   UNL     1       4.539   4.778  16.945  0.00  0.00    +0.000 A 
BRANCH  12  14
ATOM     14  O   UNL     1       5.589   4.009  14.849  0.00  0.00    +0.000 OA
ATOM     15  C   UNL     1       6.676   4.374  14.005  0.00  0.00    +0.000 C 
ENDBRANCH  12  14
ENDBRANCH   5   8
BRANCH   1  16
ATOM     16  S   UNL     1       1.859   8.099  21.244  0.00  0.00    +0.000 S 
BRANCH  16  19
ATOM     17  C   UNL     1      -0.543   9.285  22.830  0.00  0.00    +0.000 C 
ATOM     18  N   UNL     1       0.035   9.963  21.681  0.00  0.00    +0.000 N 
ATOM     19  C   UNL     1       0.677   9.283  20.672  0.00  0.00    +0.000 C 
ATOM     20  N   UNL     1       0.561   9.380  19.391  0.00  0.00    +0.000 NA
ATOM     21  H   UNL     1      -0.545  10.719  21.342  0.00  0.00    +0.000 HD
BRANCH  20  22
ATOM     22  C   UNL     1      -0.306  10.268  18.729  0.00  0.00    +0.000 A 
ATOM     23  C   UNL     1      -1.456   9.730  18.132  0.00  0.00    +0.000 A 
ATOM     24  C   UNL     1      -2.418  10.555  17.534  0.00  0.00    +0.000 A 
ATOM     25  C   UNL     1      -2.233  11.932  17.506  0.00  0.00    +0.000 A 
ATOM     26  C   UNL     1      -1.102  12.491  18.104  0.00  0.00    +0.000 A 
ATOM     27  C   UNL     1      -0.164  11.660  18.732  0.00  0.00    +0.000 A 
ENDBRANCH  20  22
ENDBRANCH  16  19
ENDBRANCH   1  16
TORSDOF 5
ENDMDL
MODEL 8
REMARK VINA RESULT:      -7.2      3.227      8.283
REMARK  Name = 
REMARK  7 active torsions:
REMARK  status: ('A' for Active; 'I' for Inactive)
REMARK    1  A    between atoms: C_1  and  N_2
REMARK    2  A    between atoms: C_3  and  S_11
REMARK    3  A    between atoms: N_4  and  C_5
REMARK    4  A    between atoms: S_11  and  C_12
REMARK    5  A    between atoms: N_16  and  C_17
REMARK    6  A    between atoms: C_21  and  O_22
REMARK    7  A    between atoms: O_22  and  C_23
REMARK                            x       y       z     vdW  Elec       q    Type
REMARK                         _______ _______ _______ _____ _____    ______ ____
ROOT
ATOM      1  C   UNL     1       2.254   7.264  19.831  0.00  0.00    +0.000 C 
ATOM      2  C   UNL     1       1.776   7.650  21.221  0.00  0.00    +0.000 C 
ATOM      3  C   UNL     1       1.063   8.954  21.036  0.00  0.00    +0.000 C 
ATOM      4  O   UNL     1       0.567   9.549  21.985  0.00  0.00    +0.000 OA
ATOM      5  N   UNL     1       1.032   9.279  19.702  0.00  0.00    +0.000 N 
ATOM      6  C   UNL     1       1.706   8.352  18.933  0.00  0.00    +0.000 C 
ATOM      7  O   UNL     1       1.936   8.429  17.732  0.00  0.00    +0.000 OA
ENDROOT
BRANCH   5   8
ATOM      8  C   UNL     1       0.432  10.466  19.176  0.00  0.00    +0.000 A 
ATOM      9  C   UNL     1       1.124  11.686  19.175  0.00  0.00    +0.000 A 
ATOM     10  C   UNL     1       0.548  12.840  18.640  0.00  0.00    +0.000 A 
ATOM     11  C   UNL     1      -0.748  12.797  18.125  0.00  0.00    +0.000 A 
ATOM     12  C   UNL     1      -1.466  11.605  18.134  0.00  0.00    +0.000 A 
ATOM     13  C   UNL     1      -0.871  10.445  18.641  0.00  0.00    +0.000 A 
BRANCH  12  14
ATOM     14  O   UNL     1      -2.732  11.710  17.628  0.00  0.00    +0.000 OA
ATOM     15  C   UNL     1      -3.280  10.551  17.008  0.00  0.00    +0.000 C 
ENDBRANCH  12  14
ENDBRANCH   5   8
BRANCH   1  16
ATOM     16  S   UNL     1       1.640   5.606  19.439  0.00  0.00    +0.000 S 
BRANCH  16  19
ATOM     17  C   UNL     1       2.983   2.982  20.440  0.00  0.00    +0.000 C 
ATOM     18  N   UNL     1       3.178   3.484  19.090  0.00  0.00    +0.000 N 
ATOM     19  C   UNL     1       3.080   4.821  18.781  0.00  0.00    +0.000 C 
ATOM     20  N   UNL     1       3.859   5.579  18.086  0.00  0.00    +0.000 NA
ATOM     21  H   UNL     1       3.936   3.020  18.607  0.00  0.00    +0.000 HD
BRANCH  20  22
ATOM     22  C   UNL     1       5.045   5.152  17.461  0.00  0.00    +0.000 A 
ATOM     23  C   UNL     1       5.001   4.907  16.080  0.00  0.00    +0.000 A 
ATOM     24  C   UNL     1       6.158   4.569  15.365  0.00  0.00    +0.000 A 
ATOM     25  C   UNL     1       7.375   4.451  16.025  0.00  0.00    +0.000 A 
ATOM     26  C   UNL     1       7.445   4.700  17.397  0.00  0.00    +0.000 A 
ATOM     27  C   UNL     1       6.289   5.074  18.097  0.00  0.00    +0.000 A 
ENDBRANCH  20  22
ENDBRANCH  16  19
ENDBRANCH   1  16
TORSDOF 5
ENDMDL
MODEL 9
REMARK VINA RESULT:      -7.2      4.173      6.606
REMARK  Name = 
REMARK  7 active torsions:
REMARK  status: ('A' for Active; 'I' for Inactive)
REMARK    1  A    between atoms: C_1  and  N_2
REMARK    2  A    between atoms: C_3  and  S_11
REMARK    3  A    between atoms: N_4  and  C_5
REMARK    4  A    between atoms: S_11  and  C_12
REMARK    5  A    between atoms: N_16  and  C_17
REMARK    6  A    between atoms: C_21  and  O_22
REMARK    7  A    between atoms: O_22  and  C_23
REMARK                            x       y       z     vdW  Elec       q    Type
REMARK                         _______ _______ _______ _____ _____    ______ ____
ROOT
ATOM      1  C   UNL     1       0.777   9.675  19.606  0.00  0.00    +0.000 C 
ATOM      2  C   UNL     1       0.835   8.752  20.811  0.00  0.00    +0.000 C 
ATOM      3  C   UNL     1       1.622   7.565  20.352  0.00  0.00    +0.000 C 
ATOM      4  O   UNL     1       1.837   6.615  21.095  0.00  0.00    +0.000 OA
ATOM      5  N   UNL     1       2.061   7.770  19.066  0.00  0.00    +0.000 N 
ATOM      6  C   UNL     1       1.610   8.972  18.557  0.00  0.00    +0.000 C 
ATOM      7  O   UNL     1       1.752   9.377  17.409  0.00  0.00    +0.000 OA
ENDROOT
BRANCH   5   8
ATOM      8  C   UNL     1       2.837   6.829  18.320  0.00  0.00    +0.000 A 
ATOM      9  C   UNL     1       4.048   7.207  17.719  0.00  0.00    +0.000 A 
ATOM     10  C   UNL     1       4.818   6.282  17.011  0.00  0.00    +0.000 A 
ATOM     11  C   UNL     1       4.372   4.969  16.866  0.00  0.00    +0.000 A 
ATOM     12  C   UNL     1       3.165   4.573  17.433  0.00  0.00    +0.000 A 
ATOM     13  C   UNL     1       2.413   5.494  18.170  0.00  0.00    +0.000 A 
BRANCH  12  14
ATOM     14  O   UNL     1       2.832   3.269  17.189  0.00  0.00    +0.000 OA
ATOM     15  C   UNL     1       1.971   2.634  18.129  0.00  0.00    +0.000 C 
ENDBRANCH  12  14
ENDBRANCH   5   8
BRANCH   1  16
ATOM     16  S   UNL     1       1.414  11.302  20.082  0.00  0.00    +0.000 S 
BRANCH  16  19
ATOM     17  C   UNL     1      -0.401  13.381  18.639  0.00  0.00    +0.000 C 
ATOM     18  N   UNL     1      -0.876  12.584  19.758  0.00  0.00    +0.000 N 
ATOM     19  C   UNL     1      -0.029  12.094  20.726  0.00  0.00    +0.000 C 
ATOM     20  N   UNL     1      -0.128  12.113  22.012  0.00  0.00    +0.000 NA
ATOM     21  H   UNL     1      -1.753  12.922  20.133  0.00  0.00    +0.000 HD
BRANCH  20  22
ATOM     22  C   UNL     1      -1.201  12.676  22.726  0.00  0.00    +0.000 A 
ATOM     23  C   UNL     1      -2.289  11.844  23.030  0.00  0.00    +0.000 A 
ATOM     24  C   UNL     1      -3.355  12.299  23.817  0.00  0.00    +0.000 A 
ATOM     25  C   UNL     1      -3.359  13.604  24.295  0.00  0.00    +0.000 A 
ATOM     26  C   UNL     1      -2.282  14.447  24.015  0.00  0.00    +0.000 A 
ATOM     27  C   UNL     1      -1.203  13.970  23.258  0.00  0.00    +0.000 A 
ENDBRANCH  20  22
ENDBRANCH  16  19
ENDBRANCH   1  16
TORSDOF 5
ENDMDL
