MODEL 1
REMARK VINA RESULT:      -6.8      0.000      0.000
REMARK  Name = 
REMARK  7 active torsions:
REMARK  status: ('A' for Active; 'I' for Inactive)
REMARK    1  A    between atoms: C_1  and  C_2
REMARK    2  A    between atoms: C_4  and  C_5
REMARK    3  A    between atoms: C_8  and  S_9
REMARK    4  A    between atoms: S_9  and  C_10
REMARK    5  A    between atoms: C_10  and  C_11
REMARK    6  A    between atoms: C_11  and  C_12
REMARK    7  A    between atoms: C_12  and  O_14
REMARK                            x       y       z     vdW  Elec       q    Type
REMARK                         _______ _______ _______ _____ _____    ______ ____
ROOT
ATOM      1  C   UNL     1       3.344   5.133  18.104  0.00  0.00    +0.000 A 
ATOM      2  N   UNL     1       3.220   3.834  18.289  0.00  0.00    +0.000 NA
ATOM      3  N   UNL     1       4.097   3.228  17.414  0.00  0.00    +0.000 NA
ATOM      4  C   UNL     1       4.719   4.196  16.773  0.00  0.00    +0.000 A 
ATOM      5  O   UNL     1       4.309   5.438  17.183  0.00  0.00    +0.000 OA
ENDROOT
BRANCH   1   9
ATOM      6  C   UNL     1       1.885   9.876  17.907  0.00  0.00    +0.000 C 
ATOM      7  C   UNL     1       1.955   8.589  18.681  0.00  0.00    +0.000 A 
ATOM      8  C   UNL     1       2.557   7.458  18.098  0.00  0.00    +0.000 A 
ATOM      9  C   UNL     1       2.656   6.228  18.780  0.00  0.00    +0.000 A 
ATOM     10  C   UNL     1       2.135   6.152  20.081  0.00  0.00    +0.000 A 
ATOM     11 CL   UNL     1       2.242   4.730  21.063  0.00  0.00    +0.000 Cl
ATOM     12  C   UNL     1       1.536   7.270  20.674  0.00  0.00    +0.000 A 
ATOM     13  C   UNL     1       1.448   8.479  19.981  0.00  0.00    +0.000 A 
ATOM     14 CL   UNL     1       0.720   9.822  20.786  0.00  0.00    +0.000 Cl
ENDBRANCH   1   9
BRANCH   4  15
ATOM     15  S   UNL     1       5.944   3.963  15.564  0.00  0.00    +0.000 S 
BRANCH  15  16
ATOM     16  C   UNL     1       7.281   5.007  16.231  0.00  0.00    +0.000 C 
BRANCH  16  17
ATOM     17  C   UNL     1       7.652   4.518  17.626  0.00  0.00    +0.000 C 
BRANCH  17  18
ATOM     18  C   UNL     1       7.400   5.588  18.659  0.00  0.00    +0.000 C 
ATOM     19  O   UNL     1       7.523   5.447  19.863  0.00  0.00    +0.000 OA
BRANCH  18  20
ATOM     20  O   UNL     1       7.016   6.761  18.102  0.00  0.00    +0.000 OA
ATOM     21  H   UNL     1       6.209   6.701  17.554  0.00  0.00    +0.000 HD
ENDBRANCH  18  20
ENDBRANCH  17  18
ENDBRANCH  16  17
ENDBRANCH  15  16
ENDBRANCH   4  15
TORSDOF 6
ENDMDL
MODEL 2
REMARK VINA RESULT:      -6.7      3.853      6.563
REMARK  Name = 
REMARK  7 active torsions:
REMARK  status: ('A' for Active; 'I' for Inactive)
REMARK    1  A    between atoms: C_1  and  C_2
REMARK    2  A    between atoms: C_4  and  C_5
REMARK    3  A    between atoms: C_8  and  S_9
REMARK    4  A    between atoms: S_9  and  C_10
REMARK    5  A    between atoms: C_10  and  C_11
REMARK    6  A    between atoms: C_11  and  C_12
REMARK    7  A    between atoms: C_12  and  O_14
REMARK                            x       y       z     vdW  Elec       q    Type
REMARK                         _______ _______ _______ _____ _____    ______ ____
ROOT
ATOM      1  C   UNL     1       5.093   4.431  17.922  0.00  0.00    +0.000 A 
ATOM      2  N   UNL     1       5.313   3.470  18.796  0.00  0.00    +0.000 NA
ATOM      3  N   UNL     1       4.373   3.625  19.793  0.00  0.00    +0.000 NA
ATOM      4  C   UNL     1       3.623   4.651  19.448  0.00  0.00    +0.000 A 
ATOM      5  O   UNL     1       4.007   5.197  18.251  0.00  0.00    +0.000 OA
ENDROOT
BRANCH   1   9
ATOM      6  C   UNL     1       5.472   3.489  13.060  0.00  0.00    +0.000 C 
ATOM      7  C   UNL     1       5.987   4.226  14.266  0.00  0.00    +0.000 A 
ATOM      8  C   UNL     1       5.350   4.056  15.509  0.00  0.00    +0.000 A 
ATOM      9  C   UNL     1       5.793   4.717  16.674  0.00  0.00    +0.000 A 
ATOM     10  C   UNL     1       6.908   5.563  16.567  0.00  0.00    +0.000 A 
ATOM     11 CL   UNL     1       7.604   6.387  17.921  0.00  0.00    +0.000 Cl
ATOM     12  C   UNL     1       7.552   5.738  15.336  0.00  0.00    +0.000 A 
ATOM     13  C   UNL     1       7.098   5.074  14.196  0.00  0.00    +0.000 A 
ATOM     14 CL   UNL     1       7.958   5.319  12.719  0.00  0.00    +0.000 Cl
ENDBRANCH   1   9
BRANCH   4  15
ATOM     15  S   UNL     1       2.276   5.254  20.365  0.00  0.00    +0.000 S 
BRANCH  15  16
ATOM     16  C   UNL     1       1.584   3.697  21.012  0.00  0.00    +0.000 C 
BRANCH  16  17
ATOM     17  C   UNL     1       0.549   3.160  20.030  0.00  0.00    +0.000 C 
BRANCH  17  18
ATOM     18  C   UNL     1       1.204   2.698  18.753  0.00  0.00    +0.000 C 
ATOM     19  O   UNL     1       1.099   3.248  17.669  0.00  0.00    +0.000 OA
BRANCH  18  20
ATOM     20  O   UNL     1       1.948   1.581  18.930  0.00  0.00    +0.000 OA
ATOM     21  H   UNL     1       2.912   1.740  18.955  0.00  0.00    +0.000 HD
ENDBRANCH  18  20
ENDBRANCH  17  18
ENDBRANCH  16  17
ENDBRANCH  15  16
ENDBRANCH   4  15
TORSDOF 6
ENDMDL
MODEL 3
REMARK VINA RESULT:      -6.7      4.153      5.518
REMARK  Name = 
REMARK  7 active torsions:
REMARK  status: ('A' for Active; 'I' for Inactive)
REMARK    1  A    between atoms: C_1  and  C_2
REMARK    2  A    between atoms: C_4  and  C_5
REMARK    3  A    between atoms: C_8  and  S_9
REMARK    4  A    between atoms: S_9  and  C_10
REMARK    5  A    between atoms: C_10  and  C_11
REMARK    6  A    between atoms: C_11  and  C_12
REMARK    7  A    between atoms: C_12  and  O_14
REMARK                            x       y       z     vdW  Elec       q    Type
REMARK                         _______ _______ _______ _____ _____    ______ ____
ROOT
ATOM      1  C   UNL     1       6.125   5.040  16.051  0.00  0.00    +0.000 A 
ATOM      2  N   UNL     1       7.278   5.661  15.903  0.00  0.00    +0.000 NA
ATOM      3  N   UNL     1       7.689   5.418  14.609  0.00  0.00    +0.000 NA
ATOM      4  C   UNL     1       6.749   4.690  14.045  0.00  0.00    +0.000 A 
ATOM      5  O   UNL     1       5.707   4.434  14.898  0.00  0.00    +0.000 OA
ENDROOT
BRANCH   1   9
ATOM      6  C   UNL     1       1.556   4.176  17.797  0.00  0.00    +0.000 C 
ATOM      7  C   UNL     1       2.980   4.573  18.075  0.00  0.00    +0.000 A 
ATOM      8  C   UNL     1       3.910   4.612  17.020  0.00  0.00    +0.000 A 
ATOM      9  C   UNL     1       5.256   4.983  17.222  0.00  0.00    +0.000 A 
ATOM     10  C   UNL     1       5.657   5.322  18.524  0.00  0.00    +0.000 A 
ATOM     11 CL   UNL     1       7.257   5.859  18.912  0.00  0.00    +0.000 Cl
ATOM     12  C   UNL     1       4.741   5.290  19.582  0.00  0.00    +0.000 A 
ATOM     13  C   UNL     1       3.413   4.920  19.360  0.00  0.00    +0.000 A 
ATOM     14 CL   UNL     1       2.335   4.928  20.708  0.00  0.00    +0.000 Cl
ENDBRANCH   1   9
BRANCH   4  15
ATOM     15  S   UNL     1       6.777   4.125  12.402  0.00  0.00    +0.000 S 
BRANCH  15  16
ATOM     16  C   UNL     1       5.294   3.067  12.383  0.00  0.00    +0.000 C 
BRANCH  16  17
ATOM     17  C   UNL     1       5.311   2.199  11.130  0.00  0.00    +0.000 C 
BRANCH  17  18
ATOM     18  C   UNL     1       6.484   1.251  11.145  0.00  0.00    +0.000 C 
ATOM     19  O   UNL     1       7.636   1.552  10.886  0.00  0.00    +0.000 OA
BRANCH  18  20
ATOM     20  O   UNL     1       6.124  -0.008  11.490  0.00  0.00    +0.000 OA
ATOM     21  H   UNL     1       5.170  -0.118  11.674  0.00  0.00    +0.000 HD
ENDBRANCH  18  20
ENDBRANCH  17  18
ENDBRANCH  16  17
ENDBRANCH  15  16
ENDBRANCH   4  15
TORSDOF 6
ENDMDL
MODEL 4
REMARK VINA RESULT:      -6.7      2.330      3.383
REMARK  Name = 
REMARK  7 active torsions:
REMARK  status: ('A' for Active; 'I' for Inactive)
REMARK    1  A    between atoms: C_1  and  C_2
REMARK    2  A    between atoms: C_4  and  C_5
REMARK    3  A    between atoms: C_8  and  S_9
REMARK    4  A    between atoms: S_9  and  C_10
REMARK    5  A    between atoms: C_10  and  C_11
REMARK    6  A    between atoms: C_11  and  C_12
REMARK    7  A    between atoms: C_12  and  O_14
REMARK                            x       y       z     vdW  Elec       q    Type
REMARK                         _______ _______ _______ _____ _____    ______ ____
ROOT
ATOM      1  C   UNL     1       2.174   6.675  20.138  0.00  0.00    +0.000 A 
ATOM      2  N   UNL     1       1.760   5.517  20.612  0.00  0.00    +0.000 NA
ATOM      3  N   UNL     1       2.692   4.578  20.220  0.00  0.00    +0.000 NA
ATOM      4  C   UNL     1       3.627   5.228  19.559  0.00  0.00    +0.000 A 
ATOM      5  O   UNL     1       3.376   6.574  19.492  0.00  0.00    +0.000 OA
ENDROOT
BRANCH   1   9
ATOM      6  C   UNL     1      -0.309   9.823  23.069  0.00  0.00    +0.000 C 
ATOM      7  C   UNL     1       0.315   9.541  21.730  0.00  0.00    +0.000 A 
ATOM      8  C   UNL     1       0.969   8.315  21.512  0.00  0.00    +0.000 A 
ATOM      9  C   UNL     1       1.565   7.994  20.274  0.00  0.00    +0.000 A 
ATOM     10  C   UNL     1       1.489   8.942  19.242  0.00  0.00    +0.000 A 
ATOM     11 CL   UNL     1       2.116   8.663  17.652  0.00  0.00    +0.000 Cl
ATOM     12  C   UNL     1       0.838  10.165  19.445  0.00  0.00    +0.000 A 
ATOM     13  C   UNL     1       0.254  10.462  20.678  0.00  0.00    +0.000 A 
ATOM     14 CL   UNL     1      -0.553  11.978  20.847  0.00  0.00    +0.000 Cl
ENDBRANCH   1   9
BRANCH   4  15
ATOM     15  S   UNL     1       5.043   4.501  18.864  0.00  0.00    +0.000 S 
BRANCH  15  16
ATOM     16  C   UNL     1       4.783   4.875  17.100  0.00  0.00    +0.000 C 
BRANCH  16  17
ATOM     17  C   UNL     1       5.801   4.104  16.266  0.00  0.00    +0.000 C 
BRANCH  17  18
ATOM     18  C   UNL     1       7.151   4.776  16.304  0.00  0.00    +0.000 C 
ATOM     19  O   UNL     1       7.445   5.798  15.707  0.00  0.00    +0.000 OA
BRANCH  18  20
ATOM     20  O   UNL     1       8.032   4.118  17.092  0.00  0.00    +0.000 OA
ATOM     21  H   UNL     1       8.936   4.489  17.082  0.00  0.00    +0.000 HD
ENDBRANCH  18  20
ENDBRANCH  17  18
ENDBRANCH  16  17
ENDBRANCH  15  16
ENDBRANCH   4  15
TORSDOF 6
ENDMDL
MODEL 5
REMARK VINA RESULT:      -6.6      3.598      5.181
REMARK  Name = 
REMARK  7 active torsions:
REMARK  status: ('A' for Active; 'I' for Inactive)
REMARK    1  A    between atoms: C_1  and  C_2
REMARK    2  A    between atoms: C_4  and  C_5
REMARK    3  A    between atoms: C_8  and  S_9
REMARK    4  A    between atoms: S_9  and  C_10
REMARK    5  A    between atoms: C_10  and  C_11
REMARK    6  A    between atoms: C_11  and  C_12
REMARK    7  A    between atoms: C_12  and  O_14
REMARK                            x       y       z     vdW  Elec       q    Type
REMARK                         _______ _______ _______ _____ _____    ______ ____
ROOT
ATOM      1  C   UNL     1       5.682   5.545  17.353  0.00  0.00    +0.000 A 
ATOM      2  N   UNL     1       6.717   6.333  17.567  0.00  0.00    +0.000 NA
ATOM      3  N   UNL     1       7.492   6.278  16.428  0.00  0.00    +0.000 NA
ATOM      4  C   UNL     1       6.866   5.485  15.583  0.00  0.00    +0.000 A 
ATOM      5  O   UNL     1       5.690   5.003  16.097  0.00  0.00    +0.000 OA
ENDROOT
BRANCH   1   9
ATOM      6  C   UNL     1       3.554   2.287  20.440  0.00  0.00    +0.000 C 
ATOM      7  C   UNL     1       3.495   3.619  19.744  0.00  0.00    +0.000 A 
ATOM      8  C   UNL     1       4.558   4.017  18.912  0.00  0.00    +0.000 A 
ATOM      9  C   UNL     1       4.553   5.252  18.230  0.00  0.00    +0.000 A 
ATOM     10  C   UNL     1       3.443   6.093  18.399  0.00  0.00    +0.000 A 
ATOM     11 CL   UNL     1       3.267   7.607  17.577  0.00  0.00    +0.000 Cl
ATOM     12  C   UNL     1       2.377   5.708  19.222  0.00  0.00    +0.000 A 
ATOM     13  C   UNL     1       2.402   4.481  19.887  0.00  0.00    +0.000 A 
ATOM     14 CL   UNL     1       1.041   4.063  20.864  0.00  0.00    +0.000 Cl
ENDBRANCH   1   9
BRANCH   4  15
ATOM     15  S   UNL     1       7.423   5.094  13.985  0.00  0.00    +0.000 S 
BRANCH  15  16
ATOM     16  C   UNL     1       6.204   3.827  13.503  0.00  0.00    +0.000 C 
BRANCH  16  17
ATOM     17  C   UNL     1       6.521   3.334  12.096  0.00  0.00    +0.000 C 
BRANCH  17  18
ATOM     18  C   UNL     1       5.432   2.425  11.584  0.00  0.00    +0.000 C 
ATOM     19  O   UNL     1       4.302   2.776  11.290  0.00  0.00    +0.000 OA
BRANCH  18  20
ATOM     20  O   UNL     1       5.843   1.140  11.472  0.00  0.00    +0.000 OA
ATOM     21  H   UNL     1       6.675   0.942  11.945  0.00  0.00    +0.000 HD
ENDBRANCH  18  20
ENDBRANCH  17  18
ENDBRANCH  16  17
ENDBRANCH  15  16
ENDBRANCH   4  15
TORSDOF 6
ENDMDL
MODEL 6
REMARK VINA RESULT:      -6.6      3.680      6.318
REMARK  Name = 
REMARK  7 active torsions:
REMARK  status: ('A' for Active; 'I' for Inactive)
REMARK    1  A    between atoms: C_1  and  C_2
REMARK    2  A    between atoms: C_4  and  C_5
REMARK    3  A    between atoms: C_8  and  S_9
REMARK    4  A    between atoms: S_9  and  C_10
REMARK    5  A    between atoms: C_10  and  C_11
REMARK    6  A    between atoms: C_11  and  C_12
REMARK    7  A    between atoms: C_12  and  O_14
REMARK                            x       y       z     vdW  Elec       q    Type
REMARK                         _______ _______ _______ _____ _____    ______ ____
ROOT
ATOM      1  C   UNL     1       5.202   3.832  17.764  0.00  0.00    +0.000 A 
ATOM      2  N   UNL     1       5.677   3.749  18.991  0.00  0.00    +0.000 NA
ATOM      3  N   UNL     1       4.658   3.243  19.771  0.00  0.00    +0.000 NA
ATOM      4  C   UNL     1       3.640   3.023  18.965  0.00  0.00    +0.000 A 
ATOM      5  O   UNL     1       3.926   3.350  17.665  0.00  0.00    +0.000 OA
ENDROOT
BRANCH   1   9
ATOM      6  C   UNL     1       5.610   3.407  12.833  0.00  0.00    +0.000 C 
ATOM      7  C   UNL     1       6.079   4.057  14.105  0.00  0.00    +0.000 A 
ATOM      8  C   UNL     1       5.466   3.718  15.326  0.00  0.00    +0.000 A 
ATOM      9  C   UNL     1       5.870   4.291  16.550  0.00  0.00    +0.000 A 
ATOM     10  C   UNL     1       6.917   5.224  16.527  0.00  0.00    +0.000 A 
ATOM     11 CL   UNL     1       7.562   5.960  17.956  0.00  0.00    +0.000 Cl
ATOM     12  C   UNL     1       7.537   5.568  15.319  0.00  0.00    +0.000 A 
ATOM     13  C   UNL     1       7.123   4.988  14.119  0.00  0.00    +0.000 A 
ATOM     14 CL   UNL     1       7.951   5.442  12.673  0.00  0.00    +0.000 Cl
ENDBRANCH   1   9
BRANCH   4  15
ATOM     15  S   UNL     1       2.106   2.369  19.453  0.00  0.00    +0.000 S 
BRANCH  15  16
ATOM     16  C   UNL     1       1.119   3.894  19.596  0.00  0.00    +0.000 C 
BRANCH  16  17
ATOM     17  C   UNL     1       1.691   4.761  20.712  0.00  0.00    +0.000 C 
BRANCH  17  18
ATOM     18  C   UNL     1       2.100   6.115  20.188  0.00  0.00    +0.000 C 
ATOM     19  O   UNL     1       2.686   6.316  19.138  0.00  0.00    +0.000 OA
BRANCH  18  20
ATOM     20  O   UNL     1       1.739   7.120  21.020  0.00  0.00    +0.000 OA
ATOM     21  H   UNL     1       2.040   7.006  21.943  0.00  0.00    +0.000 HD
ENDBRANCH  18  20
ENDBRANCH  17  18
ENDBRANCH  16  17
ENDBRANCH  15  16
ENDBRANCH   4  15
TORSDOF 6
ENDMDL
MODEL 7
REMARK VINA RESULT:      -6.6      4.613      6.940
REMARK  Name = 
REMARK  7 active torsions:
REMARK  status: ('A' for Active; 'I' for Inactive)
REMARK    1  A    between atoms: C_1  and  C_2
REMARK    2  A    between atoms: C_4  and  C_5
REMARK    3  A    between atoms: C_8  and  S_9
REMARK    4  A    between atoms: S_9  and  C_10
REMARK    5  A    between atoms: C_10  and  C_11
REMARK    6  A    between atoms: C_11  and  C_12
REMARK    7  A    between atoms: C_12  and  O_14
REMARK                            x       y       z     vdW  Elec       q    Type
REMARK                         _______ _______ _______ _____ _____    ______ ____
ROOT
ATOM      1  C   UNL     1       2.360   7.432  18.131  0.00  0.00    +0.000 A 
ATOM      2  N   UNL     1       2.468   8.362  17.204  0.00  0.00    +0.000 NA
ATOM      3  N   UNL     1       2.008   9.533  17.770  0.00  0.00    +0.000 NA
ATOM      4  C   UNL     1       1.678   9.247  19.012  0.00  0.00    +0.000 A 
ATOM      5  O   UNL     1       1.902   7.930  19.320  0.00  0.00    +0.000 OA
ENDROOT
BRANCH   1   9
ATOM      6  C   UNL     1       0.870   2.733  18.738  0.00  0.00    +0.000 C 
ATOM      7  C   UNL     1       1.974   3.691  18.385  0.00  0.00    +0.000 A 
ATOM      8  C   UNL     1       1.719   5.074  18.377  0.00  0.00    +0.000 A 
ATOM      9  C   UNL     1       2.718   6.019  18.061  0.00  0.00    +0.000 A 
ATOM     10  C   UNL     1       4.000   5.541  17.751  0.00  0.00    +0.000 A 
ATOM     11 CL   UNL     1       5.341   6.581  17.407  0.00  0.00    +0.000 Cl
ATOM     12  C   UNL     1       4.269   4.166  17.758  0.00  0.00    +0.000 A 
ATOM     13  C   UNL     1       3.266   3.249  18.074  0.00  0.00    +0.000 A 
ATOM     14 CL   UNL     1       3.677   1.572  18.088  0.00  0.00    +0.000 Cl
ENDBRANCH   1   9
BRANCH   4  15
ATOM     15  S   UNL     1       1.053  10.388  20.164  0.00  0.00    +0.000 S 
BRANCH  15  16
ATOM     16  C   UNL     1      -0.552   9.622  20.561  0.00  0.00    +0.000 C 
BRANCH  16  17
ATOM     17  C   UNL     1      -0.410   8.783  21.826  0.00  0.00    +0.000 C 
BRANCH  17  18
ATOM     18  C   UNL     1      -0.230   9.660  23.040  0.00  0.00    +0.000 C 
ATOM     19  O   UNL     1       0.734   9.640  23.786  0.00  0.00    +0.000 OA
BRANCH  18  20
ATOM     20  O   UNL     1      -1.272  10.504  23.225  0.00  0.00    +0.000 OA
ATOM     21  H   UNL     1      -1.149  11.388  22.825  0.00  0.00    +0.000 HD
ENDBRANCH  18  20
ENDBRANCH  17  18
ENDBRANCH  16  17
ENDBRANCH  15  16
ENDBRANCH   4  15
TORSDOF 6
ENDMDL
MODEL 8
REMARK VINA RESULT:      -6.5      4.303      6.627
REMARK  Name = 
REMARK  7 active torsions:
REMARK  status: ('A' for Active; 'I' for Inactive)
REMARK    1  A    between atoms: C_1  and  C_2
REMARK    2  A    between atoms: C_4  and  C_5
REMARK    3  A    between atoms: C_8  and  S_9
REMARK    4  A    between atoms: S_9  and  C_10
REMARK    5  A    between atoms: C_10  and  C_11
REMARK    6  A    between atoms: C_11  and  C_12
REMARK    7  A    between atoms: C_12  and  O_14
REMARK                            x       y       z     vdW  Elec       q    Type
REMARK                         _______ _______ _______ _____ _____    ______ ____
ROOT
ATOM      1  C   UNL     1       2.488   7.658  18.388  0.00  0.00    +0.000 A 
ATOM      2  N   UNL     1       2.830   8.389  17.346  0.00  0.00    +0.000 NA
ATOM      3  N   UNL     1       2.119   9.567  17.444  0.00  0.00    +0.000 NA
ATOM      4  C   UNL     1       1.412   9.490  18.552  0.00  0.00    +0.000 A 
ATOM      5  O   UNL     1       1.620   8.311  19.220  0.00  0.00    +0.000 OA
ENDROOT
BRANCH   1   9
ATOM      6  C   UNL     1       1.762   3.665  21.249  0.00  0.00    +0.000 C 
ATOM      7  C   UNL     1       2.598   4.362  20.212  0.00  0.00    +0.000 A 
ATOM      8  C   UNL     1       2.206   5.628  19.739  0.00  0.00    +0.000 A 
ATOM      9  C   UNL     1       2.955   6.330  18.772  0.00  0.00    +0.000 A 
ATOM     10  C   UNL     1       4.125   5.730  18.281  0.00  0.00    +0.000 A 
ATOM     11 CL   UNL     1       5.179   6.499  17.142  0.00  0.00    +0.000 Cl
ATOM     12  C   UNL     1       4.527   4.471  18.746  0.00  0.00    +0.000 A 
ATOM     13  C   UNL     1       3.772   3.794  19.704  0.00  0.00    +0.000 A 
ATOM     14 CL   UNL     1       4.343   2.258  20.247  0.00  0.00    +0.000 Cl
ENDBRANCH   1   9
BRANCH   4  15
ATOM     15  S   UNL     1       0.351  10.731  19.146  0.00  0.00    +0.000 S 
BRANCH  15  16
ATOM     16  C   UNL     1      -0.392   9.884  20.578  0.00  0.00    +0.000 C 
BRANCH  16  17
ATOM     17  C   UNL     1       0.085  10.554  21.862  0.00  0.00    +0.000 C 
BRANCH  17  18
ATOM     18  C   UNL     1       0.701   9.547  22.800  0.00  0.00    +0.000 C 
ATOM     19  O   UNL     1       0.490   9.481  23.999  0.00  0.00    +0.000 OA
BRANCH  18  20
ATOM     20  O   UNL     1       1.534   8.691  22.164  0.00  0.00    +0.000 OA
ATOM     21  H   UNL     1       1.734   8.937  21.239  0.00  0.00    +0.000 HD
ENDBRANCH  18  20
ENDBRANCH  17  18
ENDBRANCH  16  17
ENDBRANCH  15  16
ENDBRANCH   4  15
TORSDOF 6
ENDMDL
MODEL 9
REMARK VINA RESULT:      -6.5      4.144      5.872
REMARK  Name = 
REMARK  7 active torsions:
REMARK  status: ('A' for Active; 'I' for Inactive)
REMARK    1  A    between atoms: C_1  and  C_2
REMARK    2  A    between atoms: C_4  and  C_5
REMARK    3  A    between atoms: C_8  and  S_9
REMARK    4  A    between atoms: S_9  and  C_10
REMARK    5  A    between atoms: C_10  and  C_11
REMARK    6  A    between atoms: C_11  and  C_12
REMARK    7  A    between atoms: C_12  and  O_14
REMARK                            x       y       z     vdW  Elec       q    Type
REMARK                         _______ _______ _______ _____ _____    ______ ____
ROOT
ATOM      1  C   UNL     1       6.179   4.841  15.754  0.00  0.00    +0.000 A 
ATOM      2  N   UNL     1       7.224   5.595  15.480  0.00  0.00    +0.000 NA
ATOM      3  N   UNL     1       7.616   5.270  14.198  0.00  0.00    +0.000 NA
ATOM      4  C   UNL     1       6.768   4.361  13.764  0.00  0.00    +0.000 A 
ATOM      5  O   UNL     1       5.807   4.060  14.694  0.00  0.00    +0.000 OA
ENDROOT
BRANCH   1   9
ATOM      6  C   UNL     1       1.749   3.847  17.767  0.00  0.00    +0.000 C 
ATOM      7  C   UNL     1       3.165   4.318  17.955  0.00  0.00    +0.000 A 
ATOM      8  C   UNL     1       4.038   4.355  16.853  0.00  0.00    +0.000 A 
ATOM      9  C   UNL     1       5.373   4.794  16.970  0.00  0.00    +0.000 A 
ATOM     10  C   UNL     1       5.823   5.205  18.234  0.00  0.00    +0.000 A 
ATOM     11 CL   UNL     1       7.413   5.830  18.517  0.00  0.00    +0.000 Cl
ATOM     12  C   UNL     1       4.963   5.177  19.339  0.00  0.00    +0.000 A 
ATOM     13  C   UNL     1       3.645   4.739  19.201  0.00  0.00    +0.000 A 
ATOM     14 CL   UNL     1       2.635   4.755  20.602  0.00  0.00    +0.000 Cl
ENDBRANCH   1   9
BRANCH   4  15
ATOM     15  S   UNL     1       6.813   3.628  12.189  0.00  0.00    +0.000 S 
BRANCH  15  16
ATOM     16  C   UNL     1       5.092   3.047  12.038  0.00  0.00    +0.000 C 
BRANCH  16  17
ATOM     17  C   UNL     1       4.249   4.136  11.385  0.00  0.00    +0.000 C 
BRANCH  17  18
ATOM     18  C   UNL     1       3.294   3.549  10.376  0.00  0.00    +0.000 C 
ATOM     19  O   UNL     1       2.856   2.412  10.400  0.00  0.00    +0.000 OA
BRANCH  18  20
ATOM     20  O   UNL     1       2.955   4.436   9.411  0.00  0.00    +0.000 OA
ATOM     21  H   UNL     1       2.003   4.443   9.188  0.00  0.00    +0.000 HD
ENDBRANCH  18  20
ENDBRANCH  17  18
ENDBRANCH  16  17
ENDBRANCH  15  16
ENDBRANCH   4  15
TORSDOF 6
ENDMDL
