MODEL 1
REMARK VINA RESULT:      -7.6      0.000      0.000
REMARK  Name = 
REMARK  5 active torsions:
REMARK  status: ('A' for Active; 'I' for Inactive)
REMARK    1  A    between atoms: C_2  and  C_11
REMARK    2  A    between atoms: N_3  and  C_4
REMARK    3  A    between atoms: C_12  and  N_13
REMARK    4  A    between atoms: N_13  and  O_14
REMARK    5  A    between atoms: C_16  and  C_17
REMARK                            x       y       z     vdW  Elec       q    Type
REMARK                         _______ _______ _______ _____ _____    ______ ____
ROOT
ATOM      1  C   UNL     1       0.724   9.485  20.743  0.00  0.00    +0.000 A 
ATOM      2  C   UNL     1      -0.191  10.220  20.055  0.00  0.00    +0.000 A 
ATOM      3  C   UNL     1      -0.917  11.248  20.781  0.00  0.00    +0.000 A 
ATOM      4  C   UNL     1      -0.776  11.411  22.100  0.00  0.00    +0.000 A 
ATOM      5  O   UNL     1       0.180  10.682  22.820  0.00  0.00    +0.000 OA
ATOM      6  C   UNL     1       0.985   9.792  22.175  0.00  0.00    +0.000 A 
ATOM      7  O   UNL     1       1.902   9.241  22.786  0.00  0.00    +0.000 OA
ENDROOT
BRANCH   4   8
ATOM      8  C   UNL     1      -1.590  12.344  22.899  0.00  0.00    +0.000 A 
ATOM      9  C   UNL     1      -2.875  11.990  23.347  0.00  0.00    +0.000 A 
ATOM     10  C   UNL     1      -3.635  12.865  24.120  0.00  0.00    +0.000 A 
ATOM     11  C   UNL     1      -3.115  14.109  24.473  0.00  0.00    +0.000 A 
ATOM     12  C   UNL     1      -1.838  14.471  24.056  0.00  0.00    +0.000 A 
ATOM     13  C   UNL     1      -1.078  13.594  23.276  0.00  0.00    +0.000 A 
ENDBRANCH   4   8
BRANCH   1  15
ATOM     14  O   UNL     1       1.902   8.413  18.972  0.00  0.00    +0.000 OA
ATOM     15  C   UNL     1       1.430   8.317  20.109  0.00  0.00    +0.000 C 
ATOM     16  N   UNL     1       1.426   7.140  20.834  0.00  0.00    +0.000 N 
ATOM     17  H   UNL     1       0.778   7.087  21.623  0.00  0.00    +0.000 HD
BRANCH  16  18
ATOM     18  C   UNL     1       2.020   5.925  20.439  0.00  0.00    +0.000 A 
ATOM     19  C   UNL     1       3.301   5.849  19.884  0.00  0.00    +0.000 A 
ATOM     20  C   UNL     1       3.812   4.626  19.444  0.00  0.00    +0.000 A 
ATOM     21  C   UNL     1       3.046   3.473  19.563  0.00  0.00    +0.000 A 
ATOM     22 CL   UNL     1       3.654   1.976  18.973  0.00  0.00    +0.000 Cl
ATOM     23  C   UNL     1       1.785   3.526  20.153  0.00  0.00    +0.000 A 
ATOM     24  C   UNL     1       1.279   4.749  20.607  0.00  0.00    +0.000 A 
ENDBRANCH  16  18
ENDBRANCH   1  15
BRANCH   2  25
ATOM     25  N   UNL     1      -0.608  10.106  18.732  0.00  0.00    +0.000 N 
ATOM     26  H   UNL     1      -1.561  10.427  18.551  0.00  0.00    +0.000 HD
BRANCH  25  27
ATOM     27  O   UNL     1       0.235  10.419  17.673  0.00  0.00    +0.000 OA
ATOM     28  H   UNL     1      -0.298  10.172  16.879  0.00  0.00    +0.000 HD
ENDBRANCH  25  27
ENDBRANCH   2  25
TORSDOF 5
ENDMDL
MODEL 2
REMARK VINA RESULT:      -7.5      0.160      1.372
REMARK  Name = 
REMARK  5 active torsions:
REMARK  status: ('A' for Active; 'I' for Inactive)
REMARK    1  A    between atoms: C_2  and  C_11
REMARK    2  A    between atoms: N_3  and  C_4
REMARK    3  A    between atoms: C_12  and  N_13
REMARK    4  A    between atoms: N_13  and  O_14
REMARK    5  A    between atoms: C_16  and  C_17
REMARK                            x       y       z     vdW  Elec       q    Type
REMARK                         _______ _______ _______ _____ _____    ______ ____
ROOT
ATOM      1  C   UNL     1       0.684   9.492  20.782  0.00  0.00    +0.000 A 
ATOM      2  C   UNL     1      -0.228  10.238  20.103  0.00  0.00    +0.000 A 
ATOM      3  C   UNL     1      -0.943  11.266  20.840  0.00  0.00    +0.000 A 
ATOM      4  C   UNL     1      -0.796  11.418  22.159  0.00  0.00    +0.000 A 
ATOM      5  O   UNL     1       0.158  10.678  22.869  0.00  0.00    +0.000 OA
ATOM      6  C   UNL     1       0.954   9.786  22.215  0.00  0.00    +0.000 A 
ATOM      7  O   UNL     1       1.869   9.224  22.818  0.00  0.00    +0.000 OA
ENDROOT
BRANCH   4   8
ATOM      8  C   UNL     1      -1.599  12.352  22.968  0.00  0.00    +0.000 A 
ATOM      9  C   UNL     1      -1.116  13.632  23.296  0.00  0.00    +0.000 A 
ATOM     10  C   UNL     1      -1.885  14.522  24.043  0.00  0.00    +0.000 A 
ATOM     11  C   UNL     1      -3.160  14.153  24.465  0.00  0.00    +0.000 A 
ATOM     12  C   UNL     1      -3.663  12.898  24.135  0.00  0.00    +0.000 A 
ATOM     13  C   UNL     1      -2.889  12.003  23.390  0.00  0.00    +0.000 A 
ENDBRANCH   4   8
BRANCH   1  15
ATOM     14  O   UNL     1       1.840   8.420  18.995  0.00  0.00    +0.000 OA
ATOM     15  C   UNL     1       1.378   8.322  20.136  0.00  0.00    +0.000 C 
ATOM     16  N   UNL     1       1.376   7.142  20.856  0.00  0.00    +0.000 N 
ATOM     17  H   UNL     1       0.735   7.089  21.652  0.00  0.00    +0.000 HD
BRANCH  16  18
ATOM     18  C   UNL     1       1.960   5.926  20.451  0.00  0.00    +0.000 A 
ATOM     19  C   UNL     1       1.336   4.687  20.624  0.00  0.00    +0.000 A 
ATOM     20  C   UNL     1       1.991   3.506  20.268  0.00  0.00    +0.000 A 
ATOM     21  C   UNL     1       3.272   3.561  19.732  0.00  0.00    +0.000 A 
ATOM     22 CL   UNL     1       4.100   2.104  19.342  0.00  0.00    +0.000 Cl
ATOM     23  C   UNL     1       3.889   4.791  19.513  0.00  0.00    +0.000 A 
ATOM     24  C   UNL     1       3.226   5.974  19.856  0.00  0.00    +0.000 A 
ENDBRANCH  16  18
ENDBRANCH   1  15
BRANCH   2  25
ATOM     25  N   UNL     1      -0.653  10.136  18.781  0.00  0.00    +0.000 N 
ATOM     26  H   UNL     1      -1.613  10.442  18.612  0.00  0.00    +0.000 HD
BRANCH  25  27
ATOM     27  O   UNL     1       0.177  10.482  17.722  0.00  0.00    +0.000 OA
ATOM     28  H   UNL     1       0.952  10.899  18.170  0.00  0.00    +0.000 HD
ENDBRANCH  25  27
ENDBRANCH   2  25
TORSDOF 5
ENDMDL
MODEL 3
REMARK VINA RESULT:      -7.5      3.760      8.719
REMARK  Name = 
REMARK  5 active torsions:
REMARK  status: ('A' for Active; 'I' for Inactive)
REMARK    1  A    between atoms: C_2  and  C_11
REMARK    2  A    between atoms: N_3  and  C_4
REMARK    3  A    between atoms: C_12  and  N_13
REMARK    4  A    between atoms: N_13  and  O_14
REMARK    5  A    between atoms: C_16  and  C_17
REMARK                            x       y       z     vdW  Elec       q    Type
REMARK                         _______ _______ _______ _____ _____    ______ ____
ROOT
ATOM      1  C   UNL     1       1.120   9.755  19.852  0.00  0.00    +0.000 A 
ATOM      2  C   UNL     1       1.512   9.954  18.565  0.00  0.00    +0.000 A 
ATOM      3  C   UNL     1       2.152   8.848  17.874  0.00  0.00    +0.000 A 
ATOM      4  C   UNL     1       2.445   7.703  18.499  0.00  0.00    +0.000 A 
ATOM      5  O   UNL     1       2.025   7.470  19.815  0.00  0.00    +0.000 OA
ATOM      6  C   UNL     1       1.306   8.418  20.478  0.00  0.00    +0.000 A 
ATOM      7  O   UNL     1       0.837   8.167  21.589  0.00  0.00    +0.000 OA
ENDROOT
BRANCH   4   8
ATOM      8  C   UNL     1       3.214   6.609  17.880  0.00  0.00    +0.000 A 
ATOM      9  C   UNL     1       4.421   6.859  17.205  0.00  0.00    +0.000 A 
ATOM     10  C   UNL     1       5.159   5.822  16.638  0.00  0.00    +0.000 A 
ATOM     11  C   UNL     1       4.708   4.509  16.750  0.00  0.00    +0.000 A 
ATOM     12  C   UNL     1       3.525   4.237  17.431  0.00  0.00    +0.000 A 
ATOM     13  C   UNL     1       2.783   5.280  17.995  0.00  0.00    +0.000 A 
ENDBRANCH   4   8
BRANCH   1  15
ATOM     14  O   UNL     1       1.324  11.629  21.309  0.00  0.00    +0.000 OA
ATOM     15  C   UNL     1       0.566  10.879  20.687  0.00  0.00    +0.000 C 
ATOM     16  N   UNL     1      -0.812  10.947  20.775  0.00  0.00    +0.000 N 
ATOM     17  H   UNL     1      -1.335  10.127  20.458  0.00  0.00    +0.000 HD
BRANCH  16  18
ATOM     18  C   UNL     1      -1.547  11.907  21.498  0.00  0.00    +0.000 A 
ATOM     19  C   UNL     1      -1.859  11.764  22.854  0.00  0.00    +0.000 A 
ATOM     20  C   UNL     1      -2.651  12.713  23.503  0.00  0.00    +0.000 A 
ATOM     21  C   UNL     1      -3.130  13.813  22.800  0.00  0.00    +0.000 A 
ATOM     22 CL   UNL     1      -4.149  14.954  23.587  0.00  0.00    +0.000 Cl
ATOM     23  C   UNL     1      -2.791  13.990  21.461  0.00  0.00    +0.000 A 
ATOM     24  C   UNL     1      -1.985  13.047  20.814  0.00  0.00    +0.000 A 
ENDBRANCH  16  18
ENDBRANCH   1  15
BRANCH   2  25
ATOM     25  N   UNL     1       1.455  11.107  17.787  0.00  0.00    +0.000 N 
ATOM     26  H   UNL     1       0.617  11.676  17.920  0.00  0.00    +0.000 HD
BRANCH  25  27
ATOM     27  O   UNL     1       2.575  11.905  17.586  0.00  0.00    +0.000 OA
ATOM     28  H   UNL     1       2.968  11.974  18.489  0.00  0.00    +0.000 HD
ENDBRANCH  25  27
ENDBRANCH   2  25
TORSDOF 5
ENDMDL
MODEL 4
REMARK VINA RESULT:      -7.4      4.757     10.132
REMARK  Name = 
REMARK  5 active torsions:
REMARK  status: ('A' for Active; 'I' for Inactive)
REMARK    1  A    between atoms: C_2  and  C_11
REMARK    2  A    between atoms: N_3  and  C_4
REMARK    3  A    between atoms: C_12  and  N_13
REMARK    4  A    between atoms: N_13  and  O_14
REMARK    5  A    between atoms: C_16  and  C_17
REMARK                            x       y       z     vdW  Elec       q    Type
REMARK                         _______ _______ _______ _____ _____    ______ ____
ROOT
ATOM      1  C   UNL     1       3.798   5.719  17.819  0.00  0.00    +0.000 A 
ATOM      2  C   UNL     1       3.600   4.444  17.393  0.00  0.00    +0.000 A 
ATOM      3  C   UNL     1       4.351   3.994  16.233  0.00  0.00    +0.000 A 
ATOM      4  C   UNL     1       5.136   4.822  15.538  0.00  0.00    +0.000 A 
ATOM      5  O   UNL     1       5.373   6.131  15.978  0.00  0.00    +0.000 OA
ATOM      6  C   UNL     1       4.800   6.577  17.131  0.00  0.00    +0.000 A 
ATOM      7  O   UNL     1       5.102   7.684  17.578  0.00  0.00    +0.000 OA
ENDROOT
BRANCH   4   8
ATOM      8  C   UNL     1       5.807   4.449  14.280  0.00  0.00    +0.000 A 
ATOM      9  C   UNL     1       5.193   3.585  13.357  0.00  0.00    +0.000 A 
ATOM     10  C   UNL     1       5.818   3.249  12.158  0.00  0.00    +0.000 A 
ATOM     11  C   UNL     1       7.068   3.785  11.854  0.00  0.00    +0.000 A 
ATOM     12  C   UNL     1       7.684   4.658  12.746  0.00  0.00    +0.000 A 
ATOM     13  C   UNL     1       7.058   4.990  13.951  0.00  0.00    +0.000 A 
ENDBRANCH   4   8
BRANCH   1  15
ATOM     14  O   UNL     1       2.662   5.632  19.912  0.00  0.00    +0.000 OA
ATOM     15  C   UNL     1       2.972   6.313  18.930  0.00  0.00    +0.000 C 
ATOM     16  N   UNL     1       2.525   7.605  18.729  0.00  0.00    +0.000 N 
ATOM     17  H   UNL     1       2.598   7.975  17.778  0.00  0.00    +0.000 HD
BRANCH  16  18
ATOM     18  C   UNL     1       1.740   8.357  19.626  0.00  0.00    +0.000 A 
ATOM     19  C   UNL     1       1.519   7.970  20.951  0.00  0.00    +0.000 A 
ATOM     20  C   UNL     1       0.675   8.716  21.776  0.00  0.00    +0.000 A 
ATOM     21  C   UNL     1       0.051   9.855  21.280  0.00  0.00    +0.000 A 
ATOM     22 CL   UNL     1      -1.030  10.743  22.280  0.00  0.00    +0.000 Cl
ATOM     23  C   UNL     1       0.297  10.276  19.975  0.00  0.00    +0.000 A 
ATOM     24  C   UNL     1       1.154   9.537  19.153  0.00  0.00    +0.000 A 
ENDBRANCH  16  18
ENDBRANCH   1  15
BRANCH   2  25
ATOM     25  N   UNL     1       2.715   3.476  17.864  0.00  0.00    +0.000 N 
ATOM     26  H   UNL     1       2.950   3.087  18.778  0.00  0.00    +0.000 HD
BRANCH  25  27
ATOM     27  O   UNL     1       1.340   3.614  17.715  0.00  0.00    +0.000 OA
ATOM     28  H   UNL     1       1.227   4.580  17.546  0.00  0.00    +0.000 HD
ENDBRANCH  25  27
ENDBRANCH   2  25
TORSDOF 5
ENDMDL
MODEL 5
REMARK VINA RESULT:      -7.4      7.791     10.007
REMARK  Name = 
REMARK  5 active torsions:
REMARK  status: ('A' for Active; 'I' for Inactive)
REMARK    1  A    between atoms: C_2  and  C_11
REMARK    2  A    between atoms: N_3  and  C_4
REMARK    3  A    between atoms: C_12  and  N_13
REMARK    4  A    between atoms: N_13  and  O_14
REMARK    5  A    between atoms: C_16  and  C_17
REMARK                            x       y       z     vdW  Elec       q    Type
REMARK                         _______ _______ _______ _____ _____    ______ ____
ROOT
ATOM      1  C   UNL     1       6.799   6.682  17.886  0.00  0.00    +0.000 A 
ATOM      2  C   UNL     1       7.061   5.813  18.898  0.00  0.00    +0.000 A 
ATOM      3  C   UNL     1       6.043   4.830  19.227  0.00  0.00    +0.000 A 
ATOM      4  C   UNL     1       4.846   4.831  18.632  0.00  0.00    +0.000 A 
ATOM      5  O   UNL     1       4.568   5.700  17.569  0.00  0.00    +0.000 OA
ATOM      6  C   UNL     1       5.526   6.561  17.125  0.00  0.00    +0.000 A 
ATOM      7  O   UNL     1       5.321   7.240  16.118  0.00  0.00    +0.000 OA
ENDROOT
BRANCH   4   8
ATOM      8  C   UNL     1       3.737   3.943  19.027  0.00  0.00    +0.000 A 
ATOM      9  C   UNL     1       2.977   4.199  20.181  0.00  0.00    +0.000 A 
ATOM     10  C   UNL     1       1.915   3.372  20.543  0.00  0.00    +0.000 A 
ATOM     11  C   UNL     1       1.586   2.279  19.744  0.00  0.00    +0.000 A 
ATOM     12  C   UNL     1       2.314   2.019  18.587  0.00  0.00    +0.000 A 
ATOM     13  C   UNL     1       3.382   2.847  18.229  0.00  0.00    +0.000 A 
ENDBRANCH   4   8
BRANCH   1  15
ATOM     14  O   UNL     1       8.483   7.746  16.579  0.00  0.00    +0.000 OA
ATOM     15  C   UNL     1       7.736   7.814  17.560  0.00  0.00    +0.000 C 
ATOM     16  N   UNL     1       7.763   8.859  18.465  0.00  0.00    +0.000 N 
ATOM     17  H   UNL     1       7.322   8.694  19.372  0.00  0.00    +0.000 HD
BRANCH  16  18
ATOM     18  C   UNL     1       8.560  10.016  18.367  0.00  0.00    +0.000 A 
ATOM     19  C   UNL     1       9.798  10.144  19.004  0.00  0.00    +0.000 A 
ATOM     20  C   UNL     1      10.514  11.340  18.930  0.00  0.00    +0.000 A 
ATOM     21  C   UNL     1       9.997  12.414  18.214  0.00  0.00    +0.000 A 
ATOM     22 CL   UNL     1      10.853  13.905  18.168  0.00  0.00    +0.000 Cl
ATOM     23  C   UNL     1       8.785  12.286  17.538  0.00  0.00    +0.000 A 
ATOM     24  C   UNL     1       8.075  11.082  17.600  0.00  0.00    +0.000 A 
ENDBRANCH  16  18
ENDBRANCH   1  15
BRANCH   2  25
ATOM     25  N   UNL     1       8.162   5.746  19.749  0.00  0.00    +0.000 N 
ATOM     26  H   UNL     1       8.756   6.576  19.750  0.00  0.00    +0.000 HD
BRANCH  25  27
ATOM     27  O   UNL     1       8.065   5.196  21.021  0.00  0.00    +0.000 OA
ATOM     28  H   UNL     1       8.505   4.317  20.921  0.00  0.00    +0.000 HD
ENDBRANCH  25  27
ENDBRANCH   2  25
TORSDOF 5
ENDMDL
MODEL 6
REMARK VINA RESULT:      -7.4      3.692      8.609
REMARK  Name = 
REMARK  5 active torsions:
REMARK  status: ('A' for Active; 'I' for Inactive)
REMARK    1  A    between atoms: C_2  and  C_11
REMARK    2  A    between atoms: N_3  and  C_4
REMARK    3  A    between atoms: C_12  and  N_13
REMARK    4  A    between atoms: N_13  and  O_14
REMARK    5  A    between atoms: C_16  and  C_17
REMARK                            x       y       z     vdW  Elec       q    Type
REMARK                         _______ _______ _______ _____ _____    ______ ____
ROOT
ATOM      1  C   UNL     1       1.108   9.542  19.909  0.00  0.00    +0.000 A 
ATOM      2  C   UNL     1       1.543   9.409  18.627  0.00  0.00    +0.000 A 
ATOM      3  C   UNL     1       2.119   8.134  18.236  0.00  0.00    +0.000 A 
ATOM      4  C   UNL     1       2.315   7.150  19.120  0.00  0.00    +0.000 A 
ATOM      5  O   UNL     1       1.850   7.259  20.437  0.00  0.00    +0.000 OA
ATOM      6  C   UNL     1       1.185   8.379  20.835  0.00  0.00    +0.000 A 
ATOM      7  O   UNL     1       0.675   8.424  21.955  0.00  0.00    +0.000 OA
ENDROOT
BRANCH   4   8
ATOM      8  C   UNL     1       3.019   5.896  18.801  0.00  0.00    +0.000 A 
ATOM      9  C   UNL     1       2.504   4.992  17.856  0.00  0.00    +0.000 A 
ATOM     10  C   UNL     1       3.180   3.815  17.539  0.00  0.00    +0.000 A 
ATOM     11  C   UNL     1       4.397   3.529  18.155  0.00  0.00    +0.000 A 
ATOM     12  C   UNL     1       4.934   4.420  19.079  0.00  0.00    +0.000 A 
ATOM     13  C   UNL     1       4.252   5.597  19.399  0.00  0.00    +0.000 A 
ENDBRANCH   4   8
BRANCH   1  15
ATOM     14  O   UNL     1       1.353  11.854  20.431  0.00  0.00    +0.000 OA
ATOM     15  C   UNL     1       0.617  10.862  20.439  0.00  0.00    +0.000 C 
ATOM     16  N   UNL     1      -0.646  10.858  21.002  0.00  0.00    +0.000 N 
ATOM     17  H   UNL     1      -1.054   9.944  21.210  0.00  0.00    +0.000 HD
BRANCH  16  18
ATOM     18  C   UNL     1      -1.305  11.970  21.560  0.00  0.00    +0.000 A 
ATOM     19  C   UNL     1      -1.208  12.314  22.912  0.00  0.00    +0.000 A 
ATOM     20  C   UNL     1      -1.939  13.386  23.427  0.00  0.00    +0.000 A 
ATOM     21  C   UNL     1      -2.769  14.123  22.589  0.00  0.00    +0.000 A 
ATOM     22 CL   UNL     1      -3.710  15.410  23.234  0.00  0.00    +0.000 Cl
ATOM     23  C   UNL     1      -2.842  13.820  21.231  0.00  0.00    +0.000 A 
ATOM     24  C   UNL     1      -2.098  12.754  20.714  0.00  0.00    +0.000 A 
ENDBRANCH  16  18
ENDBRANCH   1  15
BRANCH   2  25
ATOM     25  N   UNL     1       1.585  10.351  17.602  0.00  0.00    +0.000 N 
ATOM     26  H   UNL     1       0.676  10.601  17.209  0.00  0.00    +0.000 HD
BRANCH  25  27
ATOM     27  O   UNL     1       2.426  11.455  17.663  0.00  0.00    +0.000 OA
ATOM     28  H   UNL     1       2.586  11.564  18.632  0.00  0.00    +0.000 HD
ENDBRANCH  25  27
ENDBRANCH   2  25
TORSDOF 5
ENDMDL
MODEL 7
REMARK VINA RESULT:      -7.4      8.165     10.154
REMARK  Name = 
REMARK  5 active torsions:
REMARK  status: ('A' for Active; 'I' for Inactive)
REMARK    1  A    between atoms: C_2  and  C_11
REMARK    2  A    between atoms: N_3  and  C_4
REMARK    3  A    between atoms: C_12  and  N_13
REMARK    4  A    between atoms: N_13  and  O_14
REMARK    5  A    between atoms: C_16  and  C_17
REMARK                            x       y       z     vdW  Elec       q    Type
REMARK                         _______ _______ _______ _____ _____    ______ ____
ROOT
ATOM      1  C   UNL     1       6.861   6.647  17.773  0.00  0.00    +0.000 A 
ATOM      2  C   UNL     1       7.103   5.769  18.783  0.00  0.00    +0.000 A 
ATOM      3  C   UNL     1       6.109   4.741  19.040  0.00  0.00    +0.000 A 
ATOM      4  C   UNL     1       4.946   4.707  18.383  0.00  0.00    +0.000 A 
ATOM      5  O   UNL     1       4.690   5.586  17.322  0.00  0.00    +0.000 OA
ATOM      6  C   UNL     1       5.635   6.492  16.944  0.00  0.00    +0.000 A 
ATOM      7  O   UNL     1       5.456   7.181  15.939  0.00  0.00    +0.000 OA
ENDROOT
BRANCH   4   8
ATOM      8  C   UNL     1       3.854   3.770  18.703  0.00  0.00    +0.000 A 
ATOM      9  C   UNL     1       3.330   3.682  20.004  0.00  0.00    +0.000 A 
ATOM     10  C   UNL     1       2.283   2.811  20.302  0.00  0.00    +0.000 A 
ATOM     11  C   UNL     1       1.731   2.022  19.295  0.00  0.00    +0.000 A 
ATOM     12  C   UNL     1       2.224   2.108  17.997  0.00  0.00    +0.000 A 
ATOM     13  C   UNL     1       3.277   2.978  17.701  0.00  0.00    +0.000 A 
ENDBRANCH   4   8
BRANCH   1  15
ATOM     14  O   UNL     1       8.551   7.810  16.563  0.00  0.00    +0.000 OA
ATOM     15  C   UNL     1       7.768   7.820  17.517  0.00  0.00    +0.000 C 
ATOM     16  N   UNL     1       7.726   8.836  18.454  0.00  0.00    +0.000 N 
ATOM     17  H   UNL     1       7.258   8.626  19.339  0.00  0.00    +0.000 HD
BRANCH  16  18
ATOM     18  C   UNL     1       8.484  10.022  18.421  0.00  0.00    +0.000 A 
ATOM     19  C   UNL     1       8.158  11.112  17.608  0.00  0.00    +0.000 A 
ATOM     20  C   UNL     1       8.985  12.236  17.562  0.00  0.00    +0.000 A 
ATOM     21  C   UNL     1      10.141  12.277  18.333  0.00  0.00    +0.000 A 
ATOM     22 CL   UNL     1      11.187  13.638  18.236  0.00  0.00    +0.000 Cl
ATOM     23  C   UNL     1      10.456  11.217  19.181  0.00  0.00    +0.000 A 
ATOM     24  C   UNL     1       9.619  10.097  19.238  0.00  0.00    +0.000 A 
ENDBRANCH  16  18
ENDBRANCH   1  15
BRANCH   2  25
ATOM     25  N   UNL     1       8.160   5.728  19.690  0.00  0.00    +0.000 N 
ATOM     26  H   UNL     1       8.745   6.566  19.708  0.00  0.00    +0.000 HD
BRANCH  25  27
ATOM     27  O   UNL     1       8.004   5.198  20.965  0.00  0.00    +0.000 OA
ATOM     28  H   UNL     1       7.672   4.284  20.790  0.00  0.00    +0.000 HD
ENDBRANCH  25  27
ENDBRANCH   2  25
TORSDOF 5
ENDMDL
MODEL 8
REMARK VINA RESULT:      -7.4      3.791      8.631
REMARK  Name = 
REMARK  5 active torsions:
REMARK  status: ('A' for Active; 'I' for Inactive)
REMARK    1  A    between atoms: C_2  and  C_11
REMARK    2  A    between atoms: N_3  and  C_4
REMARK    3  A    between atoms: C_12  and  N_13
REMARK    4  A    between atoms: N_13  and  O_14
REMARK    5  A    between atoms: C_16  and  C_17
REMARK                            x       y       z     vdW  Elec       q    Type
REMARK                         _______ _______ _______ _____ _____    ______ ____
ROOT
ATOM      1  C   UNL     1       1.009  10.058  19.923  0.00  0.00    +0.000 A 
ATOM      2  C   UNL     1       1.460  10.242  18.653  0.00  0.00    +0.000 A 
ATOM      3  C   UNL     1       2.088   9.114  17.988  0.00  0.00    +0.000 A 
ATOM      4  C   UNL     1       2.315   7.960  18.623  0.00  0.00    +0.000 A 
ATOM      5  O   UNL     1       1.835   7.743  19.921  0.00  0.00    +0.000 OA
ATOM      6  C   UNL     1       1.123   8.716  20.555  0.00  0.00    +0.000 A 
ATOM      7  O   UNL     1       0.602   8.481  21.646  0.00  0.00    +0.000 OA
ENDROOT
BRANCH   4   8
ATOM      8  C   UNL     1       3.070   6.839  18.034  0.00  0.00    +0.000 A 
ATOM      9  C   UNL     1       2.638   5.510  18.188  0.00  0.00    +0.000 A 
ATOM     10  C   UNL     1       3.340   4.453  17.613  0.00  0.00    +0.000 A 
ATOM     11  C   UNL     1       4.484   4.708  16.860  0.00  0.00    +0.000 A 
ATOM     12  C   UNL     1       4.918   6.018  16.680  0.00  0.00    +0.000 A 
ATOM     13  C   UNL     1       4.215   7.078  17.262  0.00  0.00    +0.000 A 
ENDBRANCH   4   8
BRANCH   1  15
ATOM     14  O   UNL     1       1.225  12.009  21.273  0.00  0.00    +0.000 OA
ATOM     15  C   UNL     1       0.462  11.201  20.736  0.00  0.00    +0.000 C 
ATOM     16  N   UNL     1      -0.910  11.221  20.907  0.00  0.00    +0.000 N 
ATOM     17  H   UNL     1      -1.417  10.368  20.663  0.00  0.00    +0.000 HD
BRANCH  16  18
ATOM     18  C   UNL     1      -1.638  12.188  21.628  0.00  0.00    +0.000 A 
ATOM     19  C   UNL     1      -1.945  13.451  21.110  0.00  0.00    +0.000 A 
ATOM     20  C   UNL     1      -2.608  14.397  21.895  0.00  0.00    +0.000 A 
ATOM     21  C   UNL     1      -2.971  14.082  23.199  0.00  0.00    +0.000 A 
ATOM     22 CL   UNL     1      -3.740  15.265  24.183  0.00  0.00    +0.000 Cl
ATOM     23  C   UNL     1      -2.710  12.814  23.713  0.00  0.00    +0.000 A 
ATOM     24  C   UNL     1      -2.058  11.861  22.922  0.00  0.00    +0.000 A 
ENDBRANCH  16  18
ENDBRANCH   1  15
BRANCH   2  25
ATOM     25  N   UNL     1       1.474  11.397  17.875  0.00  0.00    +0.000 N 
ATOM     26  H   UNL     1       0.750  12.080  18.104  0.00  0.00    +0.000 HD
BRANCH  25  27
ATOM     27  O   UNL     1       2.665  12.025  17.528  0.00  0.00    +0.000 OA
ATOM     28  H   UNL     1       2.622  12.878  18.024  0.00  0.00    +0.000 HD
ENDBRANCH  25  27
ENDBRANCH   2  25
TORSDOF 5
ENDMDL
MODEL 9
REMARK VINA RESULT:      -7.2      1.922      2.313
REMARK  Name = 
REMARK  5 active torsions:
REMARK  status: ('A' for Active; 'I' for Inactive)
REMARK    1  A    between atoms: C_2  and  C_11
REMARK    2  A    between atoms: N_3  and  C_4
REMARK    3  A    between atoms: C_12  and  N_13
REMARK    4  A    between atoms: N_13  and  O_14
REMARK    5  A    between atoms: C_16  and  C_17
REMARK                            x       y       z     vdW  Elec       q    Type
REMARK                         _______ _______ _______ _____ _____    ______ ____
ROOT
ATOM      1  C   UNL     1       0.997  10.007  19.554  0.00  0.00    +0.000 A 
ATOM      2  C   UNL     1       0.884  11.333  19.274  0.00  0.00    +0.000 A 
ATOM      3  C   UNL     1       0.208  12.175  20.247  0.00  0.00    +0.000 A 
ATOM      4  C   UNL     1      -0.376  11.663  21.335  0.00  0.00    +0.000 A 
ATOM      5  O   UNL     1      -0.247  10.304  21.653  0.00  0.00    +0.000 OA
ATOM      6  C   UNL     1       0.484   9.483  20.848  0.00  0.00    +0.000 A 
ATOM      7  O   UNL     1       0.695   8.319  21.190  0.00  0.00    +0.000 OA
ENDROOT
BRANCH   4   8
ATOM      8  C   UNL     1      -1.188  12.456  22.275  0.00  0.00    +0.000 A 
ATOM      9  C   UNL     1      -2.392  11.954  22.799  0.00  0.00    +0.000 A 
ATOM     10  C   UNL     1      -3.149  12.695  23.704  0.00  0.00    +0.000 A 
ATOM     11  C   UNL     1      -2.705  13.950  24.115  0.00  0.00    +0.000 A 
ATOM     12  C   UNL     1      -1.505  14.457  23.623  0.00  0.00    +0.000 A 
ATOM     13  C   UNL     1      -0.750  13.714  22.711  0.00  0.00    +0.000 A 
ENDBRANCH   4   8
BRANCH   1  15
ATOM     14  O   UNL     1       1.322   9.169  17.347  0.00  0.00    +0.000 OA
ATOM     15  C   UNL     1       1.565   9.039  18.551  0.00  0.00    +0.000 C 
ATOM     16  N   UNL     1       2.279   7.975  19.071  0.00  0.00    +0.000 N 
ATOM     17  H   UNL     1       2.187   7.807  20.076  0.00  0.00    +0.000 HD
BRANCH  16  18
ATOM     18  C   UNL     1       2.895   6.951  18.326  0.00  0.00    +0.000 A 
ATOM     19  C   UNL     1       2.442   5.628  18.330  0.00  0.00    +0.000 A 
ATOM     20  C   UNL     1       3.134   4.639  17.629  0.00  0.00    +0.000 A 
ATOM     21  C   UNL     1       4.280   4.970  16.916  0.00  0.00    +0.000 A 
ATOM     22 CL   UNL     1       5.162   3.741  16.096  0.00  0.00    +0.000 Cl
ATOM     23  C   UNL     1       4.719   6.291  16.867  0.00  0.00    +0.000 A 
ATOM     24  C   UNL     1       4.017   7.285  17.558  0.00  0.00    +0.000 A 
ENDBRANCH  16  18
ENDBRANCH   1  15
BRANCH   2  25
ATOM     25  N   UNL     1       1.269  12.038  18.136  0.00  0.00    +0.000 N 
ATOM     26  H   UNL     1       0.884  12.981  18.062  0.00  0.00    +0.000 HD
BRANCH  25  27
ATOM     27  O   UNL     1       2.573  11.990  17.659  0.00  0.00    +0.000 OA
ATOM     28  H   UNL     1       2.965  11.226  18.147  0.00  0.00    +0.000 HD
ENDBRANCH  25  27
ENDBRANCH   2  25
TORSDOF 5
ENDMDL
