MODEL 1
REMARK VINA RESULT:      -7.3      0.000      0.000
REMARK  Name = 
REMARK  6 active torsions:
REMARK  status: ('A' for Active; 'I' for Inactive)
REMARK    1  A    between atoms: C_1  and  C_2
REMARK    2  A    between atoms: C_2  and  C_3
REMARK    3  A    between atoms: C_4  and  N_5
REMARK    4  A    between atoms: N_5  and  S_6
REMARK    5  A    between atoms: S_6  and  N_9
REMARK    6  A    between atoms: C_15  and  C_16
REMARK                            x       y       z     vdW  Elec       q    Type
REMARK                         _______ _______ _______ _____ _____    ______ ____
ROOT
ATOM      1  C   UNL     1       7.266   6.788  17.796  0.00  0.00    +0.000 C 
ATOM      2  C   UNL     1       6.748   5.605  17.021  0.00  0.00    +0.000 C 
ATOM      3  C   UNL     1       7.636   4.386  17.127  0.00  0.00    +0.000 C 
ATOM      4  C   UNL     1       5.266   5.348  16.916  0.00  0.00    +0.000 C 
ATOM      5  C   UNL     1       6.016   5.910  15.719  0.00  0.00    +0.000 C 
ENDROOT
BRANCH   5   6
ATOM      6  C   UNL     1       6.242   5.093  14.467  0.00  0.00    +0.000 A 
ATOM      7  C   UNL     1       5.322   4.118  14.035  0.00  0.00    +0.000 A 
ATOM      8  C   UNL     1       5.538   3.361  12.884  0.00  0.00    +0.000 A 
ATOM      9  C   UNL     1       6.673   3.573  12.110  0.00  0.00    +0.000 A 
ATOM     10  C   UNL     1       7.587   4.552  12.489  0.00  0.00    +0.000 A 
ATOM     11  C   UNL     1       7.372   5.302  13.653  0.00  0.00    +0.000 A 
ENDBRANCH   5   6
BRANCH   4  12
ATOM     12  N   UNL     1       4.186   6.161  17.546  0.00  0.00    +0.000 NA
ATOM     13  H   UNL     1       3.377   6.153  16.926  0.00  0.00    +0.000 HD
BRANCH  12  14
ATOM     14  S   UNL     1       3.639   5.564  19.026  0.00  0.00    +0.000 S 
ATOM     15  O   UNL     1       4.790   5.420  19.882  0.00  0.00    +0.000 OA
ATOM     16  O   UNL     1       2.450   6.259  19.447  0.00  0.00    +0.000 OA
BRANCH  14  17
ATOM     17  N   UNL     1       3.180   4.024  18.505  0.00  0.00    +0.000 NA
ATOM     18  C   UNL     1       1.710   3.774  18.312  0.00  0.00    +0.000 C 
ATOM     19  C   UNL     1       1.000   3.383  19.615  0.00  0.00    +0.000 C 
ATOM     20  O   UNL     1       1.656   2.294  20.277  0.00  0.00    +0.000 OA
ATOM     21  C   UNL     1       3.016   2.636  20.576  0.00  0.00    +0.000 C 
ATOM     22  C   UNL     1       3.791   2.900  19.282  0.00  0.00    +0.000 C 
ENDBRANCH  14  17
ENDBRANCH  12  14
ENDBRANCH   4  12
TORSDOF 4
ENDMDL
MODEL 2
REMARK VINA RESULT:      -7.3      0.199      1.066
REMARK  Name = 
REMARK  6 active torsions:
REMARK  status: ('A' for Active; 'I' for Inactive)
REMARK    1  A    between atoms: C_1  and  C_2
REMARK    2  A    between atoms: C_2  and  C_3
REMARK    3  A    between atoms: C_4  and  N_5
REMARK    4  A    between atoms: N_5  and  S_6
REMARK    5  A    between atoms: S_6  and  N_9
REMARK    6  A    between atoms: C_15  and  C_16
REMARK                            x       y       z     vdW  Elec       q    Type
REMARK                         _______ _______ _______ _____ _____    ______ ____
ROOT
ATOM      1  C   UNL     1       7.163   6.918  17.715  0.00  0.00    +0.000 C 
ATOM      2  C   UNL     1       6.699   5.693  16.971  0.00  0.00    +0.000 C 
ATOM      3  C   UNL     1       7.655   4.527  17.084  0.00  0.00    +0.000 C 
ATOM      4  C   UNL     1       5.232   5.354  16.895  0.00  0.00    +0.000 C 
ATOM      5  C   UNL     1       5.931   5.933  15.676  0.00  0.00    +0.000 C 
ENDROOT
BRANCH   5   6
ATOM      6  C   UNL     1       6.182   5.106  14.435  0.00  0.00    +0.000 A 
ATOM      7  C   UNL     1       7.317   5.301  13.624  0.00  0.00    +0.000 A 
ATOM      8  C   UNL     1       7.542   4.540  12.477  0.00  0.00    +0.000 A 
ATOM      9  C   UNL     1       6.647   3.540  12.115  0.00  0.00    +0.000 A 
ATOM     10  C   UNL     1       5.532   3.297  12.912  0.00  0.00    +0.000 A 
ATOM     11  C   UNL     1       5.304   4.071  14.057  0.00  0.00    +0.000 A 
ENDBRANCH   5   6
BRANCH   4  12
ATOM     12  N   UNL     1       4.119   6.118  17.528  0.00  0.00    +0.000 NA
ATOM     13  H   UNL     1       3.285   6.001  16.954  0.00  0.00    +0.000 HD
BRANCH  12  14
ATOM     14  S   UNL     1       3.697   5.584  19.071  0.00  0.00    +0.000 S 
ATOM     15  O   UNL     1       4.923   5.355  19.795  0.00  0.00    +0.000 OA
ATOM     16  O   UNL     1       2.623   6.378  19.610  0.00  0.00    +0.000 OA
BRANCH  14  17
ATOM     17  N   UNL     1       3.060   4.081  18.636  0.00  0.00    +0.000 NA
ATOM     18  C   UNL     1       1.564   3.968  18.552  0.00  0.00    +0.000 C 
ATOM     19  C   UNL     1       0.914   3.683  19.913  0.00  0.00    +0.000 C 
ATOM     20  O   UNL     1       1.512   2.555  20.566  0.00  0.00    +0.000 OA
ATOM     21  C   UNL     1       2.915   2.773  20.760  0.00  0.00    +0.000 C 
ATOM     22  C   UNL     1       3.617   2.925  19.408  0.00  0.00    +0.000 C 
ENDBRANCH  14  17
ENDBRANCH  12  14
ENDBRANCH   4  12
TORSDOF 4
ENDMDL
MODEL 3
REMARK VINA RESULT:      -7.1      1.635      2.066
REMARK  Name = 
REMARK  6 active torsions:
REMARK  status: ('A' for Active; 'I' for Inactive)
REMARK    1  A    between atoms: C_1  and  C_2
REMARK    2  A    between atoms: C_2  and  C_3
REMARK    3  A    between atoms: C_4  and  N_5
REMARK    4  A    between atoms: N_5  and  S_6
REMARK    5  A    between atoms: S_6  and  N_9
REMARK    6  A    between atoms: C_15  and  C_16
REMARK                            x       y       z     vdW  Elec       q    Type
REMARK                         _______ _______ _______ _____ _____    ______ ____
ROOT
ATOM      1  C   UNL     1       5.669   5.945  18.002  0.00  0.00    +0.000 C 
ATOM      2  C   UNL     1       6.040   4.860  17.026  0.00  0.00    +0.000 C 
ATOM      3  C   UNL     1       7.500   4.472  17.090  0.00  0.00    +0.000 C 
ATOM      4  C   UNL     1       5.066   3.755  16.703  0.00  0.00    +0.000 C 
ATOM      5  C   UNL     1       5.305   4.864  15.690  0.00  0.00    +0.000 C 
ENDROOT
BRANCH   5   6
ATOM      6  C   UNL     1       6.023   4.607  14.385  0.00  0.00    +0.000 A 
ATOM      7  C   UNL     1       5.576   3.640  13.464  0.00  0.00    +0.000 A 
ATOM      8  C   UNL     1       6.246   3.401  12.264  0.00  0.00    +0.000 A 
ATOM      9  C   UNL     1       7.374   4.142  11.933  0.00  0.00    +0.000 A 
ATOM     10  C   UNL     1       7.823   5.131  12.804  0.00  0.00    +0.000 A 
ATOM     11  C   UNL     1       7.155   5.359  14.014  0.00  0.00    +0.000 A 
ENDBRANCH   5   6
BRANCH   4  12
ATOM     12  N   UNL     1       3.704   3.585  17.288  0.00  0.00    +0.000 NA
ATOM     13  H   UNL     1       3.105   3.160  16.581  0.00  0.00    +0.000 HD
BRANCH  12  14
ATOM     14  S   UNL     1       3.645   2.556  18.623  0.00  0.00    +0.000 S 
ATOM     15  O   UNL     1       3.638   1.204  18.123  0.00  0.00    +0.000 OA
ATOM     16  O   UNL     1       4.563   2.993  19.644  0.00  0.00    +0.000 OA
BRANCH  14  17
ATOM     17  N   UNL     1       2.081   2.929  19.140  0.00  0.00    +0.000 NA
ATOM     18  C   UNL     1       1.575   4.315  18.854  0.00  0.00    +0.000 C 
ATOM     19  C   UNL     1       2.010   5.335  19.916  0.00  0.00    +0.000 C 
ATOM     20  O   UNL     1       1.686   4.899  21.243  0.00  0.00    +0.000 OA
ATOM     21  C   UNL     1       2.314   3.641  21.524  0.00  0.00    +0.000 C 
ATOM     22  C   UNL     1       1.796   2.566  20.565  0.00  0.00    +0.000 C 
ENDBRANCH  14  17
ENDBRANCH  12  14
ENDBRANCH   4  12
TORSDOF 4
ENDMDL
MODEL 4
REMARK VINA RESULT:      -7.0      1.735      2.366
REMARK  Name = 
REMARK  6 active torsions:
REMARK  status: ('A' for Active; 'I' for Inactive)
REMARK    1  A    between atoms: C_1  and  C_2
REMARK    2  A    between atoms: C_2  and  C_3
REMARK    3  A    between atoms: C_4  and  N_5
REMARK    4  A    between atoms: N_5  and  S_6
REMARK    5  A    between atoms: S_6  and  N_9
REMARK    6  A    between atoms: C_15  and  C_16
REMARK                            x       y       z     vdW  Elec       q    Type
REMARK                         _______ _______ _______ _____ _____    ______ ____
ROOT
ATOM      1  C   UNL     1       5.871   6.254  17.837  0.00  0.00    +0.000 C 
ATOM      2  C   UNL     1       6.025   5.089  16.895  0.00  0.00    +0.000 C 
ATOM      3  C   UNL     1       7.372   4.409  17.001  0.00  0.00    +0.000 C 
ATOM      4  C   UNL     1       4.849   4.201  16.575  0.00  0.00    +0.000 C 
ATOM      5  C   UNL     1       5.331   5.208  15.543  0.00  0.00    +0.000 C 
ENDROOT
BRANCH   5   6
ATOM      6  C   UNL     1       6.003   4.773  14.260  0.00  0.00    +0.000 A 
ATOM      7  C   UNL     1       7.203   5.356  13.810  0.00  0.00    +0.000 A 
ATOM      8  C   UNL     1       7.816   4.956  12.623  0.00  0.00    +0.000 A 
ATOM      9  C   UNL     1       7.258   3.939  11.856  0.00  0.00    +0.000 A 
ATOM     10  C   UNL     1       6.091   3.317  12.288  0.00  0.00    +0.000 A 
ATOM     11  C   UNL     1       5.472   3.730  13.475  0.00  0.00    +0.000 A 
ENDBRANCH   5   6
BRANCH   4  12
ATOM     12  N   UNL     1       3.472   4.332  17.132  0.00  0.00    +0.000 NA
ATOM     13  H   UNL     1       2.820   4.422  16.354  0.00  0.00    +0.000 HD
BRANCH  12  14
ATOM     14  S   UNL     1       2.951   2.996  18.020  0.00  0.00    +0.000 S 
ATOM     15  O   UNL     1       1.511   3.050  18.072  0.00  0.00    +0.000 OA
ATOM     16  O   UNL     1       3.661   1.809  17.617  0.00  0.00    +0.000 OA
BRANCH  14  17
ATOM     17  N   UNL     1       3.546   3.467  19.529  0.00  0.00    +0.000 NA
ATOM     18  C   UNL     1       3.409   2.485  20.658  0.00  0.00    +0.000 C 
ATOM     19  C   UNL     1       2.036   2.555  21.342  0.00  0.00    +0.000 C 
ATOM     20  O   UNL     1       1.703   3.893  21.738  0.00  0.00    +0.000 OA
ATOM     21  C   UNL     1       1.700   4.766  20.602  0.00  0.00    +0.000 C 
ATOM     22  C   UNL     1       3.096   4.824  19.976  0.00  0.00    +0.000 C 
ENDBRANCH  14  17
ENDBRANCH  12  14
ENDBRANCH   4  12
TORSDOF 4
ENDMDL
MODEL 5
REMARK VINA RESULT:      -7.0      1.652      2.291
REMARK  Name = 
REMARK  6 active torsions:
REMARK  status: ('A' for Active; 'I' for Inactive)
REMARK    1  A    between atoms: C_1  and  C_2
REMARK    2  A    between atoms: C_2  and  C_3
REMARK    3  A    between atoms: C_4  and  N_5
REMARK    4  A    between atoms: N_5  and  S_6
REMARK    5  A    between atoms: S_6  and  N_9
REMARK    6  A    between atoms: C_15  and  C_16
REMARK                            x       y       z     vdW  Elec       q    Type
REMARK                         _______ _______ _______ _____ _____    ______ ____
ROOT
ATOM      1  C   UNL     1       5.794   5.955  17.999  0.00  0.00    +0.000 C 
ATOM      2  C   UNL     1       6.124   4.872  17.005  0.00  0.00    +0.000 C 
ATOM      3  C   UNL     1       7.574   4.446  17.045  0.00  0.00    +0.000 C 
ATOM      4  C   UNL     1       5.117   3.797  16.683  0.00  0.00    +0.000 C 
ATOM      5  C   UNL     1       5.371   4.911  15.680  0.00  0.00    +0.000 C 
ENDROOT
BRANCH   5   6
ATOM      6  C   UNL     1       6.065   4.651  14.362  0.00  0.00    +0.000 A 
ATOM      7  C   UNL     1       7.246   5.323  13.993  0.00  0.00    +0.000 A 
ATOM      8  C   UNL     1       7.879   5.085  12.773  0.00  0.00    +0.000 A 
ATOM      9  C   UNL     1       7.363   4.145  11.889  0.00  0.00    +0.000 A 
ATOM     10  C   UNL     1       6.216   3.437  12.236  0.00  0.00    +0.000 A 
ATOM     11  C   UNL     1       5.577   3.687  13.457  0.00  0.00    +0.000 A 
ENDBRANCH   5   6
BRANCH   4  12
ATOM     12  N   UNL     1       3.759   3.655  17.284  0.00  0.00    +0.000 NA
ATOM     13  H   UNL     1       3.124   3.318  16.562  0.00  0.00    +0.000 HD
BRANCH  12  14
ATOM     14  S   UNL     1       3.669   2.532  18.539  0.00  0.00    +0.000 S 
ATOM     15  O   UNL     1       3.559   1.226  17.939  0.00  0.00    +0.000 OA
ATOM     16  O   UNL     1       4.640   2.830  19.561  0.00  0.00    +0.000 OA
BRANCH  14  17
ATOM     17  N   UNL     1       2.146   2.962  19.133  0.00  0.00    +0.000 NA
ATOM     18  C   UNL     1       1.773   4.417  19.074  0.00  0.00    +0.000 C 
ATOM     19  C   UNL     1       2.302   5.214  20.274  0.00  0.00    +0.000 C 
ATOM     20  O   UNL     1       1.940   4.607  21.522  0.00  0.00    +0.000 OA
ATOM     21  C   UNL     1       2.448   3.268  21.594  0.00  0.00    +0.000 C 
ATOM     22  C   UNL     1       1.831   2.408  20.488  0.00  0.00    +0.000 C 
ENDBRANCH  14  17
ENDBRANCH  12  14
ENDBRANCH   4  12
TORSDOF 4
ENDMDL
MODEL 6
REMARK VINA RESULT:      -7.0      1.112      1.872
REMARK  Name = 
REMARK  6 active torsions:
REMARK  status: ('A' for Active; 'I' for Inactive)
REMARK    1  A    between atoms: C_1  and  C_2
REMARK    2  A    between atoms: C_2  and  C_3
REMARK    3  A    between atoms: C_4  and  N_5
REMARK    4  A    between atoms: N_5  and  S_6
REMARK    5  A    between atoms: S_6  and  N_9
REMARK    6  A    between atoms: C_15  and  C_16
REMARK                            x       y       z     vdW  Elec       q    Type
REMARK                         _______ _______ _______ _____ _____    ______ ____
ROOT
ATOM      1  C   UNL     1       7.460   6.768  17.953  0.00  0.00    +0.000 C 
ATOM      2  C   UNL     1       6.902   5.604  17.177  0.00  0.00    +0.000 C 
ATOM      3  C   UNL     1       7.785   4.378  17.221  0.00  0.00    +0.000 C 
ATOM      4  C   UNL     1       5.415   5.358  17.128  0.00  0.00    +0.000 C 
ATOM      5  C   UNL     1       6.119   5.940  15.912  0.00  0.00    +0.000 C 
ENDROOT
BRANCH   5   6
ATOM      6  C   UNL     1       6.287   5.147  14.636  0.00  0.00    +0.000 A 
ATOM      7  C   UNL     1       7.386   5.339  13.776  0.00  0.00    +0.000 A 
ATOM      8  C   UNL     1       7.534   4.610  12.596  0.00  0.00    +0.000 A 
ATOM      9  C   UNL     1       6.597   3.644  12.249  0.00  0.00    +0.000 A 
ATOM     10  C   UNL     1       5.517   3.403  13.094  0.00  0.00    +0.000 A 
ATOM     11  C   UNL     1       5.365   4.145  14.271  0.00  0.00    +0.000 A 
ENDBRANCH   5   6
BRANCH   4  12
ATOM     12  N   UNL     1       4.368   6.165  17.818  0.00  0.00    +0.000 NA
ATOM     13  H   UNL     1       4.146   6.968  17.231  0.00  0.00    +0.000 HD
BRANCH  12  14
ATOM     14  S   UNL     1       2.910   5.352  18.060  0.00  0.00    +0.000 S 
ATOM     15  O   UNL     1       1.873   6.349  18.154  0.00  0.00    +0.000 OA
ATOM     16  O   UNL     1       2.807   4.217  17.179  0.00  0.00    +0.000 OA
BRANCH  14  17
ATOM     17  N   UNL     1       3.217   4.772  19.617  0.00  0.00    +0.000 NA
ATOM     18  C   UNL     1       3.692   3.351  19.738  0.00  0.00    +0.000 C 
ATOM     19  C   UNL     1       2.537   2.339  19.749  0.00  0.00    +0.000 C 
ATOM     20  O   UNL     1       1.545   2.670  20.731  0.00  0.00    +0.000 OA
ATOM     21  C   UNL     1       1.013   3.978  20.485  0.00  0.00    +0.000 C 
ATOM     22  C   UNL     1       2.119   5.029  20.602  0.00  0.00    +0.000 C 
ENDBRANCH  14  17
ENDBRANCH  12  14
ENDBRANCH   4  12
TORSDOF 4
ENDMDL
MODEL 7
REMARK VINA RESULT:      -7.0      1.466      1.941
REMARK  Name = 
REMARK  6 active torsions:
REMARK  status: ('A' for Active; 'I' for Inactive)
REMARK    1  A    between atoms: C_1  and  C_2
REMARK    2  A    between atoms: C_2  and  C_3
REMARK    3  A    between atoms: C_4  and  N_5
REMARK    4  A    between atoms: N_5  and  S_6
REMARK    5  A    between atoms: S_6  and  N_9
REMARK    6  A    between atoms: C_15  and  C_16
REMARK                            x       y       z     vdW  Elec       q    Type
REMARK                         _______ _______ _______ _____ _____    ______ ____
ROOT
ATOM      1  C   UNL     1       6.357   6.545  17.849  0.00  0.00    +0.000 C 
ATOM      2  C   UNL     1       6.224   5.335  16.963  0.00  0.00    +0.000 C 
ATOM      3  C   UNL     1       7.392   4.381  17.074  0.00  0.00    +0.000 C 
ATOM      4  C   UNL     1       4.872   4.715  16.711  0.00  0.00    +0.000 C 
ATOM      5  C   UNL     1       5.531   5.546  15.621  0.00  0.00    +0.000 C 
ENDROOT
BRANCH   5   6
ATOM      6  C   UNL     1       6.051   4.918  14.348  0.00  0.00    +0.000 A 
ATOM      7  C   UNL     1       5.347   3.900  13.675  0.00  0.00    +0.000 A 
ATOM      8  C   UNL     1       5.834   3.319  12.505  0.00  0.00    +0.000 A 
ATOM      9  C   UNL     1       7.034   3.755  11.953  0.00  0.00    +0.000 A 
ATOM     10  C   UNL     1       7.738   4.783  12.573  0.00  0.00    +0.000 A 
ATOM     11  C   UNL     1       7.252   5.357  13.755  0.00  0.00    +0.000 A 
ENDBRANCH   5   6
BRANCH   4  12
ATOM     12  N   UNL     1       3.575   5.170  17.290  0.00  0.00    +0.000 NA
ATOM     13  H   UNL     1       3.019   5.583  16.542  0.00  0.00    +0.000 HD
BRANCH  12  14
ATOM     14  S   UNL     1       2.631   3.933  17.940  0.00  0.00    +0.000 S 
ATOM     15  O   UNL     1       1.292   4.105  17.436  0.00  0.00    +0.000 OA
ATOM     16  O   UNL     1       3.324   2.672  17.866  0.00  0.00    +0.000 OA
BRANCH  14  17
ATOM     17  N   UNL     1       2.652   4.440  19.551  0.00  0.00    +0.000 NA
ATOM     18  C   UNL     1       3.723   3.869  20.437  0.00  0.00    +0.000 C 
ATOM     19  C   UNL     1       3.340   2.504  21.026  0.00  0.00    +0.000 C 
ATOM     20  O   UNL     1       2.060   2.540  21.671  0.00  0.00    +0.000 OA
ATOM     21  C   UNL     1       1.044   2.946  20.745  0.00  0.00    +0.000 C 
ATOM     22  C   UNL     1       1.324   4.364  20.241  0.00  0.00    +0.000 C 
ENDBRANCH  14  17
ENDBRANCH  12  14
ENDBRANCH   4  12
TORSDOF 4
ENDMDL
MODEL 8
REMARK VINA RESULT:      -6.9      1.601      2.101
REMARK  Name = 
REMARK  6 active torsions:
REMARK  status: ('A' for Active; 'I' for Inactive)
REMARK    1  A    between atoms: C_1  and  C_2
REMARK    2  A    between atoms: C_2  and  C_3
REMARK    3  A    between atoms: C_4  and  N_5
REMARK    4  A    between atoms: N_5  and  S_6
REMARK    5  A    between atoms: S_6  and  N_9
REMARK    6  A    between atoms: C_15  and  C_16
REMARK                            x       y       z     vdW  Elec       q    Type
REMARK                         _______ _______ _______ _____ _____    ______ ____
ROOT
ATOM      1  C   UNL     1       6.250   6.346  17.816  0.00  0.00    +0.000 C 
ATOM      2  C   UNL     1       6.271   5.160  16.887  0.00  0.00    +0.000 C 
ATOM      3  C   UNL     1       7.563   4.377  16.946  0.00  0.00    +0.000 C 
ATOM      4  C   UNL     1       5.016   4.366  16.631  0.00  0.00    +0.000 C 
ATOM      5  C   UNL     1       5.530   5.318  15.564  0.00  0.00    +0.000 C 
ENDROOT
BRANCH   5   6
ATOM      6  C   UNL     1       6.109   4.815  14.261  0.00  0.00    +0.000 A 
ATOM      7  C   UNL     1       5.526   3.751  13.546  0.00  0.00    +0.000 A 
ATOM      8  C   UNL     1       6.067   3.284  12.348  0.00  0.00    +0.000 A 
ATOM      9  C   UNL     1       7.200   3.886  11.812  0.00  0.00    +0.000 A 
ATOM     10  C   UNL     1       7.782   4.963  12.474  0.00  0.00    +0.000 A 
ATOM     11  C   UNL     1       7.242   5.420  13.683  0.00  0.00    +0.000 A 
ENDBRANCH   5   6
BRANCH   4  12
ATOM     12  N   UNL     1       3.679   4.613  17.245  0.00  0.00    +0.000 NA
ATOM     13  H   UNL     1       3.046   4.932  16.512  0.00  0.00    +0.000 HD
BRANCH  12  14
ATOM     14  S   UNL     1       2.957   3.244  17.915  0.00  0.00    +0.000 S 
ATOM     15  O   UNL     1       1.543   3.331  17.649  0.00  0.00    +0.000 OA
ATOM     16  O   UNL     1       3.725   2.063  17.612  0.00  0.00    +0.000 OA
BRANCH  14  17
ATOM     17  N   UNL     1       3.205   3.618  19.543  0.00  0.00    +0.000 NA
ATOM     18  C   UNL     1       2.191   3.106  20.528  0.00  0.00    +0.000 C 
ATOM     19  C   UNL     1       0.971   4.028  20.655  0.00  0.00    +0.000 C 
ATOM     20  O   UNL     1       1.350   5.385  20.918  0.00  0.00    +0.000 OA
ATOM     21  C   UNL     1       2.198   5.880  19.873  0.00  0.00    +0.000 C 
ATOM     22  C   UNL     1       3.491   5.063  19.810  0.00  0.00    +0.000 C 
ENDBRANCH  14  17
ENDBRANCH  12  14
ENDBRANCH   4  12
TORSDOF 4
ENDMDL
MODEL 9
REMARK VINA RESULT:      -6.9      1.642      2.229
REMARK  Name = 
REMARK  6 active torsions:
REMARK  status: ('A' for Active; 'I' for Inactive)
REMARK    1  A    between atoms: C_1  and  C_2
REMARK    2  A    between atoms: C_2  and  C_3
REMARK    3  A    between atoms: C_4  and  N_5
REMARK    4  A    between atoms: N_5  and  S_6
REMARK    5  A    between atoms: S_6  and  N_9
REMARK    6  A    between atoms: C_15  and  C_16
REMARK                            x       y       z     vdW  Elec       q    Type
REMARK                         _______ _______ _______ _____ _____    ______ ____
ROOT
ATOM      1  C   UNL     1       6.369   6.391  18.088  0.00  0.00    +0.000 C 
ATOM      2  C   UNL     1       6.348   5.215  17.146  0.00  0.00    +0.000 C 
ATOM      3  C   UNL     1       7.632   4.416  17.160  0.00  0.00    +0.000 C 
ATOM      4  C   UNL     1       5.076   4.437  16.920  0.00  0.00    +0.000 C 
ATOM      5  C   UNL     1       5.570   5.395  15.848  0.00  0.00    +0.000 C 
ENDROOT
BRANCH   5   6
ATOM      6  C   UNL     1       6.104   4.899  14.523  0.00  0.00    +0.000 A 
ATOM      7  C   UNL     1       7.285   5.413  13.954  0.00  0.00    +0.000 A 
ATOM      8  C   UNL     1       7.770   4.957  12.728  0.00  0.00    +0.000 A 
ATOM      9  C   UNL     1       7.101   3.950  12.041  0.00  0.00    +0.000 A 
ATOM     10  C   UNL     1       5.949   3.395  12.592  0.00  0.00    +0.000 A 
ATOM     11  C   UNL     1       5.459   3.864  13.817  0.00  0.00    +0.000 A 
ENDBRANCH   5   6
BRANCH   4  12
ATOM     12  N   UNL     1       3.761   4.694  17.576  0.00  0.00    +0.000 NA
ATOM     13  H   UNL     1       3.219   5.310  16.972  0.00  0.00    +0.000 HD
BRANCH  12  14
ATOM     14  S   UNL     1       2.815   3.315  17.798  0.00  0.00    +0.000 S 
ATOM     15  O   UNL     1       2.208   3.002  16.529  0.00  0.00    +0.000 OA
ATOM     16  O   UNL     1       3.523   2.331  18.576  0.00  0.00    +0.000 OA
BRANCH  14  17
ATOM     17  N   UNL     1       1.628   4.000  18.788  0.00  0.00    +0.000 NA
ATOM     18  C   UNL     1       2.059   5.102  19.714  0.00  0.00    +0.000 C 
ATOM     19  C   UNL     1       2.643   4.574  21.032  0.00  0.00    +0.000 C 
ATOM     20  O   UNL     1       1.765   3.636  21.669  0.00  0.00    +0.000 OA
ATOM     21  C   UNL     1       1.502   2.526  20.802  0.00  0.00    +0.000 C 
ATOM     22  C   UNL     1       0.793   3.004  19.532  0.00  0.00    +0.000 C 
ENDBRANCH  14  17
ENDBRANCH  12  14
ENDBRANCH   4  12
TORSDOF 4
ENDMDL
