MODEL 1
REMARK VINA RESULT:      -7.6      0.000      0.000
REMARK  Name = 
REMARK  7 active torsions:
REMARK  status: ('A' for Active; 'I' for Inactive)
REMARK    1  A    between atoms: C_1  and  C_2
REMARK    2  A    between atoms: N_4  and  C_5
REMARK    3  A    between atoms: N_12  and  C_13
REMARK    4  A    between atoms: C_16  and  C_17
REMARK    5  A    between atoms: C_17  and  C_18
REMARK    6  A    between atoms: C_17  and  C_19
REMARK    7  A    between atoms: C_17  and  C_20
REMARK                            x       y       z     vdW  Elec       q    Type
REMARK                         _______ _______ _______ _____ _____    ______ ____
ROOT
ATOM      1  C   UNL     1       6.578   3.641  13.239  0.00  0.00    +0.000 A 
ATOM      2  C   UNL     1       7.443   4.730  13.100  0.00  0.00    +0.000 A 
ATOM      3  C   UNL     1       7.603   5.651  14.140  0.00  0.00    +0.000 A 
ATOM      4  C   UNL     1       6.923   5.461  15.336  0.00  0.00    +0.000 A 
ATOM      5  N   UNL     1       7.166   6.287  16.420  0.00  0.00    +0.000 N 
ATOM      6  C   UNL     1       6.638   6.100  17.662  0.00  0.00    +0.000 A 
ATOM      7  O   UNL     1       7.105   6.768  18.580  0.00  0.00    +0.000 OA
ATOM      8  N   UNL     1       5.639   5.137  17.801  0.00  0.00    +0.000 N 
ATOM      9  C   UNL     1       5.471   4.153  16.813  0.00  0.00    +0.000 A 
ATOM     10  O   UNL     1       4.920   3.068  16.991  0.00  0.00    +0.000 OA
ATOM     11  C   UNL     1       6.057   4.392  15.485  0.00  0.00    +0.000 A 
ATOM     12  C   UNL     1       5.844   3.504  14.422  0.00  0.00    +0.000 A 
ATOM     13  H   UNL     1       7.862   7.020  16.359  0.00  0.00    +0.000 HD
ENDROOT
BRANCH   8  14
ATOM     14  C   UNL     1       5.066   4.897  19.178  0.00  0.00    +0.000 C 
ATOM     15  C   UNL     1       3.765   5.700  19.464  0.00  0.00    +0.000 C 
ATOM     16  O   UNL     1       2.769   5.080  20.258  0.00  0.00    +0.000 OA
ATOM     17  C   UNL     1       2.609   3.694  20.035  0.00  0.00    +0.000 C 
ATOM     18  O   UNL     1       3.816   3.036  20.361  0.00  0.00    +0.000 OA
ATOM     19  C   UNL     1       4.920   3.397  19.554  0.00  0.00    +0.000 C 
BRANCH  17  20
ATOM     20  C   UNL     1       1.880   3.267  18.708  0.00  0.00    +0.000 C 
ATOM     21  C   UNL     1       1.802   4.306  17.570  0.00  0.00    +0.000 C 
ATOM     22  C   UNL     1       2.580   2.021  18.129  0.00  0.00    +0.000 C 
ATOM     23  C   UNL     1       0.422   2.901  19.065  0.00  0.00    +0.000 C 
ENDBRANCH  17  20
ENDBRANCH   8  14
BRANCH   1  27
ATOM     24  C   UNL     1       5.480   1.282  10.509  0.00  0.00    +0.000 C 
ATOM     25  C   UNL     1       5.300   2.428  11.473  0.00  0.00    +0.000 C 
ATOM     26  O   UNL     1       4.258   3.066  11.505  0.00  0.00    +0.000 OA
ATOM     27  N   UNL     1       6.427   2.642  12.255  0.00  0.00    +0.000 N 
ATOM     28  H   UNL     1       7.265   2.135  11.994  0.00  0.00    +0.000 HD
ENDBRANCH   1  27
TORSDOF 3
ENDMDL
MODEL 2
REMARK VINA RESULT:      -7.3      5.696      8.124
REMARK  Name = 
REMARK  7 active torsions:
REMARK  status: ('A' for Active; 'I' for Inactive)
REMARK    1  A    between atoms: C_1  and  C_2
REMARK    2  A    between atoms: N_4  and  C_5
REMARK    3  A    between atoms: N_12  and  C_13
REMARK    4  A    between atoms: C_16  and  C_17
REMARK    5  A    between atoms: C_17  and  C_18
REMARK    6  A    between atoms: C_17  and  C_19
REMARK    7  A    between atoms: C_17  and  C_20
REMARK                            x       y       z     vdW  Elec       q    Type
REMARK                         _______ _______ _______ _____ _____    ______ ____
ROOT
ATOM      1  C   UNL     1       3.646   6.216  17.899  0.00  0.00    +0.000 A 
ATOM      2  C   UNL     1       3.625   5.498  19.097  0.00  0.00    +0.000 A 
ATOM      3  C   UNL     1       2.927   5.984  20.207  0.00  0.00    +0.000 A 
ATOM      4  C   UNL     1       2.217   7.173  20.105  0.00  0.00    +0.000 A 
ATOM      5  N   UNL     1       1.417   7.604  21.149  0.00  0.00    +0.000 N 
ATOM      6  C   UNL     1       0.594   8.689  21.090  0.00  0.00    +0.000 A 
ATOM      7  O   UNL     1      -0.219   8.830  21.998  0.00  0.00    +0.000 OA
ATOM      8  N   UNL     1       0.715   9.531  19.985  0.00  0.00    +0.000 N 
ATOM      9  C   UNL     1       1.357   9.075  18.823  0.00  0.00    +0.000 A 
ATOM     10  O   UNL     1       1.193   9.547  17.699  0.00  0.00    +0.000 OA
ATOM     11  C   UNL     1       2.236   7.898  18.928  0.00  0.00    +0.000 A 
ATOM     12  C   UNL     1       2.988   7.449  17.834  0.00  0.00    +0.000 A 
ATOM     13  H   UNL     1       1.320   7.041  21.986  0.00  0.00    +0.000 HD
ENDROOT
BRANCH   8  14
ATOM     14  C   UNL     1      -0.211  10.721  19.890  0.00  0.00    +0.000 C 
ATOM     15  C   UNL     1       0.024  11.787  20.999  0.00  0.00    +0.000 C 
ATOM     16  O   UNL     1      -0.147  13.149  20.651  0.00  0.00    +0.000 OA
ATOM     17  C   UNL     1       0.297  13.490  19.353  0.00  0.00    +0.000 C 
ATOM     18  O   UNL     1      -0.453  12.760  18.405  0.00  0.00    +0.000 OA
ATOM     19  C   UNL     1      -0.286  11.358  18.476  0.00  0.00    +0.000 C 
BRANCH  17  20
ATOM     20  C   UNL     1       1.852  13.585  19.138  0.00  0.00    +0.000 C 
ATOM     21  C   UNL     1       2.511  12.539  18.216  0.00  0.00    +0.000 C 
ATOM     22  C   UNL     1       2.195  14.972  18.556  0.00  0.00    +0.000 C 
ATOM     23  C   UNL     1       2.532  13.440  20.518  0.00  0.00    +0.000 C 
ENDBRANCH  17  20
ENDBRANCH   8  14
BRANCH   1  27
ATOM     24  C   UNL     1       5.888   5.435  14.968  0.00  0.00    +0.000 C 
ATOM     25  C   UNL     1       5.509   6.149  16.241  0.00  0.00    +0.000 C 
ATOM     26  O   UNL     1       6.258   6.972  16.748  0.00  0.00    +0.000 OA
ATOM     27  N   UNL     1       4.272   5.746  16.725  0.00  0.00    +0.000 N 
ATOM     28  H   UNL     1       3.851   4.938  16.281  0.00  0.00    +0.000 HD
ENDBRANCH   1  27
TORSDOF 3
ENDMDL
MODEL 3
REMARK VINA RESULT:      -7.1      3.704      7.366
REMARK  Name = 
REMARK  7 active torsions:
REMARK  status: ('A' for Active; 'I' for Inactive)
REMARK    1  A    between atoms: C_1  and  C_2
REMARK    2  A    between atoms: N_4  and  C_5
REMARK    3  A    between atoms: N_12  and  C_13
REMARK    4  A    between atoms: C_16  and  C_17
REMARK    5  A    between atoms: C_17  and  C_18
REMARK    6  A    between atoms: C_17  and  C_19
REMARK    7  A    between atoms: C_17  and  C_20
REMARK                            x       y       z     vdW  Elec       q    Type
REMARK                         _______ _______ _______ _____ _____    ______ ____
ROOT
ATOM      1  C   UNL     1       0.798   9.459  20.088  0.00  0.00    +0.000 A 
ATOM      2  C   UNL     1       1.083  10.207  18.943  0.00  0.00    +0.000 A 
ATOM      3  C   UNL     1       2.013   9.747  18.005  0.00  0.00    +0.000 A 
ATOM      4  C   UNL     1       2.630   8.518  18.195  0.00  0.00    +0.000 A 
ATOM      5  N   UNL     1       3.454   7.988  17.217  0.00  0.00    +0.000 N 
ATOM      6  C   UNL     1       4.001   6.741  17.266  0.00  0.00    +0.000 A 
ATOM      7  O   UNL     1       4.525   6.314  16.242  0.00  0.00    +0.000 OA
ATOM      8  N   UNL     1       3.887   6.033  18.462  0.00  0.00    +0.000 N 
ATOM      9  C   UNL     1       2.931   6.416  19.416  0.00  0.00    +0.000 A 
ATOM     10  O   UNL     1       2.479   5.680  20.292  0.00  0.00    +0.000 OA
ATOM     11  C   UNL     1       2.363   7.771  19.328  0.00  0.00    +0.000 A 
ATOM     12  C   UNL     1       1.482   8.258  20.303  0.00  0.00    +0.000 A 
ATOM     13  H   UNL     1       3.591   8.479  16.342  0.00  0.00    +0.000 HD
ENDROOT
BRANCH   8  14
ATOM     14  C   UNL     1       4.461   4.637  18.522  0.00  0.00    +0.000 C 
ATOM     15  C   UNL     1       4.361   3.978  19.928  0.00  0.00    +0.000 C 
ATOM     16  O   UNL     1       4.121   2.584  19.987  0.00  0.00    +0.000 OA
ATOM     17  C   UNL     1       3.233   2.092  19.004  0.00  0.00    +0.000 C 
ATOM     18  O   UNL     1       3.789   2.326  17.727  0.00  0.00    +0.000 OA
ATOM     19  C   UNL     1       3.955   3.691  17.398  0.00  0.00    +0.000 C 
BRANCH  17  20
ATOM     20  C   UNL     1       1.706   2.408  19.206  0.00  0.00    +0.000 C 
ATOM     21  C   UNL     1       1.118   3.610  18.439  0.00  0.00    +0.000 C 
ATOM     22  C   UNL     1       0.879   1.171  18.799  0.00  0.00    +0.000 C 
ATOM     23  C   UNL     1       1.474   2.693  20.707  0.00  0.00    +0.000 C 
ENDBRANCH  17  20
ENDBRANCH   8  14
BRANCH   1  27
ATOM     24  C   UNL     1      -1.231  10.430  23.115  0.00  0.00    +0.000 C 
ATOM     25  C   UNL     1       0.027  10.016  22.394  0.00  0.00    +0.000 C 
ATOM     26  O   UNL     1       1.082   9.883  22.996  0.00  0.00    +0.000 OA
ATOM     27  N   UNL     1      -0.180   9.834  21.034  0.00  0.00    +0.000 N 
ATOM     28  H   UNL     1      -1.072  10.142  20.663  0.00  0.00    +0.000 HD
ENDBRANCH   1  27
TORSDOF 3
ENDMDL
MODEL 4
REMARK VINA RESULT:      -7.0      1.059      1.076
REMARK  Name = 
REMARK  7 active torsions:
REMARK  status: ('A' for Active; 'I' for Inactive)
REMARK    1  A    between atoms: C_1  and  C_2
REMARK    2  A    between atoms: N_4  and  C_5
REMARK    3  A    between atoms: N_12  and  C_13
REMARK    4  A    between atoms: C_16  and  C_17
REMARK    5  A    between atoms: C_17  and  C_18
REMARK    6  A    between atoms: C_17  and  C_19
REMARK    7  A    between atoms: C_17  and  C_20
REMARK                            x       y       z     vdW  Elec       q    Type
REMARK                         _______ _______ _______ _____ _____    ______ ____
ROOT
ATOM      1  C   UNL     1       5.482   3.609  12.652  0.00  0.00    +0.000 A 
ATOM      2  C   UNL     1       6.684   4.289  12.433  0.00  0.00    +0.000 A 
ATOM      3  C   UNL     1       7.338   4.937  13.485  0.00  0.00    +0.000 A 
ATOM      4  C   UNL     1       6.807   4.873  14.767  0.00  0.00    +0.000 A 
ATOM      5  N   UNL     1       7.504   5.398  15.841  0.00  0.00    +0.000 N 
ATOM      6  C   UNL     1       7.118   5.272  17.143  0.00  0.00    +0.000 A 
ATOM      7  O   UNL     1       7.932   5.587  18.005  0.00  0.00    +0.000 OA
ATOM      8  N   UNL     1       5.846   4.759  17.392  0.00  0.00    +0.000 N 
ATOM      9  C   UNL     1       5.166   4.050  16.389  0.00  0.00    +0.000 A 
ATOM     10  O   UNL     1       4.256   3.247  16.591  0.00  0.00    +0.000 OA
ATOM     11  C   UNL     1       5.614   4.211  14.996  0.00  0.00    +0.000 A 
ATOM     12  C   UNL     1       4.922   3.616  13.933  0.00  0.00    +0.000 A 
ATOM     13  H   UNL     1       8.420   5.807  15.707  0.00  0.00    +0.000 HD
ENDROOT
BRANCH   8  14
ATOM     14  C   UNL     1       5.416   4.585  18.830  0.00  0.00    +0.000 C 
ATOM     15  C   UNL     1       4.317   5.590  19.281  0.00  0.00    +0.000 C 
ATOM     16  O   UNL     1       3.336   5.130  20.193  0.00  0.00    +0.000 OA
ATOM     17  C   UNL     1       2.915   3.796  19.987  0.00  0.00    +0.000 C 
ATOM     18  O   UNL     1       4.022   2.935  20.155  0.00  0.00    +0.000 OA
ATOM     19  C   UNL     1       5.062   3.123  19.216  0.00  0.00    +0.000 C 
BRANCH  17  20
ATOM     20  C   UNL     1       1.964   3.533  18.763  0.00  0.00    +0.000 C 
ATOM     21  C   UNL     1       1.867   4.632  17.684  0.00  0.00    +0.000 C 
ATOM     22  C   UNL     1       2.413   2.243  18.046  0.00  0.00    +0.000 C 
ATOM     23  C   UNL     1       0.533   3.330  19.308  0.00  0.00    +0.000 C 
ENDBRANCH  17  20
ENDBRANCH   8  14
BRANCH   1  27
ATOM     24  C   UNL     1       3.348   2.327   9.819  0.00  0.00    +0.000 C 
ATOM     25  C   UNL     1       3.851   3.375  10.779  0.00  0.00    +0.000 C 
ATOM     26  O   UNL     1       3.426   4.520  10.738  0.00  0.00    +0.000 OA
ATOM     27  N   UNL     1       4.813   2.878  11.647  0.00  0.00    +0.000 N 
ATOM     28  H   UNL     1       5.174   1.953  11.446  0.00  0.00    +0.000 HD
ENDBRANCH   1  27
TORSDOF 3
ENDMDL
MODEL 5
REMARK VINA RESULT:      -6.9      7.751     10.048
REMARK  Name = 
REMARK  7 active torsions:
REMARK  status: ('A' for Active; 'I' for Inactive)
REMARK    1  A    between atoms: C_1  and  C_2
REMARK    2  A    between atoms: N_4  and  C_5
REMARK    3  A    between atoms: N_12  and  C_13
REMARK    4  A    between atoms: C_16  and  C_17
REMARK    5  A    between atoms: C_17  and  C_18
REMARK    6  A    between atoms: C_17  and  C_19
REMARK    7  A    between atoms: C_17  and  C_20
REMARK                            x       y       z     vdW  Elec       q    Type
REMARK                         _______ _______ _______ _____ _____    ______ ____
ROOT
ATOM      1  C   UNL     1       2.209   7.482  19.545  0.00  0.00    +0.000 A 
ATOM      2  C   UNL     1       2.175   8.146  18.316  0.00  0.00    +0.000 A 
ATOM      3  C   UNL     1       1.512   9.371  18.187  0.00  0.00    +0.000 A 
ATOM      4  C   UNL     1       0.915   9.950  19.299  0.00  0.00    +0.000 A 
ATOM      5  N   UNL     1       0.368  11.218  19.220  0.00  0.00    +0.000 N 
ATOM      6  C   UNL     1      -0.127  11.910  20.285  0.00  0.00    +0.000 A 
ATOM      7  O   UNL     1      -0.376  13.099  20.119  0.00  0.00    +0.000 OA
ATOM      8  N   UNL     1      -0.273  11.221  21.489  0.00  0.00    +0.000 N 
ATOM      9  C   UNL     1       0.414  10.014  21.695  0.00  0.00    +0.000 A 
ATOM     10  O   UNL     1       0.673   9.534  22.798  0.00  0.00    +0.000 OA
ATOM     11  C   UNL     1       0.934   9.299  20.519  0.00  0.00    +0.000 A 
ATOM     12  C   UNL     1       1.539   8.041  20.639  0.00  0.00    +0.000 A 
ATOM     13  H   UNL     1       0.423  11.747  18.358  0.00  0.00    +0.000 HD
ENDROOT
BRANCH   8  14
ATOM     14  C   UNL     1      -0.791  11.982  22.687  0.00  0.00    +0.000 C 
ATOM     15  C   UNL     1      -0.728  13.528  22.522  0.00  0.00    +0.000 C 
ATOM     16  O   UNL     1      -1.770  14.295  23.097  0.00  0.00    +0.000 OA
ATOM     17  C   UNL     1      -3.054  13.712  23.011  0.00  0.00    +0.000 C 
ATOM     18  O   UNL     1      -3.050  12.489  23.719  0.00  0.00    +0.000 OA
ATOM     19  C   UNL     1      -2.181  11.506  23.191  0.00  0.00    +0.000 C 
BRANCH  17  20
ATOM     20  C   UNL     1      -3.753  13.738  21.602  0.00  0.00    +0.000 C 
ATOM     21  C   UNL     1      -3.554  12.515  20.683  0.00  0.00    +0.000 C 
ATOM     22  C   UNL     1      -5.273  13.906  21.799  0.00  0.00    +0.000 C 
ATOM     23  C   UNL     1      -3.211  14.958  20.826  0.00  0.00    +0.000 C 
ENDBRANCH  17  20
ENDBRANCH   8  14
BRANCH   1  27
ATOM     24  C   UNL     1       3.548   3.958  19.681  0.00  0.00    +0.000 C 
ATOM     25  C   UNL     1       2.559   5.025  19.285  0.00  0.00    +0.000 C 
ATOM     26  O   UNL     1       1.575   4.752  18.612  0.00  0.00    +0.000 OA
ATOM     27  N   UNL     1       2.918   6.280  19.756  0.00  0.00    +0.000 N 
ATOM     28  H   UNL     1       3.845   6.368  20.157  0.00  0.00    +0.000 HD
ENDBRANCH   1  27
TORSDOF 3
ENDMDL
MODEL 6
REMARK VINA RESULT:      -6.9      4.564      8.498
REMARK  Name = 
REMARK  7 active torsions:
REMARK  status: ('A' for Active; 'I' for Inactive)
REMARK    1  A    between atoms: C_1  and  C_2
REMARK    2  A    between atoms: N_4  and  C_5
REMARK    3  A    between atoms: N_12  and  C_13
REMARK    4  A    between atoms: C_16  and  C_17
REMARK    5  A    between atoms: C_17  and  C_18
REMARK    6  A    between atoms: C_17  and  C_19
REMARK    7  A    between atoms: C_17  and  C_20
REMARK                            x       y       z     vdW  Elec       q    Type
REMARK                         _______ _______ _______ _____ _____    ______ ____
ROOT
ATOM      1  C   UNL     1       0.015  10.591  20.480  0.00  0.00    +0.000 A 
ATOM      2  C   UNL     1       0.436  11.306  19.356  0.00  0.00    +0.000 A 
ATOM      3  C   UNL     1       1.352  10.747  18.458  0.00  0.00    +0.000 A 
ATOM      4  C   UNL     1       1.818   9.456  18.667  0.00  0.00    +0.000 A 
ATOM      5  N   UNL     1       2.623   8.840  17.725  0.00  0.00    +0.000 N 
ATOM      6  C   UNL     1       3.024   7.539  17.788  0.00  0.00    +0.000 A 
ATOM      7  O   UNL     1       3.545   7.059  16.787  0.00  0.00    +0.000 OA
ATOM      8  N   UNL     1       2.775   6.845  18.972  0.00  0.00    +0.000 N 
ATOM      9  C   UNL     1       1.824   7.330  19.884  0.00  0.00    +0.000 A 
ATOM     10  O   UNL     1       1.252   6.646  20.731  0.00  0.00    +0.000 OA
ATOM     11  C   UNL     1       1.416   8.740  19.780  0.00  0.00    +0.000 A 
ATOM     12  C   UNL     1       0.550   9.320  20.717  0.00  0.00    +0.000 A 
ATOM     13  H   UNL     1       2.855   9.315  16.861  0.00  0.00    +0.000 HD
ENDROOT
BRANCH   8  14
ATOM     14  C   UNL     1       3.186   5.393  19.047  0.00  0.00    +0.000 C 
ATOM     15  C   UNL     1       3.125   4.653  17.680  0.00  0.00    +0.000 C 
ATOM     16  O   UNL     1       4.109   3.670  17.417  0.00  0.00    +0.000 OA
ATOM     17  C   UNL     1       5.401   3.979  17.901  0.00  0.00    +0.000 C 
ATOM     18  O   UNL     1       5.347   4.095  19.308  0.00  0.00    +0.000 OA
ATOM     19  C   UNL     1       4.533   5.149  19.782  0.00  0.00    +0.000 C 
BRANCH  17  20
ATOM     20  C   UNL     1       6.214   5.068  17.109  0.00  0.00    +0.000 C 
ATOM     21  C   UNL     1       6.394   6.448  17.773  0.00  0.00    +0.000 C 
ATOM     22  C   UNL     1       7.627   4.525  16.816  0.00  0.00    +0.000 C 
ATOM     23  C   UNL     1       5.488   5.321  15.769  0.00  0.00    +0.000 C 
ENDBRANCH  17  20
ENDBRANCH   8  14
BRANCH   1  27
ATOM     24  C   UNL     1      -2.118  11.581  23.428  0.00  0.00    +0.000 C 
ATOM     25  C   UNL     1      -0.926  10.941  22.764  0.00  0.00    +0.000 C 
ATOM     26  O   UNL     1      -0.055  10.395  23.426  0.00  0.00    +0.000 OA
ATOM     27  N   UNL     1      -0.958  11.071  21.382  0.00  0.00    +0.000 N 
ATOM     28  H   UNL     1      -1.661  11.692  20.999  0.00  0.00    +0.000 HD
ENDBRANCH   1  27
TORSDOF 3
ENDMDL
MODEL 7
REMARK VINA RESULT:      -6.8      5.661      8.010
REMARK  Name = 
REMARK  7 active torsions:
REMARK  status: ('A' for Active; 'I' for Inactive)
REMARK    1  A    between atoms: C_1  and  C_2
REMARK    2  A    between atoms: N_4  and  C_5
REMARK    3  A    between atoms: N_12  and  C_13
REMARK    4  A    between atoms: C_16  and  C_17
REMARK    5  A    between atoms: C_17  and  C_18
REMARK    6  A    between atoms: C_17  and  C_19
REMARK    7  A    between atoms: C_17  and  C_20
REMARK                            x       y       z     vdW  Elec       q    Type
REMARK                         _______ _______ _______ _____ _____    ______ ____
ROOT
ATOM      1  C   UNL     1       3.871   6.362  17.858  0.00  0.00    +0.000 A 
ATOM      2  C   UNL     1       3.813   5.586  19.019  0.00  0.00    +0.000 A 
ATOM      3  C   UNL     1       3.026   5.986  20.104  0.00  0.00    +0.000 A 
ATOM      4  C   UNL     1       2.267   7.145  20.012  0.00  0.00    +0.000 A 
ATOM      5  N   UNL     1       1.386   7.488  21.023  0.00  0.00    +0.000 N 
ATOM      6  C   UNL     1       0.517   8.536  20.962  0.00  0.00    +0.000 A 
ATOM      7  O   UNL     1      -0.356   8.597  21.822  0.00  0.00    +0.000 OA
ATOM      8  N   UNL     1       0.663   9.435  19.905  0.00  0.00    +0.000 N 
ATOM      9  C   UNL     1       1.395   9.065  18.766  0.00  0.00    +0.000 A 
ATOM     10  O   UNL     1       1.276   9.584  17.657  0.00  0.00    +0.000 OA
ATOM     11  C   UNL     1       2.322   7.926  18.872  0.00  0.00    +0.000 A 
ATOM     12  C   UNL     1       3.160   7.565  17.808  0.00  0.00    +0.000 A 
ATOM     13  H   UNL     1       1.266   6.882  21.825  0.00  0.00    +0.000 HD
ENDROOT
BRANCH   8  14
ATOM     14  C   UNL     1      -0.312  10.585  19.807  0.00  0.00    +0.000 C 
ATOM     15  C   UNL     1      -0.220  11.587  20.994  0.00  0.00    +0.000 C 
ATOM     16  O   UNL     1      -0.433  12.959  20.716  0.00  0.00    +0.000 OA
ATOM     17  C   UNL     1       0.095  13.404  19.483  0.00  0.00    +0.000 C 
ATOM     18  O   UNL     1      -0.539  12.703  18.433  0.00  0.00    +0.000 OA
ATOM     19  C   UNL     1      -0.307  11.308  18.432  0.00  0.00    +0.000 C 
BRANCH  17  20
ATOM     20  C   UNL     1       1.655  13.584  19.403  0.00  0.00    +0.000 C 
ATOM     21  C   UNL     1       2.482  13.222  20.654  0.00  0.00    +0.000 C 
ATOM     22  C   UNL     1       2.201  12.725  18.243  0.00  0.00    +0.000 C 
ATOM     23  C   UNL     1       1.947  15.071  19.103  0.00  0.00    +0.000 C 
ENDBRANCH  17  20
ENDBRANCH   8  14
BRANCH   1  27
ATOM     24  C   UNL     1       5.582   4.623  14.982  0.00  0.00    +0.000 C 
ATOM     25  C   UNL     1       4.774   4.679  16.253  0.00  0.00    +0.000 C 
ATOM     26  O   UNL     1       4.346   3.657  16.772  0.00  0.00    +0.000 OA
ATOM     27  N   UNL     1       4.590   5.978  16.706  0.00  0.00    +0.000 N 
ATOM     28  H   UNL     1       4.866   6.723  16.077  0.00  0.00    +0.000 HD
ENDBRANCH   1  27
TORSDOF 3
ENDMDL
MODEL 8
REMARK VINA RESULT:      -6.8      6.490      9.067
REMARK  Name = 
REMARK  7 active torsions:
REMARK  status: ('A' for Active; 'I' for Inactive)
REMARK    1  A    between atoms: C_1  and  C_2
REMARK    2  A    between atoms: N_4  and  C_5
REMARK    3  A    between atoms: N_12  and  C_13
REMARK    4  A    between atoms: C_16  and  C_17
REMARK    5  A    between atoms: C_17  and  C_18
REMARK    6  A    between atoms: C_17  and  C_19
REMARK    7  A    between atoms: C_17  and  C_20
REMARK                            x       y       z     vdW  Elec       q    Type
REMARK                         _______ _______ _______ _____ _____    ______ ____
ROOT
ATOM      1  C   UNL     1       2.443   5.992  19.348  0.00  0.00    +0.000 A 
ATOM      2  C   UNL     1       1.874   5.945  20.624  0.00  0.00    +0.000 A 
ATOM      3  C   UNL     1       1.338   7.097  21.207  0.00  0.00    +0.000 A 
ATOM      4  C   UNL     1       1.337   8.291  20.497  0.00  0.00    +0.000 A 
ATOM      5  N   UNL     1       0.697   9.408  21.003  0.00  0.00    +0.000 N 
ATOM      6  C   UNL     1       0.542  10.579  20.324  0.00  0.00    +0.000 A 
ATOM      7  O   UNL     1      -0.230  11.408  20.796  0.00  0.00    +0.000 OA
ATOM      8  N   UNL     1       1.242  10.728  19.127  0.00  0.00    +0.000 N 
ATOM      9  C   UNL     1       1.754   9.599  18.468  0.00  0.00    +0.000 A 
ATOM     10  O   UNL     1       2.031   9.551  17.271  0.00  0.00    +0.000 OA
ATOM     11  C   UNL     1       1.904   8.353  19.237  0.00  0.00    +0.000 A 
ATOM     12  C   UNL     1       2.502   7.216  18.675  0.00  0.00    +0.000 A 
ATOM     13  H   UNL     1       0.199   9.358  21.884  0.00  0.00    +0.000 HD
ENDROOT
BRANCH   8  14
ATOM     14  C   UNL     1       1.056  12.009  18.347  0.00  0.00    +0.000 C 
ATOM     15  C   UNL     1      -0.102  12.902  18.876  0.00  0.00    +0.000 C 
ATOM     16  O   UNL     1       0.069  14.307  18.817  0.00  0.00    +0.000 OA
ATOM     17  C   UNL     1       1.379  14.757  19.094  0.00  0.00    +0.000 C 
ATOM     18  O   UNL     1       2.260  14.228  18.124  0.00  0.00    +0.000 OA
ATOM     19  C   UNL     1       2.365  12.818  18.131  0.00  0.00    +0.000 C 
BRANCH  17  20
ATOM     20  C   UNL     1       1.840  14.720  20.597  0.00  0.00    +0.000 C 
ATOM     21  C   UNL     1       2.761  13.562  21.033  0.00  0.00    +0.000 C 
ATOM     22  C   UNL     1       2.584  16.030  20.927  0.00  0.00    +0.000 C 
ATOM     23  C   UNL     1       0.575  14.627  21.479  0.00  0.00    +0.000 C 
ENDBRANCH  17  20
ENDBRANCH   8  14
BRANCH   1  27
ATOM     24  C   UNL     1       3.063   2.927  17.239  0.00  0.00    +0.000 C 
ATOM     25  C   UNL     1       2.232   4.062  17.781  0.00  0.00    +0.000 C 
ATOM     26  O   UNL     1       1.074   4.222  17.421  0.00  0.00    +0.000 OA
ATOM     27  N   UNL     1       2.937   4.852  18.679  0.00  0.00    +0.000 N 
ATOM     28  H   UNL     1       3.934   4.685  18.746  0.00  0.00    +0.000 HD
ENDBRANCH   1  27
TORSDOF 3
ENDMDL
MODEL 9
REMARK VINA RESULT:      -6.7      7.523      9.889
REMARK  Name = 
REMARK  7 active torsions:
REMARK  status: ('A' for Active; 'I' for Inactive)
REMARK    1  A    between atoms: C_1  and  C_2
REMARK    2  A    between atoms: N_4  and  C_5
REMARK    3  A    between atoms: N_12  and  C_13
REMARK    4  A    between atoms: C_16  and  C_17
REMARK    5  A    between atoms: C_17  and  C_18
REMARK    6  A    between atoms: C_17  and  C_19
REMARK    7  A    between atoms: C_17  and  C_20
REMARK                            x       y       z     vdW  Elec       q    Type
REMARK                         _______ _______ _______ _____ _____    ______ ____
ROOT
ATOM      1  C   UNL     1       1.856   7.589  19.917  0.00  0.00    +0.000 A 
ATOM      2  C   UNL     1       2.358   7.693  18.617  0.00  0.00    +0.000 A 
ATOM      3  C   UNL     1       2.297   8.906  17.924  0.00  0.00    +0.000 A 
ATOM      4  C   UNL     1       1.767  10.027  18.549  0.00  0.00    +0.000 A 
ATOM      5  N   UNL     1       1.815  11.264  17.929  0.00  0.00    +0.000 N 
ATOM      6  C   UNL     1       1.431  12.433  18.516  0.00  0.00    +0.000 A 
ATOM      7  O   UNL     1       1.730  13.476  17.943  0.00  0.00    +0.000 OA
ATOM      8  N   UNL     1       0.764  12.353  19.738  0.00  0.00    +0.000 N 
ATOM      9  C   UNL     1       0.838  11.178  20.502  0.00  0.00    +0.000 A 
ATOM     10  O   UNL     1       0.638  11.115  21.714  0.00  0.00    +0.000 OA
ATOM     11  C   UNL     1       1.259   9.936  19.832  0.00  0.00    +0.000 A 
ATOM     12  C   UNL     1       1.257   8.707  20.505  0.00  0.00    +0.000 A 
ATOM     13  H   UNL     1       2.263  11.367  17.027  0.00  0.00    +0.000 HD
ENDROOT
BRANCH   8  14
ATOM     14  C   UNL     1       0.360  13.642  20.415  0.00  0.00    +0.000 C 
ATOM     15  C   UNL     1      -0.887  14.320  19.778  0.00  0.00    +0.000 C 
ATOM     16  O   UNL     1      -1.787  14.990  20.642  0.00  0.00    +0.000 OA
ATOM     17  C   UNL     1      -1.990  14.361  21.891  0.00  0.00    +0.000 C 
ATOM     18  O   UNL     1      -0.761  14.316  22.586  0.00  0.00    +0.000 OA
ATOM     19  C   UNL     1       0.242  13.539  21.961  0.00  0.00    +0.000 C 
BRANCH  17  20
ATOM     20  C   UNL     1      -2.880  13.065  21.897  0.00  0.00    +0.000 C 
ATOM     21  C   UNL     1      -2.848  12.170  20.641  0.00  0.00    +0.000 C 
ATOM     22  C   UNL     1      -2.467  12.177  23.088  0.00  0.00    +0.000 C 
ATOM     23  C   UNL     1      -4.351  13.500  22.084  0.00  0.00    +0.000 C 
ENDBRANCH  17  20
ENDBRANCH   8  14
BRANCH   1  27
ATOM     24  C   UNL     1       2.051   4.089  21.308  0.00  0.00    +0.000 C 
ATOM     25  C   UNL     1       1.906   5.112  20.210  0.00  0.00    +0.000 C 
ATOM     26  O   UNL     1       1.778   4.769  19.044  0.00  0.00    +0.000 OA
ATOM     27  N   UNL     1       1.952   6.413  20.691  0.00  0.00    +0.000 N 
ATOM     28  H   UNL     1       2.227   6.531  21.660  0.00  0.00    +0.000 HD
ENDBRANCH   1  27
TORSDOF 3
ENDMDL
