MODEL 1
REMARK VINA RESULT:      -7.5      0.000      0.000
REMARK  Name = 
REMARK  7 active torsions:
REMARK  status: ('A' for Active; 'I' for Inactive)
REMARK    1  A    between atoms: C_2  and  C_3
REMARK    2  A    between atoms: C_3  and  S_4
REMARK    3  A    between atoms: S_4  and  C_5
REMARK    4  A    between atoms: N_11  and  C_12
REMARK    5  A    between atoms: N_16  and  C_17
REMARK    6  A    between atoms: C_17  and  C_18
REMARK    7  A    between atoms: C_18  and  C_19
REMARK                            x       y       z     vdW  Elec       q    Type
REMARK                         _______ _______ _______ _____ _____    ______ ____
ROOT
ATOM      1  C   UNL     1       5.242   5.789  17.340  0.00  0.00    +0.000 C 
ATOM      2  C   UNL     1       6.250   4.642  17.363  0.00  0.00    +0.000 C 
ATOM      3  C   UNL     1       7.430   5.298  18.043  0.00  0.00    +0.000 C 
ATOM      4  O   UNL     1       8.278   4.700  18.681  0.00  0.00    +0.000 OA
ATOM      5  N   UNL     1       7.356   6.669  17.802  0.00  0.00    +0.000 N 
ATOM      6  C   UNL     1       6.146   6.993  17.076  0.00  0.00    +0.000 C 
ENDROOT
BRANCH   1   9
ATOM      7  O   UNL     1       2.548   6.574  17.807  0.00  0.00    +0.000 OA
ATOM      8  C   UNL     1       3.248   6.280  18.772  0.00  0.00    +0.000 C 
ATOM      9  N   UNL     1       4.568   5.916  18.636  0.00  0.00    +0.000 N 
ATOM     10  H   UNL     1       5.038   5.554  19.462  0.00  0.00    +0.000 HD
BRANCH   8  11
ATOM     11  C   UNL     1       2.674   6.206  20.186  0.00  0.00    +0.000 C 
BRANCH  11  12
ATOM     12  S   UNL     1       1.415   4.890  20.363  0.00  0.00    +0.000 S 
BRANCH  12  13
ATOM     13  C   UNL     1       2.264   3.540  19.558  0.00  0.00    +0.000 A 
ATOM     14  C   UNL     1       1.853   3.064  18.316  0.00  0.00    +0.000 A 
ATOM     15  C   UNL     1       2.570   2.027  17.740  0.00  0.00    +0.000 A 
ATOM     16  N   UNL     1       3.649   1.453  18.313  0.00  0.00    +0.000 NA
ATOM     17  C   UNL     1       4.037   1.944  19.508  0.00  0.00    +0.000 A 
ATOM     18  C   UNL     1       3.388   2.979  20.161  0.00  0.00    +0.000 A 
ENDBRANCH  12  13
ENDBRANCH  11  12
ENDBRANCH   8  11
ENDBRANCH   1   9
BRANCH   5  19
ATOM     19  C   UNL     1       8.142   7.712  18.460  0.00  0.00    +0.000 C 
BRANCH  19  20
ATOM     20  C   UNL     1       8.084   9.100  17.813  0.00  0.00    +0.000 C 
BRANCH  20  21
ATOM     21  C   UNL     1       9.015  10.087  18.480  0.00  0.00    +0.000 A 
ATOM     22  C   UNL     1       9.069  10.168  19.879  0.00  0.00    +0.000 A 
ATOM     23  C   UNL     1       9.941  11.062  20.506  0.00  0.00    +0.000 A 
ATOM     24  C   UNL     1      10.762  11.886  19.741  0.00  0.00    +0.000 A 
ATOM     25  C   UNL     1      10.712  11.818  18.350  0.00  0.00    +0.000 A 
ATOM     26  C   UNL     1       9.841  10.926  17.720  0.00  0.00    +0.000 A 
ENDBRANCH  20  21
ENDBRANCH  19  20
ENDBRANCH   5  19
TORSDOF 7
ENDMDL
MODEL 2
REMARK VINA RESULT:      -7.5      4.507      6.993
REMARK  Name = 
REMARK  7 active torsions:
REMARK  status: ('A' for Active; 'I' for Inactive)
REMARK    1  A    between atoms: C_2  and  C_3
REMARK    2  A    between atoms: C_3  and  S_4
REMARK    3  A    between atoms: S_4  and  C_5
REMARK    4  A    between atoms: N_11  and  C_12
REMARK    5  A    between atoms: N_16  and  C_17
REMARK    6  A    between atoms: C_17  and  C_18
REMARK    7  A    between atoms: C_18  and  C_19
REMARK                            x       y       z     vdW  Elec       q    Type
REMARK                         _______ _______ _______ _____ _____    ______ ____
ROOT
ATOM      1  C   UNL     1       3.963   2.521  19.010  0.00  0.00    +0.000 C 
ATOM      2  C   UNL     1       2.849   1.590  18.539  0.00  0.00    +0.000 C 
ATOM      3  C   UNL     1       1.619   2.374  18.939  0.00  0.00    +0.000 C 
ATOM      4  O   UNL     1       0.533   2.279  18.395  0.00  0.00    +0.000 OA
ATOM      5  N   UNL     1       1.964   3.193  20.013  0.00  0.00    +0.000 N 
ATOM      6  C   UNL     1       3.378   3.078  20.307  0.00  0.00    +0.000 C 
ENDROOT
BRANCH   1   9
ATOM      7  O   UNL     1       6.153   4.336  18.935  0.00  0.00    +0.000 OA
ATOM      8  C   UNL     1       5.296   4.414  18.059  0.00  0.00    +0.000 C 
ATOM      9  N   UNL     1       4.193   3.594  18.036  0.00  0.00    +0.000 N 
ATOM     10  H   UNL     1       3.606   3.626  17.207  0.00  0.00    +0.000 HD
BRANCH   8  11
ATOM     11  C   UNL     1       5.446   5.369  16.875  0.00  0.00    +0.000 C 
BRANCH  11  12
ATOM     12  S   UNL     1       7.168   5.460  16.261  0.00  0.00    +0.000 S 
BRANCH  12  13
ATOM     13  C   UNL     1       6.942   4.810  14.613  0.00  0.00    +0.000 A 
ATOM     14  C   UNL     1       5.923   3.907  14.323  0.00  0.00    +0.000 A 
ATOM     15  C   UNL     1       5.794   3.458  13.019  0.00  0.00    +0.000 A 
ATOM     16  N   UNL     1       6.598   3.851  12.008  0.00  0.00    +0.000 NA
ATOM     17  C   UNL     1       7.566   4.740  12.311  0.00  0.00    +0.000 A 
ATOM     18  C   UNL     1       7.773   5.248  13.583  0.00  0.00    +0.000 A 
ENDBRANCH  12  13
ENDBRANCH  11  12
ENDBRANCH   8  11
ENDBRANCH   1   9
BRANCH   5  19
ATOM     19  C   UNL     1       1.166   4.288  20.565  0.00  0.00    +0.000 C 
BRANCH  19  20
ATOM     20  C   UNL     1       1.957   5.492  21.086  0.00  0.00    +0.000 C 
BRANCH  20  21
ATOM     21  C   UNL     1       1.934   6.658  20.123  0.00  0.00    +0.000 A 
ATOM     22  C   UNL     1       1.394   7.889  20.522  0.00  0.00    +0.000 A 
ATOM     23  C   UNL     1       1.386   8.979  19.648  0.00  0.00    +0.000 A 
ATOM     24  C   UNL     1       1.913   8.846  18.366  0.00  0.00    +0.000 A 
ATOM     25  C   UNL     1       2.447   7.626  17.956  0.00  0.00    +0.000 A 
ATOM     26  C   UNL     1       2.455   6.535  18.828  0.00  0.00    +0.000 A 
ENDBRANCH  20  21
ENDBRANCH  19  20
ENDBRANCH   5  19
TORSDOF 7
ENDMDL
MODEL 3
REMARK VINA RESULT:      -7.5      1.633      1.735
REMARK  Name = 
REMARK  7 active torsions:
REMARK  status: ('A' for Active; 'I' for Inactive)
REMARK    1  A    between atoms: C_2  and  C_3
REMARK    2  A    between atoms: C_3  and  S_4
REMARK    3  A    between atoms: S_4  and  C_5
REMARK    4  A    between atoms: N_11  and  C_12
REMARK    5  A    between atoms: N_16  and  C_17
REMARK    6  A    between atoms: C_17  and  C_18
REMARK    7  A    between atoms: C_18  and  C_19
REMARK                            x       y       z     vdW  Elec       q    Type
REMARK                         _______ _______ _______ _____ _____    ______ ____
ROOT
ATOM      1  C   UNL     1       6.537   5.881  16.946  0.00  0.00    +0.000 C 
ATOM      2  C   UNL     1       7.063   4.871  17.962  0.00  0.00    +0.000 C 
ATOM      3  C   UNL     1       7.654   5.784  19.012  0.00  0.00    +0.000 C 
ATOM      4  O   UNL     1       7.779   5.494  20.188  0.00  0.00    +0.000 OA
ATOM      5  N   UNL     1       8.013   6.978  18.388  0.00  0.00    +0.000 N 
ATOM      6  C   UNL     1       7.617   6.962  16.994  0.00  0.00    +0.000 C 
ENDROOT
BRANCH   1   9
ATOM      7  O   UNL     1       3.998   4.615  16.734  0.00  0.00    +0.000 OA
ATOM      8  C   UNL     1       4.058   5.727  17.251  0.00  0.00    +0.000 C 
ATOM      9  N   UNL     1       5.240   6.419  17.369  0.00  0.00    +0.000 N 
ATOM     10  H   UNL     1       5.230   7.266  17.931  0.00  0.00    +0.000 HD
BRANCH   8  11
ATOM     11  C   UNL     1       2.832   6.380  17.889  0.00  0.00    +0.000 C 
BRANCH  11  12
ATOM     12  S   UNL     1       2.928   6.417  19.716  0.00  0.00    +0.000 S 
BRANCH  12  13
ATOM     13  C   UNL     1       2.195   4.834  20.096  0.00  0.00    +0.000 A 
ATOM     14  C   UNL     1       1.462   4.128  19.145  0.00  0.00    +0.000 A 
ATOM     15  C   UNL     1       0.938   2.896  19.502  0.00  0.00    +0.000 A 
ATOM     16  N   UNL     1       1.100   2.336  20.720  0.00  0.00    +0.000 NA
ATOM     17  C   UNL     1       1.828   3.032  21.617  0.00  0.00    +0.000 A 
ATOM     18  C   UNL     1       2.396   4.268  21.354  0.00  0.00    +0.000 A 
ENDBRANCH  12  13
ENDBRANCH  11  12
ENDBRANCH   8  11
ENDBRANCH   1   9
BRANCH   5  19
ATOM     19  C   UNL     1       8.395   8.226  19.049  0.00  0.00    +0.000 C 
BRANCH  19  20
ATOM     20  C   UNL     1       8.489   9.458  18.144  0.00  0.00    +0.000 C 
BRANCH  20  21
ATOM     21  C   UNL     1       9.429  10.508  18.694  0.00  0.00    +0.000 A 
ATOM     22  C   UNL     1       9.463  10.768  20.072  0.00  0.00    +0.000 A 
ATOM     23  C   UNL     1      10.341  11.720  20.595  0.00  0.00    +0.000 A 
ATOM     24  C   UNL     1      11.189  12.425  19.744  0.00  0.00    +0.000 A 
ATOM     25  C   UNL     1      11.159  12.180  18.373  0.00  0.00    +0.000 A 
ATOM     26  C   UNL     1      10.282  11.228  17.848  0.00  0.00    +0.000 A 
ENDBRANCH  20  21
ENDBRANCH  19  20
ENDBRANCH   5  19
TORSDOF 7
ENDMDL
MODEL 4
REMARK VINA RESULT:      -7.2      4.462      6.978
REMARK  Name = 
REMARK  7 active torsions:
REMARK  status: ('A' for Active; 'I' for Inactive)
REMARK    1  A    between atoms: C_2  and  C_3
REMARK    2  A    between atoms: C_3  and  S_4
REMARK    3  A    between atoms: S_4  and  C_5
REMARK    4  A    between atoms: N_11  and  C_12
REMARK    5  A    between atoms: N_16  and  C_17
REMARK    6  A    between atoms: C_17  and  C_18
REMARK    7  A    between atoms: C_18  and  C_19
REMARK                            x       y       z     vdW  Elec       q    Type
REMARK                         _______ _______ _______ _____ _____    ______ ____
ROOT
ATOM      1  C   UNL     1       4.027   2.502  18.917  0.00  0.00    +0.000 C 
ATOM      2  C   UNL     1       2.867   1.606  18.490  0.00  0.00    +0.000 C 
ATOM      3  C   UNL     1       1.678   2.455  18.876  0.00  0.00    +0.000 C 
ATOM      4  O   UNL     1       0.582   2.390  18.346  0.00  0.00    +0.000 OA
ATOM      5  N   UNL     1       2.069   3.294  19.918  0.00  0.00    +0.000 N 
ATOM      6  C   UNL     1       3.481   3.128  20.200  0.00  0.00    +0.000 C 
ENDROOT
BRANCH   1   9
ATOM      7  O   UNL     1       5.681   4.801  19.193  0.00  0.00    +0.000 OA
ATOM      8  C   UNL     1       5.128   4.602  18.114  0.00  0.00    +0.000 C 
ATOM      9  N   UNL     1       4.291   3.531  17.906  0.00  0.00    +0.000 N 
ATOM     10  H   UNL     1       3.985   3.358  16.952  0.00  0.00    +0.000 HD
BRANCH   8  11
ATOM     11  C   UNL     1       5.407   5.482  16.897  0.00  0.00    +0.000 C 
BRANCH  11  12
ATOM     12  S   UNL     1       7.159   5.418  16.373  0.00  0.00    +0.000 S 
BRANCH  12  13
ATOM     13  C   UNL     1       6.958   4.863  14.687  0.00  0.00    +0.000 A 
ATOM     14  C   UNL     1       7.786   5.325  13.668  0.00  0.00    +0.000 A 
ATOM     15  C   UNL     1       7.586   4.837  12.387  0.00  0.00    +0.000 A 
ATOM     16  N   UNL     1       6.635   3.933  12.069  0.00  0.00    +0.000 NA
ATOM     17  C   UNL     1       5.858   3.487  13.078  0.00  0.00    +0.000 A 
ATOM     18  C   UNL     1       5.982   3.912  14.390  0.00  0.00    +0.000 A 
ENDBRANCH  12  13
ENDBRANCH  11  12
ENDBRANCH   8  11
ENDBRANCH   1   9
BRANCH   5  19
ATOM     19  C   UNL     1       1.327   4.441  20.439  0.00  0.00    +0.000 C 
BRANCH  19  20
ATOM     20  C   UNL     1       2.175   5.617  20.934  0.00  0.00    +0.000 C 
BRANCH  20  21
ATOM     21  C   UNL     1       2.010   6.850  20.074  0.00  0.00    +0.000 A 
ATOM     22  C   UNL     1       2.449   6.842  18.742  0.00  0.00    +0.000 A 
ATOM     23  C   UNL     1       2.283   7.968  17.932  0.00  0.00    +0.000 A 
ATOM     24  C   UNL     1       1.681   9.113  18.448  0.00  0.00    +0.000 A 
ATOM     25  C   UNL     1       1.247   9.135  19.771  0.00  0.00    +0.000 A 
ATOM     26  C   UNL     1       1.412   8.010  20.583  0.00  0.00    +0.000 A 
ENDBRANCH  20  21
ENDBRANCH  19  20
ENDBRANCH   5  19
TORSDOF 7
ENDMDL
MODEL 5
REMARK VINA RESULT:      -7.2      4.334      6.682
REMARK  Name = 
REMARK  7 active torsions:
REMARK  status: ('A' for Active; 'I' for Inactive)
REMARK    1  A    between atoms: C_2  and  C_3
REMARK    2  A    between atoms: C_3  and  S_4
REMARK    3  A    between atoms: S_4  and  C_5
REMARK    4  A    between atoms: N_11  and  C_12
REMARK    5  A    between atoms: N_16  and  C_17
REMARK    6  A    between atoms: C_17  and  C_18
REMARK    7  A    between atoms: C_18  and  C_19
REMARK                            x       y       z     vdW  Elec       q    Type
REMARK                         _______ _______ _______ _____ _____    ______ ____
ROOT
ATOM      1  C   UNL     1       4.648   3.345  19.509  0.00  0.00    +0.000 C 
ATOM      2  C   UNL     1       3.715   2.190  19.156  0.00  0.00    +0.000 C 
ATOM      3  C   UNL     1       2.644   2.905  18.365  0.00  0.00    +0.000 C 
ATOM      4  O   UNL     1       1.950   2.381  17.512  0.00  0.00    +0.000 OA
ATOM      5  N   UNL     1       2.610   4.232  18.791  0.00  0.00    +0.000 N 
ATOM      6  C   UNL     1       3.658   4.481  19.761  0.00  0.00    +0.000 C 
ENDROOT
BRANCH   1   9
ATOM      7  O   UNL     1       6.920   5.059  19.538  0.00  0.00    +0.000 OA
ATOM      8  C   UNL     1       6.630   4.486  18.491  0.00  0.00    +0.000 C 
ATOM      9  N   UNL     1       5.534   3.662  18.384  0.00  0.00    +0.000 N 
ATOM     10  H   UNL     1       5.442   3.119  17.530  0.00  0.00    +0.000 HD
BRANCH   8  11
ATOM     11  C   UNL     1       7.525   4.575  17.256  0.00  0.00    +0.000 C 
BRANCH  11  12
ATOM     12  S   UNL     1       7.072   5.970  16.161  0.00  0.00    +0.000 S 
BRANCH  12  13
ATOM     13  C   UNL     1       6.819   5.090  14.628  0.00  0.00    +0.000 A 
ATOM     14  C   UNL     1       7.706   5.220  13.563  0.00  0.00    +0.000 A 
ATOM     15  C   UNL     1       7.459   4.492  12.410  0.00  0.00    +0.000 A 
ATOM     16  N   UNL     1       6.407   3.659  12.260  0.00  0.00    +0.000 NA
ATOM     17  C   UNL     1       5.572   3.538  13.313  0.00  0.00    +0.000 A 
ATOM     18  C   UNL     1       5.737   4.220  14.507  0.00  0.00    +0.000 A 
ENDBRANCH  12  13
ENDBRANCH  11  12
ENDBRANCH   8  11
ENDBRANCH   1   9
BRANCH   5  19
ATOM     19  C   UNL     1       1.904   5.337  18.144  0.00  0.00    +0.000 C 
BRANCH  19  20
ATOM     20  C   UNL     1       2.721   6.616  17.930  0.00  0.00    +0.000 C 
BRANCH  20  21
ATOM     21  C   UNL     1       2.076   7.826  18.568  0.00  0.00    +0.000 A 
ATOM     22  C   UNL     1       1.729   7.803  19.927  0.00  0.00    +0.000 A 
ATOM     23  C   UNL     1       1.152   8.921  20.533  0.00  0.00    +0.000 A 
ATOM     24  C   UNL     1       0.912  10.071  19.785  0.00  0.00    +0.000 A 
ATOM     25  C   UNL     1       1.246  10.103  18.433  0.00  0.00    +0.000 A 
ATOM     26  C   UNL     1       1.824   8.986  17.825  0.00  0.00    +0.000 A 
ENDBRANCH  20  21
ENDBRANCH  19  20
ENDBRANCH   5  19
TORSDOF 7
ENDMDL
MODEL 6
REMARK VINA RESULT:      -7.2      1.775      2.275
REMARK  Name = 
REMARK  7 active torsions:
REMARK  status: ('A' for Active; 'I' for Inactive)
REMARK    1  A    between atoms: C_2  and  C_3
REMARK    2  A    between atoms: C_3  and  S_4
REMARK    3  A    between atoms: S_4  and  C_5
REMARK    4  A    between atoms: N_11  and  C_12
REMARK    5  A    between atoms: N_16  and  C_17
REMARK    6  A    between atoms: C_17  and  C_18
REMARK    7  A    between atoms: C_18  and  C_19
REMARK                            x       y       z     vdW  Elec       q    Type
REMARK                         _______ _______ _______ _____ _____    ______ ____
ROOT
ATOM      1  C   UNL     1       6.642   5.655  16.830  0.00  0.00    +0.000 C 
ATOM      2  C   UNL     1       7.227   4.713  17.879  0.00  0.00    +0.000 C 
ATOM      3  C   UNL     1       7.734   5.695  18.910  0.00  0.00    +0.000 C 
ATOM      4  O   UNL     1       7.865   5.446  20.096  0.00  0.00    +0.000 OA
ATOM      5  N   UNL     1       8.013   6.895  18.258  0.00  0.00    +0.000 N 
ATOM      6  C   UNL     1       7.638   6.813  16.861  0.00  0.00    +0.000 C 
ENDROOT
BRANCH   1   9
ATOM      7  O   UNL     1       4.234   4.139  16.789  0.00  0.00    +0.000 OA
ATOM      8  C   UNL     1       4.191   5.297  17.196  0.00  0.00    +0.000 C 
ATOM      9  N   UNL     1       5.303   6.106  17.223  0.00  0.00    +0.000 N 
ATOM     10  H   UNL     1       5.217   7.000  17.701  0.00  0.00    +0.000 HD
BRANCH   8  11
ATOM     11  C   UNL     1       2.914   5.891  17.790  0.00  0.00    +0.000 C 
BRANCH  11  12
ATOM     12  S   UNL     1       1.532   4.693  17.819  0.00  0.00    +0.000 S 
BRANCH  12  13
ATOM     13  C   UNL     1       1.716   4.049  19.475  0.00  0.00    +0.000 A 
ATOM     14  C   UNL     1       2.291   4.811  20.489  0.00  0.00    +0.000 A 
ATOM     15  C   UNL     1       2.385   4.256  21.755  0.00  0.00    +0.000 A 
ATOM     16  N   UNL     1       1.946   3.017  22.065  0.00  0.00    +0.000 NA
ATOM     17  C   UNL     1       1.377   2.307  21.069  0.00  0.00    +0.000 A 
ATOM     18  C   UNL     1       1.235   2.775  19.774  0.00  0.00    +0.000 A 
ENDBRANCH  12  13
ENDBRANCH  11  12
ENDBRANCH   8  11
ENDBRANCH   1   9
BRANCH   5  19
ATOM     19  C   UNL     1       8.293   8.185  18.889  0.00  0.00    +0.000 C 
BRANCH  19  20
ATOM     20  C   UNL     1       8.376   9.386  17.942  0.00  0.00    +0.000 C 
BRANCH  20  21
ATOM     21  C   UNL     1       9.024  10.589  18.591  0.00  0.00    +0.000 A 
ATOM     22  C   UNL     1       9.143  11.792  17.881  0.00  0.00    +0.000 A 
ATOM     23  C   UNL     1       9.721  12.916  18.477  0.00  0.00    +0.000 A 
ATOM     24  C   UNL     1      10.189  12.845  19.786  0.00  0.00    +0.000 A 
ATOM     25  C   UNL     1      10.083  11.653  20.499  0.00  0.00    +0.000 A 
ATOM     26  C   UNL     1       9.506  10.528  19.905  0.00  0.00    +0.000 A 
ENDBRANCH  20  21
ENDBRANCH  19  20
ENDBRANCH   5  19
TORSDOF 7
ENDMDL
MODEL 7
REMARK VINA RESULT:      -7.2      2.562      4.111
REMARK  Name = 
REMARK  7 active torsions:
REMARK  status: ('A' for Active; 'I' for Inactive)
REMARK    1  A    between atoms: C_2  and  C_3
REMARK    2  A    between atoms: C_3  and  S_4
REMARK    3  A    between atoms: S_4  and  C_5
REMARK    4  A    between atoms: N_11  and  C_12
REMARK    5  A    between atoms: N_16  and  C_17
REMARK    6  A    between atoms: C_17  and  C_18
REMARK    7  A    between atoms: C_18  and  C_19
REMARK                            x       y       z     vdW  Elec       q    Type
REMARK                         _______ _______ _______ _____ _____    ______ ____
ROOT
ATOM      1  C   UNL     1       5.873   5.698  17.221  0.00  0.00    +0.000 C 
ATOM      2  C   UNL     1       6.523   4.682  18.157  0.00  0.00    +0.000 C 
ATOM      3  C   UNL     1       7.426   5.573  18.980  0.00  0.00    +0.000 C 
ATOM      4  O   UNL     1       7.794   5.323  20.114  0.00  0.00    +0.000 OA
ATOM      5  N   UNL     1       7.742   6.691  18.210  0.00  0.00    +0.000 N 
ATOM      6  C   UNL     1       7.032   6.656  16.948  0.00  0.00    +0.000 C 
ENDROOT
BRANCH   1   9
ATOM      7  O   UNL     1       3.174   4.824  17.437  0.00  0.00    +0.000 OA
ATOM      8  C   UNL     1       3.491   5.884  17.969  0.00  0.00    +0.000 C 
ATOM      9  N   UNL     1       4.767   6.391  17.890  0.00  0.00    +0.000 N 
ATOM     10  H   UNL     1       4.985   7.197  18.470  0.00  0.00    +0.000 HD
BRANCH   8  11
ATOM     11  C   UNL     1       2.511   6.669  18.840  0.00  0.00    +0.000 C 
BRANCH  11  12
ATOM     12  S   UNL     1       2.082   8.296  18.120  0.00  0.00    +0.000 S 
BRANCH  12  13
ATOM     13  C   UNL     1       1.469   9.126  19.578  0.00  0.00    +0.000 A 
ATOM     14  C   UNL     1       0.988  10.432  19.520  0.00  0.00    +0.000 A 
ATOM     15  C   UNL     1       0.510  11.008  20.685  0.00  0.00    +0.000 A 
ATOM     16  N   UNL     1       0.478  10.374  21.877  0.00  0.00    +0.000 NA
ATOM     17  C   UNL     1       0.933   9.105  21.903  0.00  0.00    +0.000 A 
ATOM     18  C   UNL     1       1.427   8.442  20.791  0.00  0.00    +0.000 A 
ENDBRANCH  12  13
ENDBRANCH  11  12
ENDBRANCH   8  11
ENDBRANCH   1   9
BRANCH   5  19
ATOM     19  C   UNL     1       8.384   7.919  18.680  0.00  0.00    +0.000 C 
BRANCH  19  20
ATOM     20  C   UNL     1       8.171   9.159  17.806  0.00  0.00    +0.000 C 
BRANCH  20  21
ATOM     21  C   UNL     1       8.795  10.400  18.404  0.00  0.00    +0.000 A 
ATOM     22  C   UNL     1       9.518  10.315  19.603  0.00  0.00    +0.000 A 
ATOM     23  C   UNL     1      10.116  11.451  20.155  0.00  0.00    +0.000 A 
ATOM     24  C   UNL     1       9.992  12.682  19.515  0.00  0.00    +0.000 A 
ATOM     25  C   UNL     1       9.271  12.780  18.328  0.00  0.00    +0.000 A 
ATOM     26  C   UNL     1       8.671  11.645  17.774  0.00  0.00    +0.000 A 
ENDBRANCH  20  21
ENDBRANCH  19  20
ENDBRANCH   5  19
TORSDOF 7
ENDMDL
MODEL 8
REMARK VINA RESULT:      -7.2      1.259      1.822
REMARK  Name = 
REMARK  7 active torsions:
REMARK  status: ('A' for Active; 'I' for Inactive)
REMARK    1  A    between atoms: C_2  and  C_3
REMARK    2  A    between atoms: C_3  and  S_4
REMARK    3  A    between atoms: S_4  and  C_5
REMARK    4  A    between atoms: N_11  and  C_12
REMARK    5  A    between atoms: N_16  and  C_17
REMARK    6  A    between atoms: C_17  and  C_18
REMARK    7  A    between atoms: C_18  and  C_19
REMARK                            x       y       z     vdW  Elec       q    Type
REMARK                         _______ _______ _______ _____ _____    ______ ____
ROOT
ATOM      1  C   UNL     1       6.362   5.901  17.154  0.00  0.00    +0.000 C 
ATOM      2  C   UNL     1       6.904   4.886  18.157  0.00  0.00    +0.000 C 
ATOM      3  C   UNL     1       7.655   5.785  19.112  0.00  0.00    +0.000 C 
ATOM      4  O   UNL     1       7.867   5.524  20.283  0.00  0.00    +0.000 OA
ATOM      5  N   UNL     1       8.042   6.926  18.412  0.00  0.00    +0.000 N 
ATOM      6  C   UNL     1       7.518   6.896  17.061  0.00  0.00    +0.000 C 
ENDROOT
BRANCH   1   9
ATOM      7  O   UNL     1       3.676   4.996  16.892  0.00  0.00    +0.000 OA
ATOM      8  C   UNL     1       3.889   6.030  17.520  0.00  0.00    +0.000 C 
ATOM      9  N   UNL     1       5.153   6.551  17.670  0.00  0.00    +0.000 N 
ATOM     10  H   UNL     1       5.262   7.328  18.317  0.00  0.00    +0.000 HD
BRANCH   8  11
ATOM     11  C   UNL     1       2.769   6.762  18.259  0.00  0.00    +0.000 C 
BRANCH  11  12
ATOM     12  S   UNL     1       2.569   6.177  19.982  0.00  0.00    +0.000 S 
BRANCH  12  13
ATOM     13  C   UNL     1       2.382   4.424  19.693  0.00  0.00    +0.000 A 
ATOM     14  C   UNL     1       3.422   3.534  19.948  0.00  0.00    +0.000 A 
ATOM     15  C   UNL     1       3.202   2.185  19.720  0.00  0.00    +0.000 A 
ATOM     16  N   UNL     1       2.034   1.682  19.268  0.00  0.00    +0.000 NA
ATOM     17  C   UNL     1       1.037   2.563  19.046  0.00  0.00    +0.000 A 
ATOM     18  C   UNL     1       1.159   3.928  19.247  0.00  0.00    +0.000 A 
ENDBRANCH  12  13
ENDBRANCH  11  12
ENDBRANCH   8  11
ENDBRANCH   1   9
BRANCH   5  19
ATOM     19  C   UNL     1       8.574   8.162  18.985  0.00  0.00    +0.000 C 
BRANCH  19  20
ATOM     20  C   UNL     1       8.453   9.412  18.108  0.00  0.00    +0.000 C 
BRANCH  20  21
ATOM     21  C   UNL     1       9.139  10.614  18.717  0.00  0.00    +0.000 A 
ATOM     22  C   UNL     1       9.329  11.776  17.954  0.00  0.00    +0.000 A 
ATOM     23  C   UNL     1       9.944  12.900  18.512  0.00  0.00    +0.000 A 
ATOM     24  C   UNL     1      10.379  12.870  19.835  0.00  0.00    +0.000 A 
ATOM     25  C   UNL     1      10.202  11.719  20.599  0.00  0.00    +0.000 A 
ATOM     26  C   UNL     1       9.588  10.594  20.044  0.00  0.00    +0.000 A 
ENDBRANCH  20  21
ENDBRANCH  19  20
ENDBRANCH   5  19
TORSDOF 7
ENDMDL
MODEL 9
REMARK VINA RESULT:      -7.2      1.443      1.761
REMARK  Name = 
REMARK  7 active torsions:
REMARK  status: ('A' for Active; 'I' for Inactive)
REMARK    1  A    between atoms: C_2  and  C_3
REMARK    2  A    between atoms: C_3  and  S_4
REMARK    3  A    between atoms: S_4  and  C_5
REMARK    4  A    between atoms: N_11  and  C_12
REMARK    5  A    between atoms: N_16  and  C_17
REMARK    6  A    between atoms: C_17  and  C_18
REMARK    7  A    between atoms: C_18  and  C_19
REMARK                            x       y       z     vdW  Elec       q    Type
REMARK                         _______ _______ _______ _____ _____    ______ ____
ROOT
ATOM      1  C   UNL     1       6.403   5.320  16.943  0.00  0.00    +0.000 C 
ATOM      2  C   UNL     1       7.404   4.445  17.692  0.00  0.00    +0.000 C 
ATOM      3  C   UNL     1       8.015   5.444  18.647  0.00  0.00    +0.000 C 
ATOM      4  O   UNL     1       8.513   5.157  19.722  0.00  0.00    +0.000 OA
ATOM      5  N   UNL     1       7.900   6.710  18.075  0.00  0.00    +0.000 N 
ATOM      6  C   UNL     1       7.165   6.639  16.828  0.00  0.00    +0.000 C 
ENDROOT
BRANCH   1   9
ATOM      7  O   UNL     1       4.272   7.133  16.421  0.00  0.00    +0.000 OA
ATOM      8  C   UNL     1       4.178   6.379  17.387  0.00  0.00    +0.000 C 
ATOM      9  N   UNL     1       5.174   5.492  17.725  0.00  0.00    +0.000 N 
ATOM     10  H   UNL     1       4.963   4.810  18.449  0.00  0.00    +0.000 HD
BRANCH   8  11
ATOM     11  C   UNL     1       2.904   6.309  18.227  0.00  0.00    +0.000 C 
BRANCH  11  12
ATOM     12  S   UNL     1       1.939   4.786  17.911  0.00  0.00    +0.000 S 
BRANCH  12  13
ATOM     13  C   UNL     1       2.280   3.887  19.417  0.00  0.00    +0.000 A 
ATOM     14  C   UNL     1       3.448   3.145  19.569  0.00  0.00    +0.000 A 
ATOM     15  C   UNL     1       3.657   2.488  20.771  0.00  0.00    +0.000 A 
ATOM     16  N   UNL     1       2.794   2.530  21.808  0.00  0.00    +0.000 NA
ATOM     17  C   UNL     1       1.678   3.271  21.642  0.00  0.00    +0.000 A 
ATOM     18  C   UNL     1       1.383   3.965  20.480  0.00  0.00    +0.000 A 
ENDBRANCH  12  13
ENDBRANCH  11  12
ENDBRANCH   8  11
ENDBRANCH   1   9
BRANCH   5  19
ATOM     19  C   UNL     1       8.133   7.992  18.740  0.00  0.00    +0.000 C 
BRANCH  19  20
ATOM     20  C   UNL     1       8.190   9.219  17.824  0.00  0.00    +0.000 C 
BRANCH  20  21
ATOM     21  C   UNL     1       8.864  10.400  18.483  0.00  0.00    +0.000 A 
ATOM     22  C   UNL     1       9.485  10.249  19.732  0.00  0.00    +0.000 A 
ATOM     23  C   UNL     1      10.129  11.328  20.342  0.00  0.00    +0.000 A 
ATOM     24  C   UNL     1      10.154  12.570  19.711  0.00  0.00    +0.000 A 
ATOM     25  C   UNL     1       9.535  12.734  18.474  0.00  0.00    +0.000 A 
ATOM     26  C   UNL     1       8.890  11.656  17.862  0.00  0.00    +0.000 A 
ENDBRANCH  20  21
ENDBRANCH  19  20
ENDBRANCH   5  19
TORSDOF 7
ENDMDL
