MODEL 1
REMARK VINA RESULT:      -8.3      0.000      0.000
REMARK  Name = 
REMARK  7 active torsions:
REMARK  status: ('A' for Active; 'I' for Inactive)
REMARK    1  A    between atoms: C_1  and  C_2
REMARK    2  A    between atoms: C_2  and  C_3
REMARK    3  A    between atoms: N_5  and  C_6
REMARK    4  A    between atoms: C_6  and  C_7
REMARK    5  A    between atoms: C_11  and  C_12
REMARK    6  A    between atoms: C_22  and  O_23
REMARK    7  A    between atoms: O_23  and  C_24
REMARK                            x       y       z     vdW  Elec       q    Type
REMARK                         _______ _______ _______ _____ _____    ______ ____
ROOT
ATOM      1  C   UNL     1       7.060   6.316  17.621  0.00  0.00    +0.000 C 
ATOM      2  C   UNL     1       6.101   5.589  18.592  0.00  0.00    +0.000 C 
ATOM      3  N   UNL     1       4.950   4.914  17.969  0.00  0.00    +0.000 NA
ATOM      4  C   UNL     1       5.432   3.706  17.265  0.00  0.00    +0.000 C 
ATOM      5  C   UNL     1       6.012   4.000  15.906  0.00  0.00    +0.000 A 
ATOM      6  C   UNL     1       5.383   3.444  14.778  0.00  0.00    +0.000 A 
ATOM      7  C   UNL     1       5.743   3.838  13.493  0.00  0.00    +0.000 A 
ATOM      8  C   UNL     1       6.764   4.779  13.336  0.00  0.00    +0.000 A 
ATOM      9  C   UNL     1       7.443   5.291  14.449  0.00  0.00    +0.000 A 
ATOM     10  C   UNL     1       7.068   4.903  15.734  0.00  0.00    +0.000 A 
ATOM     11  O   UNL     1       7.791   5.389  16.793  0.00  0.00    +0.000 OA
ENDROOT
BRANCH   1  13
ATOM     12  C   UNL     1       8.201   8.560  17.999  0.00  0.00    +0.000 C 
ATOM     13  C   UNL     1       8.070   7.117  18.461  0.00  0.00    +0.000 C 
ENDBRANCH   1  13
BRANCH   7  14
ATOM     14  O   UNL     1       5.159   3.396  12.337  0.00  0.00    +0.000 OA
ATOM     15  C   UNL     1       5.786   2.293  11.686  0.00  0.00    +0.000 C 
ENDBRANCH   7  14
BRANCH   3  16
ATOM     16  C   UNL     1       4.151   5.788  17.082  0.00  0.00    +0.000 C 
BRANCH  16  17
ATOM     17  C   UNL     1       3.309   6.774  17.827  0.00  0.00    +0.000 A 
ATOM     18  C   UNL     1       3.156   8.113  17.511  0.00  0.00    +0.000 A 
ATOM     19  N   UNL     1       2.296   8.630  18.427  0.00  0.00    +0.000 N 
ATOM     20  N   UNL     1       1.850   7.727  19.308  0.00  0.00    +0.000 NA
ATOM     21  C   UNL     1       2.432   6.570  18.942  0.00  0.00    +0.000 A 
ATOM     22  H   UNL     1       1.954   9.587  18.504  0.00  0.00    +0.000 HD
BRANCH  21  23
ATOM     23  C   UNL     1       2.125   5.330  19.658  0.00  0.00    +0.000 A 
ATOM     24  C   UNL     1       1.395   4.292  19.058  0.00  0.00    +0.000 A 
ATOM     25  C   UNL     1       1.133   3.108  19.735  0.00  0.00    +0.000 A 
ATOM     26  C   UNL     1       1.570   2.966  21.041  0.00  0.00    +0.000 A 
ATOM     27  F   UNL     1       1.306   1.833  21.700  0.00  0.00    +0.000 F 
ATOM     28  C   UNL     1       2.265   3.986  21.678  0.00  0.00    +0.000 A 
ATOM     29  C   UNL     1       2.544   5.162  20.989  0.00  0.00    +0.000 A 
ENDBRANCH  21  23
ENDBRANCH  16  17
ENDBRANCH   3  16
TORSDOF 5
ENDMDL
MODEL 2
REMARK VINA RESULT:      -7.9      0.523      1.181
REMARK  Name = 
REMARK  7 active torsions:
REMARK  status: ('A' for Active; 'I' for Inactive)
REMARK    1  A    between atoms: C_1  and  C_2
REMARK    2  A    between atoms: C_2  and  C_3
REMARK    3  A    between atoms: N_5  and  C_6
REMARK    4  A    between atoms: C_6  and  C_7
REMARK    5  A    between atoms: C_11  and  C_12
REMARK    6  A    between atoms: C_22  and  O_23
REMARK    7  A    between atoms: O_23  and  C_24
REMARK                            x       y       z     vdW  Elec       q    Type
REMARK                         _______ _______ _______ _____ _____    ______ ____
ROOT
ATOM      1  C   UNL     1       7.014   5.877  17.926  0.00  0.00    +0.000 C 
ATOM      2  C   UNL     1       5.880   5.243  18.764  0.00  0.00    +0.000 C 
ATOM      3  N   UNL     1       4.699   4.797  18.007  0.00  0.00    +0.000 NA
ATOM      4  C   UNL     1       5.053   3.581  17.245  0.00  0.00    +0.000 C 
ATOM      5  C   UNL     1       5.782   3.873  15.959  0.00  0.00    +0.000 A 
ATOM      6  C   UNL     1       5.173   3.500  14.748  0.00  0.00    +0.000 A 
ATOM      7  C   UNL     1       5.694   3.921  13.528  0.00  0.00    +0.000 A 
ATOM      8  C   UNL     1       6.853   4.701  13.521  0.00  0.00    +0.000 A 
ATOM      9  C   UNL     1       7.505   5.025  14.718  0.00  0.00    +0.000 A 
ATOM     10  C   UNL     1       6.971   4.612  15.938  0.00  0.00    +0.000 A 
ATOM     11  O   UNL     1       7.667   4.908  17.081  0.00  0.00    +0.000 OA
ENDROOT
BRANCH   1  13
ATOM     12  C   UNL     1       8.286   5.562  20.109  0.00  0.00    +0.000 C 
ATOM     13  C   UNL     1       8.059   6.454  18.898  0.00  0.00    +0.000 C 
ENDBRANCH   1  13
BRANCH   7  14
ATOM     14  O   UNL     1       5.150   3.654  12.301  0.00  0.00    +0.000 OA
ATOM     15  C   UNL     1       5.510   2.414  11.699  0.00  0.00    +0.000 C 
ENDBRANCH   7  14
BRANCH   3  16
ATOM     16  C   UNL     1       4.115   5.843  17.138  0.00  0.00    +0.000 C 
BRANCH  16  17
ATOM     17  C   UNL     1       3.261   6.819  17.880  0.00  0.00    +0.000 A 
ATOM     18  C   UNL     1       3.084   8.154  17.557  0.00  0.00    +0.000 A 
ATOM     19  N   UNL     1       2.221   8.663  18.474  0.00  0.00    +0.000 N 
ATOM     20  N   UNL     1       1.794   7.759  19.363  0.00  0.00    +0.000 NA
ATOM     21  C   UNL     1       2.393   6.609  19.001  0.00  0.00    +0.000 A 
ATOM     22  H   UNL     1       1.863   9.614  18.546  0.00  0.00    +0.000 HD
BRANCH  21  23
ATOM     23  C   UNL     1       2.110   5.368  19.727  0.00  0.00    +0.000 A 
ATOM     24  C   UNL     1       2.597   5.144  21.024  0.00  0.00    +0.000 A 
ATOM     25  C   UNL     1       2.300   3.977  21.716  0.00  0.00    +0.000 A 
ATOM     26  C   UNL     1       1.538   3.001  21.097  0.00  0.00    +0.000 A 
ATOM     27  F   UNL     1       1.263   1.871  21.756  0.00  0.00    +0.000 F 
ATOM     28  C   UNL     1       1.067   3.174  19.802  0.00  0.00    +0.000 A 
ATOM     29  C   UNL     1       1.349   4.354  19.121  0.00  0.00    +0.000 A 
ENDBRANCH  21  23
ENDBRANCH  16  17
ENDBRANCH   3  16
TORSDOF 5
ENDMDL
MODEL 3
REMARK VINA RESULT:      -7.7      8.221     11.052
REMARK  Name = 
REMARK  7 active torsions:
REMARK  status: ('A' for Active; 'I' for Inactive)
REMARK    1  A    between atoms: C_1  and  C_2
REMARK    2  A    between atoms: C_2  and  C_3
REMARK    3  A    between atoms: N_5  and  C_6
REMARK    4  A    between atoms: C_6  and  C_7
REMARK    5  A    between atoms: C_11  and  C_12
REMARK    6  A    between atoms: C_22  and  O_23
REMARK    7  A    between atoms: O_23  and  C_24
REMARK                            x       y       z     vdW  Elec       q    Type
REMARK                         _______ _______ _______ _____ _____    ______ ____
ROOT
ATOM      1  C   UNL     1       0.542   9.505  20.084  0.00  0.00    +0.000 C 
ATOM      2  C   UNL     1       0.601  10.319  18.771  0.00  0.00    +0.000 C 
ATOM      3  N   UNL     1      -0.478  11.302  18.579  0.00  0.00    +0.000 NA
ATOM      4  C   UNL     1      -0.255  12.439  19.498  0.00  0.00    +0.000 C 
ATOM      5  C   UNL     1      -0.729  12.172  20.903  0.00  0.00    +0.000 A 
ATOM      6  C   UNL     1      -1.759  12.977  21.423  0.00  0.00    +0.000 A 
ATOM      7  C   UNL     1      -2.378  12.655  22.627  0.00  0.00    +0.000 A 
ATOM      8  C   UNL     1      -1.942  11.531  23.331  0.00  0.00    +0.000 A 
ATOM      9  C   UNL     1      -0.874  10.758  22.857  0.00  0.00    +0.000 A 
ATOM     10  C   UNL     1      -0.267  11.077  21.643  0.00  0.00    +0.000 A 
ATOM     11  O   UNL     1       0.806  10.326  21.239  0.00  0.00    +0.000 OA
ENDROOT
BRANCH   1  13
ATOM     12  C   UNL     1       2.142   8.193  18.601  0.00  0.00    +0.000 C 
ATOM     13  C   UNL     1       1.618   8.407  20.012  0.00  0.00    +0.000 C 
ENDBRANCH   1  13
BRANCH   7  14
ATOM     14  O   UNL     1      -3.419  13.343  23.190  0.00  0.00    +0.000 OA
ATOM     15  C   UNL     1      -4.137  12.677  24.225  0.00  0.00    +0.000 C 
ENDBRANCH   7  14
BRANCH   3  16
ATOM     16  C   UNL     1      -1.838  10.736  18.722  0.00  0.00    +0.000 C 
BRANCH  16  17
ATOM     17  C   UNL     1      -2.725  11.027  17.555  0.00  0.00    +0.000 A 
ATOM     18  C   UNL     1      -2.356  10.973  16.221  0.00  0.00    +0.000 A 
ATOM     19  N   UNL     1      -3.465  11.288  15.501  0.00  0.00    +0.000 N 
ATOM     20  N   UNL     1      -4.543  11.521  16.258  0.00  0.00    +0.000 NA
ATOM     21  C   UNL     1      -4.124  11.335  17.524  0.00  0.00    +0.000 A 
ATOM     22  H   UNL     1      -3.566  11.347  14.490  0.00  0.00    +0.000 HD
BRANCH  21  23
ATOM     23  C   UNL     1      -5.067  11.451  18.639  0.00  0.00    +0.000 A 
ATOM     24  C   UNL     1      -6.182  10.606  18.753  0.00  0.00    +0.000 A 
ATOM     25  C   UNL     1      -7.056  10.704  19.829  0.00  0.00    +0.000 A 
ATOM     26  C   UNL     1      -6.840  11.680  20.786  0.00  0.00    +0.000 A 
ATOM     27  F   UNL     1      -7.688  11.785  21.815  0.00  0.00    +0.000 F 
ATOM     28  C   UNL     1      -5.766  12.555  20.688  0.00  0.00    +0.000 A 
ATOM     29  C   UNL     1      -4.882  12.440  19.620  0.00  0.00    +0.000 A 
ENDBRANCH  21  23
ENDBRANCH  16  17
ENDBRANCH   3  16
TORSDOF 5
ENDMDL
MODEL 4
REMARK VINA RESULT:      -7.4      8.336     11.190
REMARK  Name = 
REMARK  7 active torsions:
REMARK  status: ('A' for Active; 'I' for Inactive)
REMARK    1  A    between atoms: C_1  and  C_2
REMARK    2  A    between atoms: C_2  and  C_3
REMARK    3  A    between atoms: N_5  and  C_6
REMARK    4  A    between atoms: C_6  and  C_7
REMARK    5  A    between atoms: C_11  and  C_12
REMARK    6  A    between atoms: C_22  and  O_23
REMARK    7  A    between atoms: O_23  and  C_24
REMARK                            x       y       z     vdW  Elec       q    Type
REMARK                         _______ _______ _______ _____ _____    ______ ____
ROOT
ATOM      1  C   UNL     1       0.227   9.381  20.647  0.00  0.00    +0.000 C 
ATOM      2  C   UNL     1       0.476   9.905  19.213  0.00  0.00    +0.000 C 
ATOM      3  N   UNL     1      -0.466  10.930  18.734  0.00  0.00    +0.000 NA
ATOM      4  C   UNL     1      -0.184  12.201  19.435  0.00  0.00    +0.000 C 
ATOM      5  C   UNL     1      -0.789  12.270  20.813  0.00  0.00    +0.000 A 
ATOM      6  C   UNL     1      -1.756  13.259  21.067  0.00  0.00    +0.000 A 
ATOM      7  C   UNL     1      -2.496  13.247  22.246  0.00  0.00    +0.000 A 
ATOM      8  C   UNL     1      -2.245  12.250  23.191  0.00  0.00    +0.000 A 
ATOM      9  C   UNL     1      -1.240  11.298  22.978  0.00  0.00    +0.000 A 
ATOM     10  C   UNL     1      -0.511  11.306  21.790  0.00  0.00    +0.000 A 
ATOM     11  O   UNL     1       0.496  10.389  21.643  0.00  0.00    +0.000 OA
ENDROOT
BRANCH   1  13
ATOM     12  C   UNL     1       1.996   7.838  19.661  0.00  0.00    +0.000 C 
ATOM     13  C   UNL     1       1.173   8.193  20.890  0.00  0.00    +0.000 C 
ENDBRANCH   1  13
BRANCH   7  14
ATOM     14  O   UNL     1      -3.491  14.132  22.564  0.00  0.00    +0.000 OA
ATOM     15  C   UNL     1      -3.113  15.502  22.678  0.00  0.00    +0.000 C 
ENDBRANCH   7  14
BRANCH   3  16
ATOM     16  C   UNL     1      -1.888  10.539  18.852  0.00  0.00    +0.000 C 
BRANCH  16  17
ATOM     17  C   UNL     1      -2.710  10.930  17.666  0.00  0.00    +0.000 A 
ATOM     18  C   UNL     1      -2.281  10.940  16.349  0.00  0.00    +0.000 A 
ATOM     19  N   UNL     1      -3.343  11.337  15.600  0.00  0.00    +0.000 N 
ATOM     20  N   UNL     1      -4.447  11.565  16.321  0.00  0.00    +0.000 NA
ATOM     21  C   UNL     1      -4.094  11.291  17.591  0.00  0.00    +0.000 A 
ATOM     22  H   UNL     1      -3.394  11.459  14.591  0.00  0.00    +0.000 HD
BRANCH  21  23
ATOM     23  C   UNL     1      -5.084  11.376  18.667  0.00  0.00    +0.000 A 
ATOM     24  C   UNL     1      -4.985  12.335  19.687  0.00  0.00    +0.000 A 
ATOM     25  C   UNL     1      -5.944  12.427  20.688  0.00  0.00    +0.000 A 
ATOM     26  C   UNL     1      -6.997  11.529  20.698  0.00  0.00    +0.000 A 
ATOM     27  F   UNL     1      -7.914  11.607  21.668  0.00  0.00    +0.000 F 
ATOM     28  C   UNL     1      -7.109  10.545  19.724  0.00  0.00    +0.000 A 
ATOM     29  C   UNL     1      -6.158  10.471  18.711  0.00  0.00    +0.000 A 
ENDBRANCH  21  23
ENDBRANCH  16  17
ENDBRANCH   3  16
TORSDOF 5
ENDMDL
MODEL 5
REMARK VINA RESULT:      -7.3      3.334      5.536
REMARK  Name = 
REMARK  7 active torsions:
REMARK  status: ('A' for Active; 'I' for Inactive)
REMARK    1  A    between atoms: C_1  and  C_2
REMARK    2  A    between atoms: C_2  and  C_3
REMARK    3  A    between atoms: N_5  and  C_6
REMARK    4  A    between atoms: C_6  and  C_7
REMARK    5  A    between atoms: C_11  and  C_12
REMARK    6  A    between atoms: C_22  and  O_23
REMARK    7  A    between atoms: O_23  and  C_24
REMARK                            x       y       z     vdW  Elec       q    Type
REMARK                         _______ _______ _______ _____ _____    ______ ____
ROOT
ATOM      1  C   UNL     1       2.961   4.322  20.641  0.00  0.00    +0.000 C 
ATOM      2  C   UNL     1       1.687   4.746  19.873  0.00  0.00    +0.000 C 
ATOM      3  N   UNL     1       1.846   5.881  18.949  0.00  0.00    +0.000 NA
ATOM      4  C   UNL     1       2.618   5.432  17.771  0.00  0.00    +0.000 C 
ATOM      5  C   UNL     1       4.105   5.400  18.008  0.00  0.00    +0.000 A 
ATOM      6  C   UNL     1       4.922   6.244  17.235  0.00  0.00    +0.000 A 
ATOM      7  C   UNL     1       6.269   6.412  17.542  0.00  0.00    +0.000 A 
ATOM      8  C   UNL     1       6.809   5.705  18.618  0.00  0.00    +0.000 A 
ATOM      9  C   UNL     1       6.022   4.812  19.356  0.00  0.00    +0.000 A 
ATOM     10  C   UNL     1       4.670   4.658  19.053  0.00  0.00    +0.000 A 
ATOM     11  O   UNL     1       3.948   3.738  19.766  0.00  0.00    +0.000 OA
ENDROOT
BRANCH   1  13
ATOM     12  C   UNL     1       1.194   2.655  21.404  0.00  0.00    +0.000 C 
ATOM     13  C   UNL     1       2.556   3.269  21.688  0.00  0.00    +0.000 C 
ENDBRANCH   1  13
BRANCH   7  14
ATOM     14  O   UNL     1       7.133   7.246  16.885  0.00  0.00    +0.000 OA
ATOM     15  C   UNL     1       7.738   8.277  17.660  0.00  0.00    +0.000 C 
ENDBRANCH   7  14
BRANCH   3  16
ATOM     16  C   UNL     1       2.442   7.083  19.573  0.00  0.00    +0.000 C 
BRANCH  16  17
ATOM     17  C   UNL     1       2.147   8.345  18.828  0.00  0.00    +0.000 A 
ATOM     18  C   UNL     1       2.543   8.635  17.533  0.00  0.00    +0.000 A 
ATOM     19  N   UNL     1       2.049   9.867  17.245  0.00  0.00    +0.000 N 
ATOM     20  N   UNL     1       1.335  10.402  18.244  0.00  0.00    +0.000 NA
ATOM     21  C   UNL     1       1.352   9.472  19.217  0.00  0.00    +0.000 A 
ATOM     22  H   UNL     1       2.143  10.401  16.383  0.00  0.00    +0.000 HD
BRANCH  21  23
ATOM     23  C   UNL     1       0.611   9.692  20.461  0.00  0.00    +0.000 A 
ATOM     24  C   UNL     1       0.222   8.626  21.287  0.00  0.00    +0.000 A 
ATOM     25  C   UNL     1      -0.456   8.846  22.479  0.00  0.00    +0.000 A 
ATOM     26  C   UNL     1      -0.785  10.141  22.840  0.00  0.00    +0.000 A 
ATOM     27  F   UNL     1      -1.450  10.355  23.980  0.00  0.00    +0.000 F 
ATOM     28  C   UNL     1      -0.445  11.218  22.030  0.00  0.00    +0.000 A 
ATOM     29  C   UNL     1       0.252  10.995  20.848  0.00  0.00    +0.000 A 
ENDBRANCH  21  23
ENDBRANCH  16  17
ENDBRANCH   3  16
TORSDOF 5
ENDMDL
MODEL 6
REMARK VINA RESULT:      -7.2      7.867     10.707
REMARK  Name = 
REMARK  7 active torsions:
REMARK  status: ('A' for Active; 'I' for Inactive)
REMARK    1  A    between atoms: C_1  and  C_2
REMARK    2  A    between atoms: C_2  and  C_3
REMARK    3  A    between atoms: N_5  and  C_6
REMARK    4  A    between atoms: C_6  and  C_7
REMARK    5  A    between atoms: C_11  and  C_12
REMARK    6  A    between atoms: C_22  and  O_23
REMARK    7  A    between atoms: O_23  and  C_24
REMARK                            x       y       z     vdW  Elec       q    Type
REMARK                         _______ _______ _______ _____ _____    ______ ____
ROOT
ATOM      1  C   UNL     1       0.894   9.350  19.284  0.00  0.00    +0.000 C 
ATOM      2  C   UNL     1       0.700  10.454  18.219  0.00  0.00    +0.000 C 
ATOM      3  N   UNL     1      -0.444  11.356  18.434  0.00  0.00    +0.000 NA
ATOM      4  C   UNL     1      -0.132  12.258  19.563  0.00  0.00    +0.000 C 
ATOM      5  C   UNL     1      -0.360  11.627  20.912  0.00  0.00    +0.000 A 
ATOM      6  C   UNL     1      -1.331  12.192  21.757  0.00  0.00    +0.000 A 
ATOM      7  C   UNL     1      -1.730  11.542  22.921  0.00  0.00    +0.000 A 
ATOM      8  C   UNL     1      -1.131  10.326  23.255  0.00  0.00    +0.000 A 
ATOM      9  C   UNL     1      -0.116   9.784  22.455  0.00  0.00    +0.000 A 
ATOM     10  C   UNL     1       0.270  10.432  21.283  0.00  0.00    +0.000 A 
ATOM     11  O   UNL     1       1.300   9.895  20.556  0.00  0.00    +0.000 OA
ENDROOT
BRANCH   1  13
ATOM     12  C   UNL     1       2.211   7.215  19.719  0.00  0.00    +0.000 C 
ATOM     13  C   UNL     1       1.998   8.400  18.789  0.00  0.00    +0.000 C 
ENDBRANCH   1  13
BRANCH   7  14
ATOM     14  O   UNL     1      -2.700  11.983  23.781  0.00  0.00    +0.000 OA
ATOM     15  C   UNL     1      -3.620  12.943  23.266  0.00  0.00    +0.000 C 
ENDBRANCH   7  14
BRANCH   3  16
ATOM     16  C   UNL     1      -1.732  10.655  18.627  0.00  0.00    +0.000 C 
BRANCH  16  17
ATOM     17  C   UNL     1      -2.661  10.794  17.464  0.00  0.00    +0.000 A 
ATOM     18  C   UNL     1      -2.341  10.563  16.137  0.00  0.00    +0.000 A 
ATOM     19  N   UNL     1      -3.475  10.786  15.422  0.00  0.00    +0.000 N 
ATOM     20  N   UNL     1      -4.525  11.123  16.180  0.00  0.00    +0.000 NA
ATOM     21  C   UNL     1      -4.060  11.103  17.443  0.00  0.00    +0.000 A 
ATOM     22  H   UNL     1      -3.612  10.712  14.415  0.00  0.00    +0.000 HD
BRANCH  21  23
ATOM     23  C   UNL     1      -4.963  11.370  18.566  0.00  0.00    +0.000 A 
ATOM     24  C   UNL     1      -4.707  12.393  19.491  0.00  0.00    +0.000 A 
ATOM     25  C   UNL     1      -5.583  12.657  20.537  0.00  0.00    +0.000 A 
ATOM     26  C   UNL     1      -6.711  11.869  20.688  0.00  0.00    +0.000 A 
ATOM     27  F   UNL     1      -7.548  12.112  21.702  0.00  0.00    +0.000 F 
ATOM     28  C   UNL     1      -6.978  10.826  19.811  0.00  0.00    +0.000 A 
ATOM     29  C   UNL     1      -6.109  10.579  18.752  0.00  0.00    +0.000 A 
ENDBRANCH  21  23
ENDBRANCH  16  17
ENDBRANCH   3  16
TORSDOF 5
ENDMDL
MODEL 7
REMARK VINA RESULT:      -6.9      8.130     10.355
REMARK  Name = 
REMARK  7 active torsions:
REMARK  status: ('A' for Active; 'I' for Inactive)
REMARK    1  A    between atoms: C_1  and  C_2
REMARK    2  A    between atoms: C_2  and  C_3
REMARK    3  A    between atoms: N_5  and  C_6
REMARK    4  A    between atoms: C_6  and  C_7
REMARK    5  A    between atoms: C_11  and  C_12
REMARK    6  A    between atoms: C_22  and  O_23
REMARK    7  A    between atoms: O_23  and  C_24
REMARK                            x       y       z     vdW  Elec       q    Type
REMARK                         _______ _______ _______ _____ _____    ______ ____
ROOT
ATOM      1  C   UNL     1      -0.364  11.381  21.371  0.00  0.00    +0.000 C 
ATOM      2  C   UNL     1      -0.645  10.261  20.342  0.00  0.00    +0.000 C 
ATOM      3  N   UNL     1      -0.423  10.618  18.931  0.00  0.00    +0.000 NA
ATOM      4  C   UNL     1       1.032  10.716  18.688  0.00  0.00    +0.000 C 
ATOM      5  C   UNL     1       1.624  12.030  19.128  0.00  0.00    +0.000 A 
ATOM      6  C   UNL     1       2.204  12.860  18.152  0.00  0.00    +0.000 A 
ATOM      7  C   UNL     1       2.581  14.164  18.456  0.00  0.00    +0.000 A 
ATOM      8  C   UNL     1       2.401  14.632  19.760  0.00  0.00    +0.000 A 
ATOM      9  C   UNL     1       1.884  13.795  20.757  0.00  0.00    +0.000 A 
ATOM     10  C   UNL     1       1.495  12.494  20.443  0.00  0.00    +0.000 A 
ATOM     11  O   UNL     1       1.041  11.692  21.457  0.00  0.00    +0.000 OA
ENDROOT
BRANCH   1  13
ATOM     12  C   UNL     1      -0.181   9.582  23.163  0.00  0.00    +0.000 C 
ATOM     13  C   UNL     1      -0.839  10.890  22.749  0.00  0.00    +0.000 C 
ENDBRANCH   1  13
BRANCH   7  14
ATOM     14  O   UNL     1       3.106  15.063  17.568  0.00  0.00    +0.000 OA
ATOM     15  C   UNL     1       2.946  16.443  17.889  0.00  0.00    +0.000 C 
ENDBRANCH   7  14
BRANCH   3  16
ATOM     16  C   UNL     1      -1.137  11.842  18.503  0.00  0.00    +0.000 C 
BRANCH  16  17
ATOM     17  C   UNL     1      -2.356  11.559  17.684  0.00  0.00    +0.000 A 
ATOM     18  C   UNL     1      -2.369  11.051  16.396  0.00  0.00    +0.000 A 
ATOM     19  N   UNL     1      -3.675  10.933  16.041  0.00  0.00    +0.000 N 
ATOM     20  N   UNL     1      -4.525  11.301  17.007  0.00  0.00    +0.000 NA
ATOM     21  C   UNL     1      -3.740  11.659  18.040  0.00  0.00    +0.000 A 
ATOM     22  H   UNL     1      -4.063  10.593  15.163  0.00  0.00    +0.000 HD
BRANCH  21  23
ATOM     23  C   UNL     1      -4.337  12.070  19.313  0.00  0.00    +0.000 A 
ATOM     24  C   UNL     1      -5.685  11.819  19.611  0.00  0.00    +0.000 A 
ATOM     25  C   UNL     1      -6.236  12.188  20.832  0.00  0.00    +0.000 A 
ATOM     26  C   UNL     1      -5.446  12.848  21.757  0.00  0.00    +0.000 A 
ATOM     27  F   UNL     1      -5.978  13.216  22.928  0.00  0.00    +0.000 F 
ATOM     28  C   UNL     1      -4.117  13.144  21.482  0.00  0.00    +0.000 A 
ATOM     29  C   UNL     1      -3.564  12.754  20.267  0.00  0.00    +0.000 A 
ENDBRANCH  21  23
ENDBRANCH  16  17
ENDBRANCH   3  16
TORSDOF 5
ENDMDL
MODEL 8
REMARK VINA RESULT:      -6.8      3.300      5.276
REMARK  Name = 
REMARK  7 active torsions:
REMARK  status: ('A' for Active; 'I' for Inactive)
REMARK    1  A    between atoms: C_1  and  C_2
REMARK    2  A    between atoms: C_2  and  C_3
REMARK    3  A    between atoms: N_5  and  C_6
REMARK    4  A    between atoms: C_6  and  C_7
REMARK    5  A    between atoms: C_11  and  C_12
REMARK    6  A    between atoms: C_22  and  O_23
REMARK    7  A    between atoms: O_23  and  C_24
REMARK                            x       y       z     vdW  Elec       q    Type
REMARK                         _______ _______ _______ _____ _____    ______ ____
ROOT
ATOM      1  C   UNL     1       2.749   4.129  20.800  0.00  0.00    +0.000 C 
ATOM      2  C   UNL     1       1.442   4.721  20.222  0.00  0.00    +0.000 C 
ATOM      3  N   UNL     1       1.612   5.735  19.168  0.00  0.00    +0.000 NA
ATOM      4  C   UNL     1       2.061   5.065  17.930  0.00  0.00    +0.000 C 
ATOM      5  C   UNL     1       3.540   4.778  17.910  0.00  0.00    +0.000 A 
ATOM      6  C   UNL     1       4.326   5.397  16.921  0.00  0.00    +0.000 A 
ATOM      7  C   UNL     1       5.715   5.337  16.972  0.00  0.00    +0.000 A 
ATOM      8  C   UNL     1       6.323   4.625  18.009  0.00  0.00    +0.000 A 
ATOM      9  C   UNL     1       5.551   3.950  18.963  0.00  0.00    +0.000 A 
ATOM     10  C   UNL     1       4.159   4.025  18.915  0.00  0.00    +0.000 A 
ATOM     11  O   UNL     1       3.441   3.309  19.837  0.00  0.00    +0.000 OA
ENDROOT
BRANCH   1  13
ATOM     12  C   UNL     1       1.094   2.465  21.789  0.00  0.00    +0.000 C 
ATOM     13  C   UNL     1       2.379   3.250  22.008  0.00  0.00    +0.000 C 
ENDBRANCH   1  13
BRANCH   7  14
ATOM     14  O   UNL     1       6.566   5.946  16.090  0.00  0.00    +0.000 OA
ATOM     15  C   UNL     1       7.046   5.147  15.012  0.00  0.00    +0.000 C 
ENDBRANCH   7  14
BRANCH   3  16
ATOM     16  C   UNL     1       2.507   6.850  19.549  0.00  0.00    +0.000 C 
BRANCH  16  17
ATOM     17  C   UNL     1       2.244   8.107  18.783  0.00  0.00    +0.000 A 
ATOM     18  C   UNL     1       2.645   8.366  17.484  0.00  0.00    +0.000 A 
ATOM     19  N   UNL     1       2.184   9.606  17.176  0.00  0.00    +0.000 N 
ATOM     20  N   UNL     1       1.486  10.175  18.167  0.00  0.00    +0.000 NA
ATOM     21  C   UNL     1       1.480   9.261  19.155  0.00  0.00    +0.000 A 
ATOM     22  H   UNL     1       2.291  10.123  16.305  0.00  0.00    +0.000 HD
BRANCH  21  23
ATOM     23  C   UNL     1       0.747   9.521  20.397  0.00  0.00    +0.000 A 
ATOM     24  C   UNL     1       0.490  10.827  20.842  0.00  0.00    +0.000 A 
ATOM     25  C   UNL     1      -0.231  11.064  22.006  0.00  0.00    +0.000 A 
ATOM     26  C   UNL     1      -0.670   9.989  22.759  0.00  0.00    +0.000 A 
ATOM     27  F   UNL     1      -1.351  10.215  23.887  0.00  0.00    +0.000 F 
ATOM     28  C   UNL     1      -0.404   8.683  22.366  0.00  0.00    +0.000 A 
ATOM     29  C   UNL     1       0.299   8.450  21.189  0.00  0.00    +0.000 A 
ENDBRANCH  21  23
ENDBRANCH  16  17
ENDBRANCH   3  16
TORSDOF 5
ENDMDL
MODEL 9
REMARK VINA RESULT:      -6.8      6.207      9.585
REMARK  Name = 
REMARK  7 active torsions:
REMARK  status: ('A' for Active; 'I' for Inactive)
REMARK    1  A    between atoms: C_1  and  C_2
REMARK    2  A    between atoms: C_2  and  C_3
REMARK    3  A    between atoms: N_5  and  C_6
REMARK    4  A    between atoms: C_6  and  C_7
REMARK    5  A    between atoms: C_11  and  C_12
REMARK    6  A    between atoms: C_22  and  O_23
REMARK    7  A    between atoms: O_23  and  C_24
REMARK                            x       y       z     vdW  Elec       q    Type
REMARK                         _______ _______ _______ _____ _____    ______ ____
ROOT
ATOM      1  C   UNL     1      -0.837  12.284  18.674  0.00  0.00    +0.000 C 
ATOM      2  C   UNL     1      -1.536  12.577  20.022  0.00  0.00    +0.000 C 
ATOM      3  N   UNL     1      -0.648  12.959  21.133  0.00  0.00    +0.000 NA
ATOM      4  C   UNL     1      -0.150  14.330  20.895  0.00  0.00    +0.000 C 
ATOM      5  C   UNL     1       1.008  14.385  19.933  0.00  0.00    +0.000 A 
ATOM      6  C   UNL     1       2.243  14.866  20.403  0.00  0.00    +0.000 A 
ATOM      7  C   UNL     1       3.395  14.752  19.630  0.00  0.00    +0.000 A 
ATOM      8  C   UNL     1       3.302  14.176  18.361  0.00  0.00    +0.000 A 
ATOM      9  C   UNL     1       2.067  13.753  17.855  0.00  0.00    +0.000 A 
ATOM     10  C   UNL     1       0.919  13.856  18.640  0.00  0.00    +0.000 A 
ATOM     11  O   UNL     1      -0.277  13.477  18.088  0.00  0.00    +0.000 OA
ENDROOT
BRANCH   1  13
ATOM     12  C   UNL     1      -2.269  10.279  18.032  0.00  0.00    +0.000 C 
ATOM     13  C   UNL     1      -1.890  11.716  17.707  0.00  0.00    +0.000 C 
ENDBRANCH   1  13
BRANCH   7  14
ATOM     14  O   UNL     1       4.649  15.142  20.017  0.00  0.00    +0.000 OA
ATOM     15  C   UNL     1       5.082  14.711  21.305  0.00  0.00    +0.000 C 
ENDBRANCH   7  14
BRANCH   3  16
ATOM     16  C   UNL     1       0.457  12.004  21.372  0.00  0.00    +0.000 C 
BRANCH  16  17
ATOM     17  C   UNL     1      -0.002  10.698  21.938  0.00  0.00    +0.000 A 
ATOM     18  C   UNL     1      -0.861  10.536  23.012  0.00  0.00    +0.000 A 
ATOM     19  N   UNL     1      -1.025   9.197  23.176  0.00  0.00    +0.000 N 
ATOM     20  N   UNL     1      -0.358   8.464  22.276  0.00  0.00    +0.000 NA
ATOM     21  C   UNL     1       0.253   9.364  21.483  0.00  0.00    +0.000 A 
ATOM     22  H   UNL     1      -1.589   8.709  23.870  0.00  0.00    +0.000 HD
BRANCH  21  23
ATOM     23  C   UNL     1       1.040   8.918  20.331  0.00  0.00    +0.000 A 
ATOM     24  C   UNL     1       1.751   7.707  20.346  0.00  0.00    +0.000 A 
ATOM     25  C   UNL     1       2.471   7.279  19.239  0.00  0.00    +0.000 A 
ATOM     26  C   UNL     1       2.518   8.081  18.112  0.00  0.00    +0.000 A 
ATOM     27  F   UNL     1       3.223   7.677  17.050  0.00  0.00    +0.000 F 
ATOM     28  C   UNL     1       1.855   9.301  18.074  0.00  0.00    +0.000 A 
ATOM     29  C   UNL     1       1.117   9.716  19.177  0.00  0.00    +0.000 A 
ENDBRANCH  21  23
ENDBRANCH  16  17
ENDBRANCH   3  16
TORSDOF 5
ENDMDL
