MODEL 1
REMARK VINA RESULT:      -7.8      0.000      0.000
REMARK  Name = 
REMARK  6 active torsions:
REMARK  status: ('A' for Active; 'I' for Inactive)
REMARK    1  A    between atoms: C_1  and  O_2
REMARK    2  A    between atoms: O_2  and  C_3
REMARK    3  A    between atoms: C_6  and  C_7
REMARK    4  A    between atoms: C_7  and  N_8
REMARK    5  A    between atoms: C_14  and  C_15
REMARK    6  A    between atoms: N_17  and  C_18
REMARK                            x       y       z     vdW  Elec       q    Type
REMARK                         _______ _______ _______ _____ _____    ______ ____
ROOT
ATOM      1  N   UNL     1       3.284   2.818  19.197  0.00  0.00    +0.000 N 
ATOM      2  C   UNL     1       3.837   2.384  20.394  0.00  0.00    +0.000 C 
ATOM      3  O   UNL     1       5.039   2.152  20.519  0.00  0.00    +0.000 OA
ATOM      4  C   UNL     1       2.878   2.233  21.588  0.00  0.00    +0.000 C 
ATOM      5  O   UNL     1       1.489   2.318  21.314  0.00  0.00    +0.000 OA
ATOM      6  C   UNL     1       1.225   3.461  20.506  0.00  0.00    +0.000 C 
ATOM      7  C   UNL     1       1.888   3.308  19.128  0.00  0.00    +0.000 C 
ENDROOT
BRANCH   7   8
ATOM      8  C   UNL     1       1.770   4.686  18.459  0.00  0.00    +0.000 C 
ATOM      9  O   UNL     1       1.196   4.792  17.378  0.00  0.00    +0.000 OA
ATOM     10  N   UNL     1       2.224   5.747  19.238  0.00  0.00    +0.000 N 
ATOM     11  H   UNL     1       2.758   5.501  20.067  0.00  0.00    +0.000 HD
BRANCH  10  12
ATOM     12  C   UNL     1       2.188   7.112  18.879  0.00  0.00    +0.000 A 
ATOM     13  C   UNL     1       2.894   7.632  17.786  0.00  0.00    +0.000 A 
ATOM     14  C   UNL     1       2.859   8.997  17.484  0.00  0.00    +0.000 A 
ATOM     15  C   UNL     1       2.110   9.853  18.278  0.00  0.00    +0.000 A 
ATOM     16  F   UNL     1       2.091  11.163  17.999  0.00  0.00    +0.000 F 
ATOM     17  C   UNL     1       1.394   9.350  19.355  0.00  0.00    +0.000 A 
ATOM     18  F   UNL     1       0.679  10.178  20.130  0.00  0.00    +0.000 F 
ATOM     19  C   UNL     1       1.414   7.985  19.655  0.00  0.00    +0.000 A 
ENDBRANCH  10  12
ENDBRANCH   7   8
BRANCH   1  20
ATOM     20  C   UNL     1       4.044   2.639  17.953  0.00  0.00    +0.000 C 
BRANCH  20  24
ATOM     21  C   UNL     1       6.624   5.910  16.772  0.00  0.00    +0.000 A 
ATOM     22  C   UNL     1       6.641   5.433  18.083  0.00  0.00    +0.000 A 
ATOM     23  C   UNL     1       5.789   4.396  18.473  0.00  0.00    +0.000 A 
ATOM     24  C   UNL     1       4.892   3.825  17.557  0.00  0.00    +0.000 A 
ATOM     25  C   UNL     1       4.854   4.337  16.252  0.00  0.00    +0.000 A 
ATOM     26  C   UNL     1       5.714   5.372  15.863  0.00  0.00    +0.000 A 
BRANCH  21  28
ATOM     27  C   UNL     1       7.626   7.922  17.508  0.00  0.00    +0.000 C 
ATOM     28  O   UNL     1       7.511   6.917  16.506  0.00  0.00    +0.000 OA
ENDBRANCH  21  28
ENDBRANCH  20  24
ENDBRANCH   1  20
TORSDOF 5
ENDMDL
MODEL 2
REMARK VINA RESULT:      -7.6      1.725      2.494
REMARK  Name = 
REMARK  6 active torsions:
REMARK  status: ('A' for Active; 'I' for Inactive)
REMARK    1  A    between atoms: C_1  and  O_2
REMARK    2  A    between atoms: O_2  and  C_3
REMARK    3  A    between atoms: C_6  and  C_7
REMARK    4  A    between atoms: C_7  and  N_8
REMARK    5  A    between atoms: C_14  and  C_15
REMARK    6  A    between atoms: N_17  and  C_18
REMARK                            x       y       z     vdW  Elec       q    Type
REMARK                         _______ _______ _______ _____ _____    ______ ____
ROOT
ATOM      1  N   UNL     1       3.694   4.067  19.350  0.00  0.00    +0.000 N 
ATOM      2  C   UNL     1       3.921   2.712  19.551  0.00  0.00    +0.000 C 
ATOM      3  O   UNL     1       4.940   2.289  20.096  0.00  0.00    +0.000 OA
ATOM      4  C   UNL     1       2.816   1.746  19.089  0.00  0.00    +0.000 C 
ATOM      5  O   UNL     1       1.777   2.290  18.291  0.00  0.00    +0.000 OA
ATOM      6  C   UNL     1       1.282   3.484  18.891  0.00  0.00    +0.000 C 
ATOM      7  C   UNL     1       2.372   4.567  18.907  0.00  0.00    +0.000 C 
ENDROOT
BRANCH   7   8
ATOM      8  C   UNL     1       1.825   5.689  19.803  0.00  0.00    +0.000 C 
ATOM      9  O   UNL     1       1.426   5.426  20.935  0.00  0.00    +0.000 OA
ATOM     10  N   UNL     1       1.966   6.969  19.275  0.00  0.00    +0.000 N 
ATOM     11  H   UNL     1       2.225   7.027  18.295  0.00  0.00    +0.000 HD
BRANCH  10  12
ATOM     12  C   UNL     1       1.589   8.173  19.911  0.00  0.00    +0.000 A 
ATOM     13  C   UNL     1       1.463   8.294  21.301  0.00  0.00    +0.000 A 
ATOM     14  C   UNL     1       1.053   9.494  21.890  0.00  0.00    +0.000 A 
ATOM     15  C   UNL     1       0.770  10.588  21.085  0.00  0.00    +0.000 A 
ATOM     16  F   UNL     1       0.361  11.733  21.648  0.00  0.00    +0.000 F 
ATOM     17  C   UNL     1       0.906  10.487  19.707  0.00  0.00    +0.000 A 
ATOM     18  F   UNL     1       0.621  11.540  18.927  0.00  0.00    +0.000 F 
ATOM     19  C   UNL     1       1.327   9.294  19.113  0.00  0.00    +0.000 A 
ENDBRANCH  10  12
ENDBRANCH   7   8
BRANCH   1  20
ATOM     20  C   UNL     1       4.826   5.000  19.428  0.00  0.00    +0.000 C 
BRANCH  20  24
ATOM     21  C   UNL     1       7.008   5.246  15.697  0.00  0.00    +0.000 A 
ATOM     22  C   UNL     1       7.627   4.759  16.848  0.00  0.00    +0.000 A 
ATOM     23  C   UNL     1       6.933   4.706  18.060  0.00  0.00    +0.000 A 
ATOM     24  C   UNL     1       5.605   5.152  18.142  0.00  0.00    +0.000 A 
ATOM     25  C   UNL     1       5.003   5.675  16.990  0.00  0.00    +0.000 A 
ATOM     26  C   UNL     1       5.700   5.722  15.775  0.00  0.00    +0.000 A 
BRANCH  21  28
ATOM     27  C   UNL     1       7.129   4.830  13.371  0.00  0.00    +0.000 C 
ATOM     28  O   UNL     1       7.783   5.237  14.568  0.00  0.00    +0.000 OA
ENDBRANCH  21  28
ENDBRANCH  20  24
ENDBRANCH   1  20
TORSDOF 5
ENDMDL
MODEL 3
REMARK VINA RESULT:      -7.4      2.530      4.232
REMARK  Name = 
REMARK  6 active torsions:
REMARK  status: ('A' for Active; 'I' for Inactive)
REMARK    1  A    between atoms: C_1  and  O_2
REMARK    2  A    between atoms: O_2  and  C_3
REMARK    3  A    between atoms: C_6  and  C_7
REMARK    4  A    between atoms: C_7  and  N_8
REMARK    5  A    between atoms: C_14  and  C_15
REMARK    6  A    between atoms: N_17  and  C_18
REMARK                            x       y       z     vdW  Elec       q    Type
REMARK                         _______ _______ _______ _____ _____    ______ ____
ROOT
ATOM      1  N   UNL     1       5.606   6.070  17.170  0.00  0.00    +0.000 N 
ATOM      2  C   UNL     1       6.872   6.354  17.663  0.00  0.00    +0.000 C 
ATOM      3  O   UNL     1       7.631   7.150  17.112  0.00  0.00    +0.000 OA
ATOM      4  C   UNL     1       7.284   5.648  18.967  0.00  0.00    +0.000 C 
ATOM      5  O   UNL     1       6.446   4.599  19.424  0.00  0.00    +0.000 OA
ATOM      6  C   UNL     1       5.086   5.024  19.407  0.00  0.00    +0.000 C 
ATOM      7  C   UNL     1       4.628   5.292  17.965  0.00  0.00    +0.000 C 
ENDROOT
BRANCH   7   8
ATOM      8  C   UNL     1       3.266   5.993  18.089  0.00  0.00    +0.000 C 
ATOM      9  O   UNL     1       2.235   5.368  17.852  0.00  0.00    +0.000 OA
ATOM     10  N   UNL     1       3.325   7.281  18.613  0.00  0.00    +0.000 N 
ATOM     11  H   UNL     1       4.249   7.701  18.673  0.00  0.00    +0.000 HD
BRANCH  10  12
ATOM     12  C   UNL     1       2.220   8.122  18.870  0.00  0.00    +0.000 A 
ATOM     13  C   UNL     1       1.639   8.938  17.890  0.00  0.00    +0.000 A 
ATOM     14  C   UNL     1       0.567   9.782  18.193  0.00  0.00    +0.000 A 
ATOM     15  C   UNL     1       0.065   9.812  19.486  0.00  0.00    +0.000 A 
ATOM     16  F   UNL     1      -0.951  10.633  19.781  0.00  0.00    +0.000 F 
ATOM     17  C   UNL     1       0.621   8.997  20.463  0.00  0.00    +0.000 A 
ATOM     18  F   UNL     1       0.145   9.033  21.716  0.00  0.00    +0.000 F 
ATOM     19  C   UNL     1       1.685   8.142  20.164  0.00  0.00    +0.000 A 
ENDBRANCH  10  12
ENDBRANCH   7   8
BRANCH   1  20
ATOM     20  C   UNL     1       5.289   6.411  15.776  0.00  0.00    +0.000 C 
BRANCH  20  24
ATOM     21  C   UNL     1       6.557   3.630  12.711  0.00  0.00    +0.000 A 
ATOM     22  C   UNL     1       5.295   3.513  13.293  0.00  0.00    +0.000 A 
ATOM     23  C   UNL     1       4.895   4.393  14.303  0.00  0.00    +0.000 A 
ATOM     24  C   UNL     1       5.760   5.400  14.757  0.00  0.00    +0.000 A 
ATOM     25  C   UNL     1       7.041   5.486  14.193  0.00  0.00    +0.000 A 
ATOM     26  C   UNL     1       7.436   4.606  13.177  0.00  0.00    +0.000 A 
BRANCH  21  28
ATOM     27  C   UNL     1       5.774   1.824  11.398  0.00  0.00    +0.000 C 
ATOM     28  O   UNL     1       6.831   2.721  11.725  0.00  0.00    +0.000 OA
ENDBRANCH  21  28
ENDBRANCH  20  24
ENDBRANCH   1  20
TORSDOF 5
ENDMDL
MODEL 4
REMARK VINA RESULT:      -7.4      3.762      6.575
REMARK  Name = 
REMARK  6 active torsions:
REMARK  status: ('A' for Active; 'I' for Inactive)
REMARK    1  A    between atoms: C_1  and  O_2
REMARK    2  A    between atoms: O_2  and  C_3
REMARK    3  A    between atoms: C_6  and  C_7
REMARK    4  A    between atoms: C_7  and  N_8
REMARK    5  A    between atoms: C_14  and  C_15
REMARK    6  A    between atoms: N_17  and  C_18
REMARK                            x       y       z     vdW  Elec       q    Type
REMARK                         _______ _______ _______ _____ _____    ______ ____
ROOT
ATOM      1  N   UNL     1       3.374   4.655  18.355  0.00  0.00    +0.000 N 
ATOM      2  C   UNL     1       3.134   3.495  19.079  0.00  0.00    +0.000 C 
ATOM      3  O   UNL     1       2.038   2.935  19.083  0.00  0.00    +0.000 OA
ATOM      4  C   UNL     1       4.321   2.906  19.862  0.00  0.00    +0.000 C 
ATOM      5  O   UNL     1       5.482   3.713  19.974  0.00  0.00    +0.000 OA
ATOM      6  C   UNL     1       5.838   4.229  18.694  0.00  0.00    +0.000 C 
ATOM      7  C   UNL     1       4.747   5.180  18.178  0.00  0.00    +0.000 C 
ENDROOT
BRANCH   7   8
ATOM      8  C   UNL     1       5.099   5.452  16.708  0.00  0.00    +0.000 C 
ATOM      9  O   UNL     1       4.988   6.589  16.254  0.00  0.00    +0.000 OA
ATOM     10  N   UNL     1       5.663   4.369  16.039  0.00  0.00    +0.000 N 
ATOM     11  H   UNL     1       5.606   3.470  16.510  0.00  0.00    +0.000 HD
BRANCH  10  12
ATOM     12  C   UNL     1       6.114   4.366  14.701  0.00  0.00    +0.000 A 
ATOM     13  C   UNL     1       5.497   3.617  13.690  0.00  0.00    +0.000 A 
ATOM     14  C   UNL     1       5.995   3.614  12.384  0.00  0.00    +0.000 A 
ATOM     15  C   UNL     1       7.119   4.369  12.080  0.00  0.00    +0.000 A 
ATOM     16  F   UNL     1       7.607   4.353  10.833  0.00  0.00    +0.000 F 
ATOM     17  C   UNL     1       7.731   5.128  13.068  0.00  0.00    +0.000 A 
ATOM     18  F   UNL     1       8.825   5.848  12.779  0.00  0.00    +0.000 F 
ATOM     19  C   UNL     1       7.231   5.145  14.373  0.00  0.00    +0.000 A 
ENDBRANCH  10  12
ENDBRANCH   7   8
BRANCH   1  20
ATOM     20  C   UNL     1       2.233   5.456  17.893  0.00  0.00    +0.000 C 
BRANCH  20  24
ATOM     21  C   UNL     1       1.395   9.106  20.064  0.00  0.00    +0.000 A 
ATOM     22  C   UNL     1       1.591   9.134  18.684  0.00  0.00    +0.000 A 
ATOM     23  C   UNL     1       1.890   7.961  17.985  0.00  0.00    +0.000 A 
ATOM     24  C   UNL     1       2.010   6.738  18.661  0.00  0.00    +0.000 A 
ATOM     25  C   UNL     1       1.850   6.726  20.054  0.00  0.00    +0.000 A 
ATOM     26  C   UNL     1       1.544   7.902  20.750  0.00  0.00    +0.000 A 
BRANCH  21  28
ATOM     27  C   UNL     1       0.876  11.390  19.730  0.00  0.00    +0.000 C 
ATOM     28  O   UNL     1       1.095  10.314  20.636  0.00  0.00    +0.000 OA
ENDBRANCH  21  28
ENDBRANCH  20  24
ENDBRANCH   1  20
TORSDOF 5
ENDMDL
MODEL 5
REMARK VINA RESULT:      -7.3      1.614      2.252
REMARK  Name = 
REMARK  6 active torsions:
REMARK  status: ('A' for Active; 'I' for Inactive)
REMARK    1  A    between atoms: C_1  and  O_2
REMARK    2  A    between atoms: O_2  and  C_3
REMARK    3  A    between atoms: C_6  and  C_7
REMARK    4  A    between atoms: C_7  and  N_8
REMARK    5  A    between atoms: C_14  and  C_15
REMARK    6  A    between atoms: N_17  and  C_18
REMARK                            x       y       z     vdW  Elec       q    Type
REMARK                         _______ _______ _______ _____ _____    ______ ____
ROOT
ATOM      1  N   UNL     1       3.874   3.987  19.247  0.00  0.00    +0.000 N 
ATOM      2  C   UNL     1       3.907   2.648  19.611  0.00  0.00    +0.000 C 
ATOM      3  O   UNL     1       4.783   2.185  20.340  0.00  0.00    +0.000 OA
ATOM      4  C   UNL     1       2.767   1.757  19.088  0.00  0.00    +0.000 C 
ATOM      5  O   UNL     1       1.919   2.312  18.095  0.00  0.00    +0.000 OA
ATOM      6  C   UNL     1       1.495   3.612  18.494  0.00  0.00    +0.000 C 
ATOM      7  C   UNL     1       2.695   4.569  18.565  0.00  0.00    +0.000 C 
ENDROOT
BRANCH   7   8
ATOM      8  C   UNL     1       2.170   5.837  19.255  0.00  0.00    +0.000 C 
ATOM      9  O   UNL     1       1.882   5.807  20.449  0.00  0.00    +0.000 OA
ATOM     10  N   UNL     1       2.203   6.982  18.462  0.00  0.00    +0.000 N 
ATOM     11  H   UNL     1       2.374   6.838  17.471  0.00  0.00    +0.000 HD
BRANCH  10  12
ATOM     12  C   UNL     1       1.821   8.280  18.866  0.00  0.00    +0.000 A 
ATOM     13  C   UNL     1       1.883   9.392  18.016  0.00  0.00    +0.000 A 
ATOM     14  C   UNL     1       1.528  10.668  18.465  0.00  0.00    +0.000 A 
ATOM     15  C   UNL     1       1.103  10.837  19.774  0.00  0.00    +0.000 A 
ATOM     16  F   UNL     1       0.779  12.062  20.210  0.00  0.00    +0.000 F 
ATOM     17  C   UNL     1       1.021   9.742  20.623  0.00  0.00    +0.000 A 
ATOM     18  F   UNL     1       0.622   9.906  21.893  0.00  0.00    +0.000 F 
ATOM     19  C   UNL     1       1.363   8.462  20.177  0.00  0.00    +0.000 A 
ENDBRANCH  10  12
ENDBRANCH   7   8
BRANCH   1  20
ATOM     20  C   UNL     1       5.089   4.799  19.399  0.00  0.00    +0.000 C 
BRANCH  20  24
ATOM     21  C   UNL     1       7.186   5.439  15.666  0.00  0.00    +0.000 A 
ATOM     22  C   UNL     1       6.485   4.254  15.889  0.00  0.00    +0.000 A 
ATOM     23  C   UNL     1       5.831   4.034  17.104  0.00  0.00    +0.000 A 
ATOM     24  C   UNL     1       5.879   4.994  18.126  0.00  0.00    +0.000 A 
ATOM     25  C   UNL     1       6.619   6.165  17.908  0.00  0.00    +0.000 A 
ATOM     26  C   UNL     1       7.268   6.385  16.686  0.00  0.00    +0.000 A 
BRANCH  21  28
ATOM     27  C   UNL     1       7.176   4.781  13.394  0.00  0.00    +0.000 C 
ATOM     28  O   UNL     1       7.775   5.547  14.435  0.00  0.00    +0.000 OA
ENDBRANCH  21  28
ENDBRANCH  20  24
ENDBRANCH   1  20
TORSDOF 5
ENDMDL
MODEL 6
REMARK VINA RESULT:      -7.3      1.610      2.668
REMARK  Name = 
REMARK  6 active torsions:
REMARK  status: ('A' for Active; 'I' for Inactive)
REMARK    1  A    between atoms: C_1  and  O_2
REMARK    2  A    between atoms: O_2  and  C_3
REMARK    3  A    between atoms: C_6  and  C_7
REMARK    4  A    between atoms: C_7  and  N_8
REMARK    5  A    between atoms: C_14  and  C_15
REMARK    6  A    between atoms: N_17  and  C_18
REMARK                            x       y       z     vdW  Elec       q    Type
REMARK                         _______ _______ _______ _____ _____    ______ ____
ROOT
ATOM      1  N   UNL     1       3.619   4.218  19.117  0.00  0.00    +0.000 N 
ATOM      2  C   UNL     1       3.115   3.049  19.670  0.00  0.00    +0.000 C 
ATOM      3  O   UNL     1       3.664   2.475  20.610  0.00  0.00    +0.000 OA
ATOM      4  C   UNL     1       1.803   2.508  19.076  0.00  0.00    +0.000 C 
ATOM      5  O   UNL     1       1.348   3.104  17.871  0.00  0.00    +0.000 OA
ATOM      6  C   UNL     1       1.381   4.523  17.991  0.00  0.00    +0.000 C 
ATOM      7  C   UNL     1       2.829   5.013  18.148  0.00  0.00    +0.000 C 
ENDROOT
BRANCH   7   8
ATOM      8  C   UNL     1       2.722   6.496  18.537  0.00  0.00    +0.000 C 
ATOM      9  O   UNL     1       3.291   7.347  17.858  0.00  0.00    +0.000 OA
ATOM     10  N   UNL     1       1.844   6.756  19.586  0.00  0.00    +0.000 N 
ATOM     11  H   UNL     1       1.519   5.949  20.112  0.00  0.00    +0.000 HD
BRANCH  10  12
ATOM     12  C   UNL     1       1.531   8.030  20.107  0.00  0.00    +0.000 A 
ATOM     13  C   UNL     1       1.428   8.289  21.480  0.00  0.00    +0.000 A 
ATOM     14  C   UNL     1       1.082   9.558  21.955  0.00  0.00    +0.000 A 
ATOM     15  C   UNL     1       0.840  10.582  21.051  0.00  0.00    +0.000 A 
ATOM     16  F   UNL     1       0.492  11.793  21.505  0.00  0.00    +0.000 F 
ATOM     17  C   UNL     1       0.954  10.345  19.688  0.00  0.00    +0.000 A 
ATOM     18  F   UNL     1       0.708  11.331  18.813  0.00  0.00    +0.000 F 
ATOM     19  C   UNL     1       1.311   9.081  19.208  0.00  0.00    +0.000 A 
ENDBRANCH  10  12
ENDBRANCH   7   8
BRANCH   1  20
ATOM     20  C   UNL     1       5.017   4.586  19.376  0.00  0.00    +0.000 C 
BRANCH  20  24
ATOM     21  C   UNL     1       7.225   5.378  15.738  0.00  0.00    +0.000 A 
ATOM     22  C   UNL     1       6.498   4.196  15.881  0.00  0.00    +0.000 A 
ATOM     23  C   UNL     1       5.809   3.926  17.066  0.00  0.00    +0.000 A 
ATOM     24  C   UNL     1       5.845   4.832  18.136  0.00  0.00    +0.000 A 
ATOM     25  C   UNL     1       6.609   5.999  17.998  0.00  0.00    +0.000 A 
ATOM     26  C   UNL     1       7.295   6.270  16.807  0.00  0.00    +0.000 A 
BRANCH  21  28
ATOM     27  C   UNL     1       7.238   4.875  13.426  0.00  0.00    +0.000 C 
ATOM     28  O   UNL     1       7.848   5.538  14.529  0.00  0.00    +0.000 OA
ENDBRANCH  21  28
ENDBRANCH  20  24
ENDBRANCH   1  20
TORSDOF 5
ENDMDL
MODEL 7
REMARK VINA RESULT:      -7.3      2.001      2.909
REMARK  Name = 
REMARK  6 active torsions:
REMARK  status: ('A' for Active; 'I' for Inactive)
REMARK    1  A    between atoms: C_1  and  O_2
REMARK    2  A    between atoms: O_2  and  C_3
REMARK    3  A    between atoms: C_6  and  C_7
REMARK    4  A    between atoms: C_7  and  N_8
REMARK    5  A    between atoms: C_14  and  C_15
REMARK    6  A    between atoms: N_17  and  C_18
REMARK                            x       y       z     vdW  Elec       q    Type
REMARK                         _______ _______ _______ _____ _____    ______ ____
ROOT
ATOM      1  N   UNL     1       4.178   4.349  18.663  0.00  0.00    +0.000 N 
ATOM      2  C   UNL     1       4.070   3.161  19.373  0.00  0.00    +0.000 C 
ATOM      3  O   UNL     1       4.993   2.714  20.052  0.00  0.00    +0.000 OA
ATOM      4  C   UNL     1       2.718   2.430  19.303  0.00  0.00    +0.000 C 
ATOM      5  O   UNL     1       1.783   2.894  18.343  0.00  0.00    +0.000 OA
ATOM      6  C   UNL     1       1.665   4.312  18.430  0.00  0.00    +0.000 C 
ATOM      7  C   UNL     1       2.991   4.984  18.043  0.00  0.00    +0.000 C 
ENDROOT
BRANCH   7   8
ATOM      8  C   UNL     1       2.833   6.462  18.432  0.00  0.00    +0.000 C 
ATOM      9  O   UNL     1       3.407   7.330  17.778  0.00  0.00    +0.000 OA
ATOM     10  N   UNL     1       1.906   6.697  19.445  0.00  0.00    +0.000 N 
ATOM     11  H   UNL     1       1.581   5.881  19.955  0.00  0.00    +0.000 HD
BRANCH  10  12
ATOM     12  C   UNL     1       1.541   7.962  19.955  0.00  0.00    +0.000 A 
ATOM     13  C   UNL     1       1.348   9.086  19.142  0.00  0.00    +0.000 A 
ATOM     14  C   UNL     1       1.020  10.330  19.690  0.00  0.00    +0.000 A 
ATOM     15  C   UNL     1       0.879  10.454  21.065  0.00  0.00    +0.000 A 
ATOM     16  F   UNL     1       0.582  11.649  21.592  0.00  0.00    +0.000 F 
ATOM     17  C   UNL     1       1.051   9.345  21.882  0.00  0.00    +0.000 A 
ATOM     18  F   UNL     1       0.927   9.466  23.211  0.00  0.00    +0.000 F 
ATOM     19  C   UNL     1       1.367   8.096  21.339  0.00  0.00    +0.000 A 
ENDBRANCH  10  12
ENDBRANCH   7   8
BRANCH   1  20
ATOM     20  C   UNL     1       5.512   4.901  18.391  0.00  0.00    +0.000 C 
BRANCH  20  24
ATOM     21  C   UNL     1       6.711   4.528  14.248  0.00  0.00    +0.000 A 
ATOM     22  C   UNL     1       5.809   3.622  14.808  0.00  0.00    +0.000 A 
ATOM     23  C   UNL     1       5.443   3.724  16.152  0.00  0.00    +0.000 A 
ATOM     24  C   UNL     1       5.985   4.730  16.966  0.00  0.00    +0.000 A 
ATOM     25  C   UNL     1       6.920   5.612  16.406  0.00  0.00    +0.000 A 
ATOM     26  C   UNL     1       7.280   5.511  15.056  0.00  0.00    +0.000 A 
BRANCH  21  28
ATOM     27  C   UNL     1       6.151   3.396  12.247  0.00  0.00    +0.000 C 
ATOM     28  O   UNL     1       6.983   4.335  12.920  0.00  0.00    +0.000 OA
ENDBRANCH  21  28
ENDBRANCH  20  24
ENDBRANCH   1  20
TORSDOF 5
ENDMDL
MODEL 8
REMARK VINA RESULT:      -7.3      3.336      5.797
REMARK  Name = 
REMARK  6 active torsions:
REMARK  status: ('A' for Active; 'I' for Inactive)
REMARK    1  A    between atoms: C_1  and  O_2
REMARK    2  A    between atoms: O_2  and  C_3
REMARK    3  A    between atoms: C_6  and  C_7
REMARK    4  A    between atoms: C_7  and  N_8
REMARK    5  A    between atoms: C_14  and  C_15
REMARK    6  A    between atoms: N_17  and  C_18
REMARK                            x       y       z     vdW  Elec       q    Type
REMARK                         _______ _______ _______ _____ _____    ______ ____
ROOT
ATOM      1  N   UNL     1       2.773   3.933  19.768  0.00  0.00    +0.000 N 
ATOM      2  C   UNL     1       1.455   3.535  19.585  0.00  0.00    +0.000 C 
ATOM      3  O   UNL     1       0.510   4.315  19.695  0.00  0.00    +0.000 OA
ATOM      4  C   UNL     1       1.221   2.064  19.199  0.00  0.00    +0.000 C 
ATOM      5  O   UNL     1       2.333   1.188  19.294  0.00  0.00    +0.000 OA
ATOM      6  C   UNL     1       3.466   1.774  18.660  0.00  0.00    +0.000 C 
ATOM      7  C   UNL     1       3.901   3.043  19.408  0.00  0.00    +0.000 C 
ENDROOT
BRANCH   7   8
ATOM      8  C   UNL     1       4.934   3.725  18.497  0.00  0.00    +0.000 C 
ATOM      9  O   UNL     1       5.882   4.327  18.994  0.00  0.00    +0.000 OA
ATOM     10  N   UNL     1       4.763   3.470  17.139  0.00  0.00    +0.000 N 
ATOM     11  H   UNL     1       3.885   3.037  16.869  0.00  0.00    +0.000 HD
BRANCH  10  12
ATOM     12  C   UNL     1       5.595   3.937  16.098  0.00  0.00    +0.000 A 
ATOM     13  C   UNL     1       6.709   4.758  16.322  0.00  0.00    +0.000 A 
ATOM     14  C   UNL     1       7.488   5.227  15.260  0.00  0.00    +0.000 A 
ATOM     15  C   UNL     1       7.157   4.871  13.961  0.00  0.00    +0.000 A 
ATOM     16  F   UNL     1       7.893   5.335  12.942  0.00  0.00    +0.000 F 
ATOM     17  C   UNL     1       6.067   4.045  13.725  0.00  0.00    +0.000 A 
ATOM     18  F   UNL     1       5.739   3.710  12.469  0.00  0.00    +0.000 F 
ATOM     19  C   UNL     1       5.291   3.563  14.783  0.00  0.00    +0.000 A 
ENDBRANCH  10  12
ENDBRANCH   7   8
BRANCH   1  20
ATOM     20  C   UNL     1       3.047   5.191  20.475  0.00  0.00    +0.000 C 
BRANCH  20  24
ATOM     21  C   UNL     1       1.989   8.856  18.427  0.00  0.00    +0.000 A 
ATOM     22  C   UNL     1       1.516   8.603  19.715  0.00  0.00    +0.000 A 
ATOM     23  C   UNL     1       1.833   7.408  20.366  0.00  0.00    +0.000 A 
ATOM     24  C   UNL     1       2.622   6.436  19.732  0.00  0.00    +0.000 A 
ATOM     25  C   UNL     1       3.062   6.682  18.424  0.00  0.00    +0.000 A 
ATOM     26  C   UNL     1       2.747   7.884  17.776  0.00  0.00    +0.000 A 
BRANCH  21  28
ATOM     27  C   UNL     1       0.739  10.846  18.693  0.00  0.00    +0.000 C 
ATOM     28  O   UNL     1       1.624  10.064  17.898  0.00  0.00    +0.000 OA
ENDBRANCH  21  28
ENDBRANCH  20  24
ENDBRANCH   1  20
TORSDOF 5
ENDMDL
MODEL 9
REMARK VINA RESULT:      -7.3      1.902      2.916
REMARK  Name = 
REMARK  6 active torsions:
REMARK  status: ('A' for Active; 'I' for Inactive)
REMARK    1  A    between atoms: C_1  and  O_2
REMARK    2  A    between atoms: O_2  and  C_3
REMARK    3  A    between atoms: C_6  and  C_7
REMARK    4  A    between atoms: C_7  and  N_8
REMARK    5  A    between atoms: C_14  and  C_15
REMARK    6  A    between atoms: N_17  and  C_18
REMARK                            x       y       z     vdW  Elec       q    Type
REMARK                         _______ _______ _______ _____ _____    ______ ____
ROOT
ATOM      1  N   UNL     1       4.159   4.232  18.732  0.00  0.00    +0.000 N 
ATOM      2  C   UNL     1       4.009   3.036  19.421  0.00  0.00    +0.000 C 
ATOM      3  O   UNL     1       4.909   2.554  20.108  0.00  0.00    +0.000 OA
ATOM      4  C   UNL     1       2.641   2.341  19.316  0.00  0.00    +0.000 C 
ATOM      5  O   UNL     1       1.734   2.844  18.348  0.00  0.00    +0.000 OA
ATOM      6  C   UNL     1       1.651   4.262  18.456  0.00  0.00    +0.000 C 
ATOM      7  C   UNL     1       3.001   4.906  18.102  0.00  0.00    +0.000 C 
ENDROOT
BRANCH   7   8
ATOM      8  C   UNL     1       2.873   6.382  18.511  0.00  0.00    +0.000 C 
ATOM      9  O   UNL     1       3.459   7.247  17.865  0.00  0.00    +0.000 OA
ATOM     10  N   UNL     1       1.958   6.621  19.533  0.00  0.00    +0.000 N 
ATOM     11  H   UNL     1       1.620   5.804  20.035  0.00  0.00    +0.000 HD
BRANCH  10  12
ATOM     12  C   UNL     1       1.621   7.885  20.064  0.00  0.00    +0.000 A 
ATOM     13  C   UNL     1       1.505   8.130  21.439  0.00  0.00    +0.000 A 
ATOM     14  C   UNL     1       1.135   9.388  21.923  0.00  0.00    +0.000 A 
ATOM     15  C   UNL     1       0.881  10.416  21.027  0.00  0.00    +0.000 A 
ATOM     16  F   UNL     1       0.510  11.618  21.489  0.00  0.00    +0.000 F 
ATOM     17  C   UNL     1       1.007  10.194  19.662  0.00  0.00    +0.000 A 
ATOM     18  F   UNL     1       0.751  11.183  18.795  0.00  0.00    +0.000 F 
ATOM     19  C   UNL     1       1.389   8.941  19.173  0.00  0.00    +0.000 A 
ENDBRANCH  10  12
ENDBRANCH   7   8
BRANCH   1  20
ATOM     20  C   UNL     1       5.512   4.752  18.491  0.00  0.00    +0.000 C 
BRANCH  20  24
ATOM     21  C   UNL     1       6.743   4.528  14.347  0.00  0.00    +0.000 A 
ATOM     22  C   UNL     1       5.725   3.705  14.828  0.00  0.00    +0.000 A 
ATOM     23  C   UNL     1       5.346   3.756  16.172  0.00  0.00    +0.000 A 
ATOM     24  C   UNL     1       5.990   4.626  17.064  0.00  0.00    +0.000 A 
ATOM     25  C   UNL     1       7.039   5.422  16.581  0.00  0.00    +0.000 A 
ATOM     26  C   UNL     1       7.412   5.373  15.231  0.00  0.00    +0.000 A 
BRANCH  21  28
ATOM     27  C   UNL     1       6.239   3.434  12.311  0.00  0.00    +0.000 C 
ATOM     28  O   UNL     1       7.018   4.399  13.012  0.00  0.00    +0.000 OA
ENDBRANCH  21  28
ENDBRANCH  20  24
ENDBRANCH   1  20
TORSDOF 5
ENDMDL
