MODEL 1
REMARK VINA RESULT:      -8.4      0.000      0.000
REMARK  Name = 
REMARK  9 active torsions:
REMARK  status: ('A' for Active; 'I' for Inactive)
REMARK    1  A    between atoms: C_1  and  C_2
REMARK    2  A    between atoms: C_5  and  C_6
REMARK    3  A    between atoms: C_6  and  O_8
REMARK    4  A    between atoms: O_8  and  C_9
REMARK    5  A    between atoms: C_12  and  C_13
REMARK    6  A    between atoms: C_13  and  S_14
REMARK    7  A    between atoms: S_14  and  C_15
REMARK    8  A    between atoms: C_20  and  C_22
REMARK    9  A    between atoms: C_30  and  C_31
REMARK                            x       y       z     vdW  Elec       q    Type
REMARK                         _______ _______ _______ _____ _____    ______ ____
ROOT
ATOM      1  C   UNL     1       7.562   6.403  18.284  0.00  0.00    +0.000 A 
ATOM      2  C   UNL     1       7.031   5.804  19.356  0.00  0.00    +0.000 A 
ATOM      3  O   UNL     1       6.136   4.756  19.313  0.00  0.00    +0.000 OA
ATOM      4  C   UNL     1       5.680   4.316  18.071  0.00  0.00    +0.000 A 
ATOM      5  C   UNL     1       6.157   4.812  16.919  0.00  0.00    +0.000 A 
ATOM      6  C   UNL     1       7.196   5.863  16.948  0.00  0.00    +0.000 A 
ATOM      7  O   UNL     1       7.753   6.221  15.917  0.00  0.00    +0.000 OA
ENDROOT
BRANCH   1   8
ATOM      8  O   UNL     1       8.506   7.434  18.376  0.00  0.00    +0.000 OA
BRANCH   8   9
ATOM      9  C   UNL     1       7.958   8.653  18.080  0.00  0.00    +0.000 C 
ATOM     10  O   UNL     1       6.905   8.848  17.487  0.00  0.00    +0.000 OA
BRANCH   9  15
ATOM     11  C   UNL     1      11.229  13.020  20.108  0.00  0.00    +0.000 C 
ATOM     12  C   UNL     1      10.409  11.879  19.570  0.00  0.00    +0.000 A 
ATOM     13  C   UNL     1       9.771  11.006  20.466  0.00  0.00    +0.000 A 
ATOM     14  C   UNL     1       8.975   9.954  20.004  0.00  0.00    +0.000 A 
ATOM     15  C   UNL     1       8.800   9.756  18.631  0.00  0.00    +0.000 A 
ATOM     16  C   UNL     1       9.455  10.611  17.731  0.00  0.00    +0.000 A 
ATOM     17  C   UNL     1      10.262  11.671  18.185  0.00  0.00    +0.000 A 
ATOM     18  C   UNL     1      10.951  12.559  17.184  0.00  0.00    +0.000 C 
ENDBRANCH   9  15
ENDBRANCH   8   9
ENDBRANCH   1   8
BRANCH   4  19
ATOM     19  C   UNL     1       4.666   3.195  18.119  0.00  0.00    +0.000 C 
BRANCH  19  20
ATOM     20  S   UNL     1       3.056   3.762  17.503  0.00  0.00    +0.000 S 
BRANCH  20  21
ATOM     21  C   UNL     1       2.437   4.651  18.878  0.00  0.00    +0.000 A 
ATOM     22  N   UNL     1       2.030   4.080  19.992  0.00  0.00    +0.000 NA
ATOM     23  N   UNL     1       1.619   5.015  20.930  0.00  0.00    +0.000 NA
ATOM     24  C   UNL     1       1.703   6.247  20.473  0.00  0.00    +0.000 A 
ATOM     25  N   UNL     1       1.373   7.342  21.238  0.00  0.00    +0.000 N 
ATOM     26  C   UNL     1       1.298   8.645  20.812  0.00  0.00    +0.000 C 
ATOM     27  O   UNL     1       1.442   9.065  19.674  0.00  0.00    +0.000 OA
ATOM     28  S   UNL     1       2.321   6.362  18.889  0.00  0.00    +0.000 S 
ATOM     29  H   UNL     1       1.139   7.115  22.194  0.00  0.00    +0.000 HD
BRANCH  26  30
ATOM     30  C   UNL     1       1.018   9.611  21.926  0.00  0.00    +0.000 C 
ATOM     31  C   UNL     1      -0.258  10.422  21.876  0.00  0.00    +0.000 C 
ATOM     32  C   UNL     1      -0.090   9.361  22.924  0.00  0.00    +0.000 C 
ENDBRANCH  26  30
ENDBRANCH  20  21
ENDBRANCH  19  20
ENDBRANCH   4  19
TORSDOF 7
ENDMDL
MODEL 2
REMARK VINA RESULT:      -7.8      2.715      7.788
REMARK  Name = 
REMARK  9 active torsions:
REMARK  status: ('A' for Active; 'I' for Inactive)
REMARK    1  A    between atoms: C_1  and  C_2
REMARK    2  A    between atoms: C_5  and  C_6
REMARK    3  A    between atoms: C_6  and  O_8
REMARK    4  A    between atoms: O_8  and  C_9
REMARK    5  A    between atoms: C_12  and  C_13
REMARK    6  A    between atoms: C_13  and  S_14
REMARK    7  A    between atoms: S_14  and  C_15
REMARK    8  A    between atoms: C_20  and  C_22
REMARK    9  A    between atoms: C_30  and  C_31
REMARK                            x       y       z     vdW  Elec       q    Type
REMARK                         _______ _______ _______ _____ _____    ______ ____
ROOT
ATOM      1  C   UNL     1       2.701   6.837  19.586  0.00  0.00    +0.000 A 
ATOM      2  C   UNL     1       3.243   5.738  20.123  0.00  0.00    +0.000 A 
ATOM      3  O   UNL     1       3.795   4.697  19.406  0.00  0.00    +0.000 OA
ATOM      4  C   UNL     1       3.731   4.737  18.013  0.00  0.00    +0.000 A 
ATOM      5  C   UNL     1       3.240   5.796  17.352  0.00  0.00    +0.000 A 
ATOM      6  C   UNL     1       2.743   6.966  18.106  0.00  0.00    +0.000 A 
ATOM      7  O   UNL     1       2.433   7.999  17.526  0.00  0.00    +0.000 OA
ENDROOT
BRANCH   1   8
ATOM      8  O   UNL     1       2.196   7.892  20.358  0.00  0.00    +0.000 OA
BRANCH   8   9
ATOM      9  C   UNL     1       0.968   7.594  20.883  0.00  0.00    +0.000 C 
ATOM     10  O   UNL     1       0.470   6.480  20.974  0.00  0.00    +0.000 OA
BRANCH   9  15
ATOM     11  C   UNL     1      -1.661  12.431  22.776  0.00  0.00    +0.000 C 
ATOM     12  C   UNL     1      -0.958  11.198  22.277  0.00  0.00    +0.000 A 
ATOM     13  C   UNL     1      -0.615  10.183  23.187  0.00  0.00    +0.000 A 
ATOM     14  C   UNL     1       0.011   9.010  22.757  0.00  0.00    +0.000 A 
ATOM     15  C   UNL     1       0.305   8.828  21.402  0.00  0.00    +0.000 A 
ATOM     16  C   UNL     1      -0.013   9.848  20.493  0.00  0.00    +0.000 A 
ATOM     17  C   UNL     1      -0.639  11.036  20.915  0.00  0.00    +0.000 A 
ATOM     18  C   UNL     1      -0.955  12.107  19.906  0.00  0.00    +0.000 C 
ENDBRANCH   9  15
ENDBRANCH   8   9
ENDBRANCH   1   8
BRANCH   4  19
ATOM     19  C   UNL     1       4.317   3.534  17.309  0.00  0.00    +0.000 C 
BRANCH  19  20
ATOM     20  S   UNL     1       5.698   4.029  16.240  0.00  0.00    +0.000 S 
BRANCH  20  21
ATOM     21  C   UNL     1       6.670   4.993  17.332  0.00  0.00    +0.000 A 
ATOM     22  N   UNL     1       7.238   4.514  18.418  0.00  0.00    +0.000 NA
ATOM     23  N   UNL     1       7.975   5.482  19.084  0.00  0.00    +0.000 NA
ATOM     24  C   UNL     1       7.904   6.656  18.491  0.00  0.00    +0.000 A 
ATOM     25  N   UNL     1       8.578   7.760  18.959  0.00  0.00    +0.000 N 
ATOM     26  C   UNL     1       8.461   9.047  18.494  0.00  0.00    +0.000 C 
ATOM     27  O   UNL     1       7.699   9.461  17.634  0.00  0.00    +0.000 OA
ATOM     28  S   UNL     1       6.972   6.660  17.064  0.00  0.00    +0.000 S 
ATOM     29  H   UNL     1       9.183   7.566  19.744  0.00  0.00    +0.000 HD
BRANCH  26  30
ATOM     30  C   UNL     1       9.418   9.997  19.152  0.00  0.00    +0.000 C 
ATOM     31  C   UNL     1      10.197  10.958  18.280  0.00  0.00    +0.000 C 
ATOM     32  C   UNL     1       9.140  11.482  19.208  0.00  0.00    +0.000 C 
ENDBRANCH  26  30
ENDBRANCH  20  21
ENDBRANCH  19  20
ENDBRANCH   4  19
TORSDOF 7
ENDMDL
MODEL 3
REMARK VINA RESULT:      -7.7      4.921     10.231
REMARK  Name = 
REMARK  9 active torsions:
REMARK  status: ('A' for Active; 'I' for Inactive)
REMARK    1  A    between atoms: C_1  and  C_2
REMARK    2  A    between atoms: C_5  and  C_6
REMARK    3  A    between atoms: C_6  and  O_8
REMARK    4  A    between atoms: O_8  and  C_9
REMARK    5  A    between atoms: C_12  and  C_13
REMARK    6  A    between atoms: C_13  and  S_14
REMARK    7  A    between atoms: S_14  and  C_15
REMARK    8  A    between atoms: C_20  and  C_22
REMARK    9  A    between atoms: C_30  and  C_31
REMARK                            x       y       z     vdW  Elec       q    Type
REMARK                         _______ _______ _______ _____ _____    ______ ____
ROOT
ATOM      1  C   UNL     1      -0.496  10.509  21.218  0.00  0.00    +0.000 A 
ATOM      2  C   UNL     1      -0.254  10.000  20.004  0.00  0.00    +0.000 A 
ATOM      3  O   UNL     1       0.626   8.971  19.740  0.00  0.00    +0.000 OA
ATOM      4  C   UNL     1       1.384   8.454  20.789  0.00  0.00    +0.000 A 
ATOM      5  C   UNL     1       1.215   8.856  22.058  0.00  0.00    +0.000 A 
ATOM      6  C   UNL     1       0.200   9.883  22.373  0.00  0.00    +0.000 A 
ATOM      7  O   UNL     1      -0.077  10.155  23.535  0.00  0.00    +0.000 OA
ENDROOT
BRANCH   1   8
ATOM      8  O   UNL     1      -1.437  11.523  21.445  0.00  0.00    +0.000 OA
BRANCH   8   9
ATOM      9  C   UNL     1      -1.521  12.384  20.384  0.00  0.00    +0.000 C 
ATOM     10  O   UNL     1      -0.624  13.100  19.960  0.00  0.00    +0.000 OA
BRANCH   9  15
ATOM     11  C   UNL     1      -6.731  11.970  17.819  0.00  0.00    +0.000 C 
ATOM     12  C   UNL     1      -5.374  12.096  18.459  0.00  0.00    +0.000 A 
ATOM     13  C   UNL     1      -5.267  12.655  19.743  0.00  0.00    +0.000 A 
ATOM     14  C   UNL     1      -4.029  12.761  20.383  0.00  0.00    +0.000 A 
ATOM     15  C   UNL     1      -2.870  12.303  19.748  0.00  0.00    +0.000 A 
ATOM     16  C   UNL     1      -2.968  11.765  18.455  0.00  0.00    +0.000 A 
ATOM     17  C   UNL     1      -4.209  11.659  17.800  0.00  0.00    +0.000 A 
ATOM     18  C   UNL     1      -4.266  11.082  16.411  0.00  0.00    +0.000 C 
ENDBRANCH   9  15
ENDBRANCH   8   9
ENDBRANCH   1   8
BRANCH   4  19
ATOM     19  C   UNL     1       2.356   7.362  20.402  0.00  0.00    +0.000 C 
BRANCH  19  20
ATOM     20  S   UNL     1       1.530   5.746  20.388  0.00  0.00    +0.000 S 
BRANCH  20  21
ATOM     21  C   UNL     1       2.631   4.788  19.421  0.00  0.00    +0.000 A 
ATOM     22  N   UNL     1       2.937   3.536  19.689  0.00  0.00    +0.000 NA
ATOM     23  N   UNL     1       3.805   3.005  18.747  0.00  0.00    +0.000 NA
ATOM     24  C   UNL     1       4.143   3.887  17.829  0.00  0.00    +0.000 A 
ATOM     25  N   UNL     1       4.975   3.576  16.778  0.00  0.00    +0.000 N 
ATOM     26  C   UNL     1       5.489   4.453  15.856  0.00  0.00    +0.000 C 
ATOM     27  O   UNL     1       5.361   5.668  15.832  0.00  0.00    +0.000 OA
ATOM     28  S   UNL     1       3.402   5.410  18.020  0.00  0.00    +0.000 S 
ATOM     29  H   UNL     1       5.234   2.600  16.739  0.00  0.00    +0.000 HD
BRANCH  26  30
ATOM     30  C   UNL     1       6.274   3.771  14.774  0.00  0.00    +0.000 C 
ATOM     31  C   UNL     1       5.734   3.801  13.360  0.00  0.00    +0.000 C 
ATOM     32  C   UNL     1       6.982   4.563  13.697  0.00  0.00    +0.000 C 
ENDBRANCH  26  30
ENDBRANCH  20  21
ENDBRANCH  19  20
ENDBRANCH   4  19
TORSDOF 7
ENDMDL
MODEL 4
REMARK VINA RESULT:      -7.7      5.113     10.158
REMARK  Name = 
REMARK  9 active torsions:
REMARK  status: ('A' for Active; 'I' for Inactive)
REMARK    1  A    between atoms: C_1  and  C_2
REMARK    2  A    between atoms: C_5  and  C_6
REMARK    3  A    between atoms: C_6  and  O_8
REMARK    4  A    between atoms: O_8  and  C_9
REMARK    5  A    between atoms: C_12  and  C_13
REMARK    6  A    between atoms: C_13  and  S_14
REMARK    7  A    between atoms: S_14  and  C_15
REMARK    8  A    between atoms: C_20  and  C_22
REMARK    9  A    between atoms: C_30  and  C_31
REMARK                            x       y       z     vdW  Elec       q    Type
REMARK                         _______ _______ _______ _____ _____    ______ ____
ROOT
ATOM      1  C   UNL     1       0.793  10.733  20.762  0.00  0.00    +0.000 A 
ATOM      2  C   UNL     1       1.062   9.506  21.224  0.00  0.00    +0.000 A 
ATOM      3  O   UNL     1       1.522   8.456  20.457  0.00  0.00    +0.000 OA
ATOM      4  C   UNL     1       1.655   8.641  19.082  0.00  0.00    +0.000 A 
ATOM      5  C   UNL     1       1.445   9.831  18.498  0.00  0.00    +0.000 A 
ATOM      6  C   UNL     1       1.056  10.994  19.322  0.00  0.00    +0.000 A 
ATOM      7  O   UNL     1       1.008  12.118  18.837  0.00  0.00    +0.000 OA
ENDROOT
BRANCH   1   8
ATOM      8  O   UNL     1       0.374  11.784  21.589  0.00  0.00    +0.000 OA
BRANCH   8   9
ATOM      9  C   UNL     1      -0.562  11.371  22.500  0.00  0.00    +0.000 C 
ATOM     10  O   UNL     1      -0.365  10.636  23.457  0.00  0.00    +0.000 OA
BRANCH   9  15
ATOM     11  C   UNL     1      -5.749  13.815  21.492  0.00  0.00    +0.000 C 
ATOM     12  C   UNL     1      -4.422  13.157  21.761  0.00  0.00    +0.000 A 
ATOM     13  C   UNL     1      -3.496  13.019  20.713  0.00  0.00    +0.000 A 
ATOM     14  C   UNL     1      -2.242  12.442  20.931  0.00  0.00    +0.000 A 
ATOM     15  C   UNL     1      -1.889  11.991  22.206  0.00  0.00    +0.000 A 
ATOM     16  C   UNL     1      -2.819  12.104  23.251  0.00  0.00    +0.000 A 
ATOM     17  C   UNL     1      -4.087  12.679  23.042  0.00  0.00    +0.000 A 
ATOM     18  C   UNL     1      -5.056  12.773  24.190  0.00  0.00    +0.000 C 
ENDBRANCH   9  15
ENDBRANCH   8   9
ENDBRANCH   1   8
BRANCH   4  19
ATOM     19  C   UNL     1       2.119   7.424  18.312  0.00  0.00    +0.000 C 
BRANCH  19  20
ATOM     20  S   UNL     1       2.933   6.240  19.421  0.00  0.00    +0.000 S 
BRANCH  20  21
ATOM     21  C   UNL     1       3.677   5.136  18.283  0.00  0.00    +0.000 A 
ATOM     22  N   UNL     1       3.580   3.826  18.367  0.00  0.00    +0.000 NA
ATOM     23  N   UNL     1       4.235   3.193  17.322  0.00  0.00    +0.000 NA
ATOM     24  C   UNL     1       4.825   4.048  16.514  0.00  0.00    +0.000 A 
ATOM     25  N   UNL     1       5.513   3.648  15.392  0.00  0.00    +0.000 N 
ATOM     26  C   UNL     1       6.270   4.446  14.569  0.00  0.00    +0.000 C 
ATOM     27  O   UNL     1       6.526   5.632  14.713  0.00  0.00    +0.000 OA
ATOM     28  S   UNL     1       4.595   5.682  16.940  0.00  0.00    +0.000 S 
ATOM     29  H   UNL     1       5.456   2.656  15.210  0.00  0.00    +0.000 HD
BRANCH  26  30
ATOM     30  C   UNL     1       6.799   3.716  13.369  0.00  0.00    +0.000 C 
ATOM     31  C   UNL     1       5.849   3.414  12.230  0.00  0.00    +0.000 C 
ATOM     32  C   UNL     1       6.956   4.408  12.034  0.00  0.00    +0.000 C 
ENDBRANCH  26  30
ENDBRANCH  20  21
ENDBRANCH  19  20
ENDBRANCH   4  19
TORSDOF 7
ENDMDL
MODEL 5
REMARK VINA RESULT:      -7.7      4.840      7.197
REMARK  Name = 
REMARK  9 active torsions:
REMARK  status: ('A' for Active; 'I' for Inactive)
REMARK    1  A    between atoms: C_1  and  C_2
REMARK    2  A    between atoms: C_5  and  C_6
REMARK    3  A    between atoms: C_6  and  O_8
REMARK    4  A    between atoms: O_8  and  C_9
REMARK    5  A    between atoms: C_12  and  C_13
REMARK    6  A    between atoms: C_13  and  S_14
REMARK    7  A    between atoms: S_14  and  C_15
REMARK    8  A    between atoms: C_20  and  C_22
REMARK    9  A    between atoms: C_30  and  C_31
REMARK                            x       y       z     vdW  Elec       q    Type
REMARK                         _______ _______ _______ _____ _____    ______ ____
ROOT
ATOM      1  C   UNL     1       2.991   5.181  18.554  0.00  0.00    +0.000 A 
ATOM      2  C   UNL     1       3.130   6.493  18.335  0.00  0.00    +0.000 A 
ATOM      3  O   UNL     1       2.651   7.487  19.162  0.00  0.00    +0.000 OA
ATOM      4  C   UNL     1       1.900   7.123  20.279  0.00  0.00    +0.000 A 
ATOM      5  C   UNL     1       1.713   5.841  20.627  0.00  0.00    +0.000 A 
ATOM      6  C   UNL     1       2.311   4.765  19.809  0.00  0.00    +0.000 A 
ATOM      7  O   UNL     1       2.283   3.601  20.189  0.00  0.00    +0.000 OA
ENDROOT
BRANCH   1   8
ATOM      8  O   UNL     1       3.538   4.205  17.709  0.00  0.00    +0.000 OA
BRANCH   8   9
ATOM      9  C   UNL     1       4.880   4.040  17.927  0.00  0.00    +0.000 C 
ATOM     10  O   UNL     1       5.403   3.661  18.966  0.00  0.00    +0.000 OA
BRANCH   9  15
ATOM     11  C   UNL     1       7.777   5.171  13.006  0.00  0.00    +0.000 C 
ATOM     12  C   UNL     1       7.031   4.848  14.273  0.00  0.00    +0.000 A 
ATOM     13  C   UNL     1       7.554   5.269  15.507  0.00  0.00    +0.000 A 
ATOM     14  C   UNL     1       6.874   5.015  16.702  0.00  0.00    +0.000 A 
ATOM     15  C   UNL     1       5.653   4.335  16.684  0.00  0.00    +0.000 A 
ATOM     16  C   UNL     1       5.139   3.890  15.456  0.00  0.00    +0.000 A 
ATOM     17  C   UNL     1       5.817   4.136  14.247  0.00  0.00    +0.000 A 
ATOM     18  C   UNL     1       5.232   3.635  12.954  0.00  0.00    +0.000 C 
ENDBRANCH   9  15
ENDBRANCH   8   9
ENDBRANCH   1   8
BRANCH   4  19
ATOM     19  C   UNL     1       1.375   8.278  21.103  0.00  0.00    +0.000 C 
BRANCH  19  20
ATOM     20  S   UNL     1       0.699   9.576  20.029  0.00  0.00    +0.000 S 
BRANCH  20  21
ATOM     21  C   UNL     1      -0.107  10.615  21.185  0.00  0.00    +0.000 A 
ATOM     22  N   UNL     1       0.070  10.532  22.487  0.00  0.00    +0.000 NA
ATOM     23  N   UNL     1      -0.664  11.493  23.168  0.00  0.00    +0.000 NA
ATOM     24  C   UNL     1      -1.386  12.235  22.355  0.00  0.00    +0.000 A 
ATOM     25  N   UNL     1      -2.173  13.270  22.805  0.00  0.00    +0.000 N 
ATOM     26  C   UNL     1      -3.059  14.008  22.059  0.00  0.00    +0.000 C 
ATOM     27  O   UNL     1      -3.361  13.844  20.887  0.00  0.00    +0.000 OA
ATOM     28  S   UNL     1      -1.198  11.849  20.706  0.00  0.00    +0.000 S 
ATOM     29  H   UNL     1      -2.083  13.450  23.795  0.00  0.00    +0.000 HD
BRANCH  26  30
ATOM     30  C   UNL     1      -3.679  15.135  22.832  0.00  0.00    +0.000 C 
ATOM     31  C   UNL     1      -3.038  16.503  22.753  0.00  0.00    +0.000 C 
ATOM     32  C   UNL     1      -4.385  16.274  22.131  0.00  0.00    +0.000 C 
ENDBRANCH  26  30
ENDBRANCH  20  21
ENDBRANCH  19  20
ENDBRANCH   4  19
TORSDOF 7
ENDMDL
MODEL 6
REMARK VINA RESULT:      -7.6      5.088      6.942
REMARK  Name = 
REMARK  9 active torsions:
REMARK  status: ('A' for Active; 'I' for Inactive)
REMARK    1  A    between atoms: C_1  and  C_2
REMARK    2  A    between atoms: C_5  and  C_6
REMARK    3  A    between atoms: C_6  and  O_8
REMARK    4  A    between atoms: O_8  and  C_9
REMARK    5  A    between atoms: C_12  and  C_13
REMARK    6  A    between atoms: C_13  and  S_14
REMARK    7  A    between atoms: S_14  and  C_15
REMARK    8  A    between atoms: C_20  and  C_22
REMARK    9  A    between atoms: C_30  and  C_31
REMARK                            x       y       z     vdW  Elec       q    Type
REMARK                         _______ _______ _______ _____ _____    ______ ____
ROOT
ATOM      1  C   UNL     1       3.598   5.140  18.062  0.00  0.00    +0.000 A 
ATOM      2  C   UNL     1       3.622   6.375  17.549  0.00  0.00    +0.000 A 
ATOM      3  O   UNL     1       3.035   7.481  18.126  0.00  0.00    +0.000 OA
ATOM      4  C   UNL     1       2.293   7.311  19.295  0.00  0.00    +0.000 A 
ATOM      5  C   UNL     1       2.215   6.130  19.926  0.00  0.00    +0.000 A 
ATOM      6  C   UNL     1       2.929   4.958  19.377  0.00  0.00    +0.000 A 
ATOM      7  O   UNL     1       2.998   3.913  20.012  0.00  0.00    +0.000 OA
ENDROOT
BRANCH   1   8
ATOM      8  O   UNL     1       4.253   4.053  17.464  0.00  0.00    +0.000 OA
BRANCH   8   9
ATOM      9  C   UNL     1       5.611   4.221  17.457  0.00  0.00    +0.000 C 
ATOM     10  O   UNL     1       6.348   4.196  18.434  0.00  0.00    +0.000 OA
BRANCH   9  15
ATOM     11  C   UNL     1       7.436   4.849  11.965  0.00  0.00    +0.000 C 
ATOM     12  C   UNL     1       6.967   4.656  13.382  0.00  0.00    +0.000 A 
ATOM     13  C   UNL     1       7.718   5.199  14.437  0.00  0.00    +0.000 A 
ATOM     14  C   UNL     1       7.298   5.067  15.764  0.00  0.00    +0.000 A 
ATOM     15  C   UNL     1       6.113   4.388  16.061  0.00  0.00    +0.000 A 
ATOM     16  C   UNL     1       5.371   3.822  15.012  0.00  0.00    +0.000 A 
ATOM     17  C   UNL     1       5.787   3.945  13.673  0.00  0.00    +0.000 A 
ATOM     18  C   UNL     1       4.964   3.316  12.581  0.00  0.00    +0.000 C 
ENDBRANCH   9  15
ENDBRANCH   8   9
ENDBRANCH   1   8
BRANCH   4  19
ATOM     19  C   UNL     1       1.645   8.568  19.832  0.00  0.00    +0.000 C 
BRANCH  19  20
ATOM     20  S   UNL     1       1.297   9.734  18.485  0.00  0.00    +0.000 S 
BRANCH  20  21
ATOM     21  C   UNL     1       0.080  10.765  19.208  0.00  0.00    +0.000 A 
ATOM     22  N   UNL     1      -0.538  11.728  18.559  0.00  0.00    +0.000 NA
ATOM     23  N   UNL     1      -1.476  12.368  19.358  0.00  0.00    +0.000 NA
ATOM     24  C   UNL     1      -1.500  11.882  20.582  0.00  0.00    +0.000 A 
ATOM     25  N   UNL     1      -2.371  12.345  21.541  0.00  0.00    +0.000 N 
ATOM     26  C   UNL     1      -2.381  12.001  22.870  0.00  0.00    +0.000 C 
ATOM     27  O   UNL     1      -1.589  11.280  23.458  0.00  0.00    +0.000 OA
ATOM     28  S   UNL     1      -0.418  10.592  20.841  0.00  0.00    +0.000 S 
ATOM     29  H   UNL     1      -3.030  13.028  21.197  0.00  0.00    +0.000 HD
BRANCH  26  30
ATOM     30  C   UNL     1      -3.531  12.602  23.622  0.00  0.00    +0.000 C 
ATOM     31  C   UNL     1      -3.365  13.986  24.213  0.00  0.00    +0.000 C 
ATOM     32  C   UNL     1      -4.309  13.774  23.066  0.00  0.00    +0.000 C 
ENDBRANCH  26  30
ENDBRANCH  20  21
ENDBRANCH  19  20
ENDBRANCH   4  19
TORSDOF 7
ENDMDL
MODEL 7
REMARK VINA RESULT:      -7.6      4.979      9.749
REMARK  Name = 
REMARK  9 active torsions:
REMARK  status: ('A' for Active; 'I' for Inactive)
REMARK    1  A    between atoms: C_1  and  C_2
REMARK    2  A    between atoms: C_5  and  C_6
REMARK    3  A    between atoms: C_6  and  O_8
REMARK    4  A    between atoms: O_8  and  C_9
REMARK    5  A    between atoms: C_12  and  C_13
REMARK    6  A    between atoms: C_13  and  S_14
REMARK    7  A    between atoms: S_14  and  C_15
REMARK    8  A    between atoms: C_20  and  C_22
REMARK    9  A    between atoms: C_30  and  C_31
REMARK                            x       y       z     vdW  Elec       q    Type
REMARK                         _______ _______ _______ _____ _____    ______ ____
ROOT
ATOM      1  C   UNL     1       0.461   9.924  19.135  0.00  0.00    +0.000 A 
ATOM      2  C   UNL     1       0.130   9.441  20.338  0.00  0.00    +0.000 A 
ATOM      3  O   UNL     1       0.701   8.333  20.928  0.00  0.00    +0.000 OA
ATOM      4  C   UNL     1       1.644   7.602  20.206  0.00  0.00    +0.000 A 
ATOM      5  C   UNL     1       2.084   7.997  19.002  0.00  0.00    +0.000 A 
ATOM      6  C   UNL     1       1.560   9.243  18.403  0.00  0.00    +0.000 A 
ATOM      7  O   UNL     1       2.054   9.702  17.380  0.00  0.00    +0.000 OA
ENDROOT
BRANCH   1   8
ATOM      8  O   UNL     1      -0.113  11.084  18.596  0.00  0.00    +0.000 OA
BRANCH   8   9
ATOM      9  C   UNL     1      -0.904  11.731  19.508  0.00  0.00    +0.000 C 
ATOM     10  O   UNL     1      -0.522  12.304  20.519  0.00  0.00    +0.000 OA
BRANCH   9  15
ATOM     11  C   UNL     1      -6.501  11.721  17.909  0.00  0.00    +0.000 C 
ATOM     12  C   UNL     1      -5.062  11.711  18.350  0.00  0.00    +0.000 A 
ATOM     13  C   UNL     1      -4.121  10.970  17.615  0.00  0.00    +0.000 A 
ATOM     14  C   UNL     1      -2.771  10.960  17.975  0.00  0.00    +0.000 A 
ATOM     15  C   UNL     1      -2.334  11.698  19.080  0.00  0.00    +0.000 A 
ATOM     16  C   UNL     1      -3.274  12.420  19.831  0.00  0.00    +0.000 A 
ATOM     17  C   UNL     1      -4.636  12.433  19.481  0.00  0.00    +0.000 A 
ATOM     18  C   UNL     1      -5.610  13.216  20.320  0.00  0.00    +0.000 C 
ENDBRANCH   9  15
ENDBRANCH   8   9
ENDBRANCH   1   8
BRANCH   4  19
ATOM     19  C   UNL     1       2.183   6.377  20.911  0.00  0.00    +0.000 C 
BRANCH  19  20
ATOM     20  S   UNL     1       1.324   4.882  20.341  0.00  0.00    +0.000 S 
BRANCH  20  21
ATOM     21  C   UNL     1       2.550   4.118  19.353  0.00  0.00    +0.000 A 
ATOM     22  N   UNL     1       2.958   2.879  19.525  0.00  0.00    +0.000 NA
ATOM     23  N   UNL     1       3.913   2.515  18.587  0.00  0.00    +0.000 NA
ATOM     24  C   UNL     1       4.208   3.504  17.769  0.00  0.00    +0.000 A 
ATOM     25  N   UNL     1       5.111   3.366  16.740  0.00  0.00    +0.000 N 
ATOM     26  C   UNL     1       5.583   4.366  15.927  0.00  0.00    +0.000 C 
ATOM     27  O   UNL     1       5.345   5.562  16.004  0.00  0.00    +0.000 OA
ATOM     28  S   UNL     1       3.322   4.932  18.054  0.00  0.00    +0.000 S 
ATOM     29  H   UNL     1       5.460   2.425  16.629  0.00  0.00    +0.000 HD
BRANCH  26  30
ATOM     30  C   UNL     1       6.475   3.859  14.832  0.00  0.00    +0.000 C 
ATOM     31  C   UNL     1       5.917   3.771  13.428  0.00  0.00    +0.000 C 
ATOM     32  C   UNL     1       6.985   4.777  13.744  0.00  0.00    +0.000 C 
ENDBRANCH  26  30
ENDBRANCH  20  21
ENDBRANCH  19  20
ENDBRANCH   4  19
TORSDOF 7
ENDMDL
MODEL 8
REMARK VINA RESULT:      -7.5      5.068      9.829
REMARK  Name = 
REMARK  9 active torsions:
REMARK  status: ('A' for Active; 'I' for Inactive)
REMARK    1  A    between atoms: C_1  and  C_2
REMARK    2  A    between atoms: C_5  and  C_6
REMARK    3  A    between atoms: C_6  and  O_8
REMARK    4  A    between atoms: O_8  and  C_9
REMARK    5  A    between atoms: C_12  and  C_13
REMARK    6  A    between atoms: C_13  and  S_14
REMARK    7  A    between atoms: S_14  and  C_15
REMARK    8  A    between atoms: C_20  and  C_22
REMARK    9  A    between atoms: C_30  and  C_31
REMARK                            x       y       z     vdW  Elec       q    Type
REMARK                         _______ _______ _______ _____ _____    ______ ____
ROOT
ATOM      1  C   UNL     1       0.510   9.920  19.646  0.00  0.00    +0.000 A 
ATOM      2  C   UNL     1       1.321   9.170  18.892  0.00  0.00    +0.000 A 
ATOM      3  O   UNL     1       1.884   7.974  19.286  0.00  0.00    +0.000 OA
ATOM      4  C   UNL     1       1.664   7.528  20.589  0.00  0.00    +0.000 A 
ATOM      5  C   UNL     1       0.846   8.173  21.435  0.00  0.00    +0.000 A 
ATOM      6  C   UNL     1       0.151   9.399  20.991  0.00  0.00    +0.000 A 
ATOM      7  O   UNL     1      -0.713   9.917  21.689  0.00  0.00    +0.000 OA
ENDROOT
BRANCH   1   8
ATOM      8  O   UNL     1      -0.078  11.106  19.185  0.00  0.00    +0.000 OA
BRANCH   8   9
ATOM      9  C   UNL     1      -1.144  10.857  18.362  0.00  0.00    +0.000 C 
ATOM     10  O   UNL     1      -1.138  10.148  17.365  0.00  0.00    +0.000 OA
BRANCH   9  15
ATOM     11  C   UNL     1      -6.009  13.403  20.295  0.00  0.00    +0.000 C 
ATOM     12  C   UNL     1      -4.755  12.759  19.768  0.00  0.00    +0.000 A 
ATOM     13  C   UNL     1      -3.528  13.018  20.402  0.00  0.00    +0.000 A 
ATOM     14  C   UNL     1      -2.347  12.415  19.961  0.00  0.00    +0.000 A 
ATOM     15  C   UNL     1      -2.372  11.536  18.874  0.00  0.00    +0.000 A 
ATOM     16  C   UNL     1      -3.591  11.292  18.222  0.00  0.00    +0.000 A 
ATOM     17  C   UNL     1      -4.785  11.898  18.655  0.00  0.00    +0.000 A 
ATOM     18  C   UNL     1      -6.068  11.614  17.921  0.00  0.00    +0.000 C 
ENDBRANCH   9  15
ENDBRANCH   8   9
ENDBRANCH   1   8
BRANCH   4  19
ATOM     19  C   UNL     1       2.356   6.233  20.950  0.00  0.00    +0.000 C 
BRANCH  19  20
ATOM     20  S   UNL     1       1.429   4.811  20.306  0.00  0.00    +0.000 S 
BRANCH  20  21
ATOM     21  C   UNL     1       2.615   4.048  19.269  0.00  0.00    +0.000 A 
ATOM     22  N   UNL     1       2.995   2.794  19.394  0.00  0.00    +0.000 NA
ATOM     23  N   UNL     1       3.921   2.437  18.425  0.00  0.00    +0.000 NA
ATOM     24  C   UNL     1       4.224   3.444  17.633  0.00  0.00    +0.000 A 
ATOM     25  N   UNL     1       5.102   3.316  16.581  0.00  0.00    +0.000 N 
ATOM     26  C   UNL     1       5.583   4.329  15.789  0.00  0.00    +0.000 C 
ATOM     27  O   UNL     1       5.377   5.528  15.908  0.00  0.00    +0.000 OA
ATOM     28  S   UNL     1       3.381   4.883  17.981  0.00  0.00    +0.000 S 
ATOM     29  H   UNL     1       5.425   2.370  16.433  0.00  0.00    +0.000 HD
BRANCH  26  30
ATOM     30  C   UNL     1       6.439   3.835  14.661  0.00  0.00    +0.000 C 
ATOM     31  C   UNL     1       5.861   3.833  13.262  0.00  0.00    +0.000 C 
ATOM     32  C   UNL     1       6.973   4.779  13.607  0.00  0.00    +0.000 C 
ENDBRANCH  26  30
ENDBRANCH  20  21
ENDBRANCH  19  20
ENDBRANCH   4  19
TORSDOF 7
ENDMDL
MODEL 9
REMARK VINA RESULT:      -7.5      5.078      7.151
REMARK  Name = 
REMARK  9 active torsions:
REMARK  status: ('A' for Active; 'I' for Inactive)
REMARK    1  A    between atoms: C_1  and  C_2
REMARK    2  A    between atoms: C_5  and  C_6
REMARK    3  A    between atoms: C_6  and  O_8
REMARK    4  A    between atoms: O_8  and  C_9
REMARK    5  A    between atoms: C_12  and  C_13
REMARK    6  A    between atoms: C_13  and  S_14
REMARK    7  A    between atoms: S_14  and  C_15
REMARK    8  A    between atoms: C_20  and  C_22
REMARK    9  A    between atoms: C_30  and  C_31
REMARK                            x       y       z     vdW  Elec       q    Type
REMARK                         _______ _______ _______ _____ _____    ______ ____
ROOT
ATOM      1  C   UNL     1       3.567   5.141  19.105  0.00  0.00    +0.000 A 
ATOM      2  C   UNL     1       3.527   6.421  18.715  0.00  0.00    +0.000 A 
ATOM      3  O   UNL     1       2.726   7.393  19.275  0.00  0.00    +0.000 OA
ATOM      4  C   UNL     1       1.829   7.024  20.277  0.00  0.00    +0.000 A 
ATOM      5  C   UNL     1       1.791   5.781  20.779  0.00  0.00    +0.000 A 
ATOM      6  C   UNL     1       2.719   4.753  20.262  0.00  0.00    +0.000 A 
ATOM      7  O   UNL     1       2.807   3.659  20.806  0.00  0.00    +0.000 OA
ENDROOT
BRANCH   1   8
ATOM      8  O   UNL     1       4.435   4.198  18.537  0.00  0.00    +0.000 OA
BRANCH   8   9
ATOM      9  C   UNL     1       4.024   3.819  17.287  0.00  0.00    +0.000 C 
ATOM     10  O   UNL     1       2.951   3.305  17.003  0.00  0.00    +0.000 OA
BRANCH   9  15
ATOM     11  C   UNL     1       7.955   5.164  13.210  0.00  0.00    +0.000 C 
ATOM     12  C   UNL     1       6.944   4.786  14.259  0.00  0.00    +0.000 A 
ATOM     13  C   UNL     1       7.148   5.187  15.589  0.00  0.00    +0.000 A 
ATOM     14  C   UNL     1       6.217   4.882  16.585  0.00  0.00    +0.000 A 
ATOM     15  C   UNL     1       5.057   4.169  16.267  0.00  0.00    +0.000 A 
ATOM     16  C   UNL     1       4.861   3.744  14.944  0.00  0.00    +0.000 A 
ATOM     17  C   UNL     1       5.794   4.042  13.934  0.00  0.00    +0.000 A 
ATOM     18  C   UNL     1       5.545   3.560  12.530  0.00  0.00    +0.000 C 
ENDBRANCH   9  15
ENDBRANCH   8   9
ENDBRANCH   1   8
BRANCH   4  19
ATOM     19  C   UNL     1       0.957   8.144  20.802  0.00  0.00    +0.000 C 
BRANCH  19  20
ATOM     20  S   UNL     1       0.938   9.538  19.639  0.00  0.00    +0.000 S 
BRANCH  20  21
ATOM     21  C   UNL     1       0.510  10.873  20.688  0.00  0.00    +0.000 A 
ATOM     22  N   UNL     1       1.336  11.849  21.000  0.00  0.00    +0.000 NA
ATOM     23  N   UNL     1       0.733  12.792  21.819  0.00  0.00    +0.000 NA
ATOM     24  C   UNL     1      -0.509  12.471  22.116  0.00  0.00    +0.000 A 
ATOM     25  N   UNL     1      -1.312  13.273  22.894  0.00  0.00    +0.000 N 
ATOM     26  C   UNL     1      -2.563  12.963  23.368  0.00  0.00    +0.000 C 
ATOM     27  O   UNL     1      -3.165  11.907  23.245  0.00  0.00    +0.000 OA
ATOM     28  S   UNL     1      -1.047  11.025  21.392  0.00  0.00    +0.000 S 
ATOM     29  H   UNL     1      -0.886  14.153  23.147  0.00  0.00    +0.000 HD
BRANCH  26  30
ATOM     30  C   UNL     1      -3.212  14.103  24.096  0.00  0.00    +0.000 C 
ATOM     31  C   UNL     1      -3.734  15.273  23.290  0.00  0.00    +0.000 C 
ATOM     32  C   UNL     1      -4.699  14.360  23.989  0.00  0.00    +0.000 C 
ENDBRANCH  26  30
ENDBRANCH  20  21
ENDBRANCH  19  20
ENDBRANCH   4  19
TORSDOF 7
ENDMDL
