MODEL 1
REMARK VINA RESULT:      -6.8      0.000      0.000
REMARK  Name = 
REMARK  9 active torsions:
REMARK  status: ('A' for Active; 'I' for Inactive)
REMARK    1  A    between atoms: C_1  and  C_2
REMARK    2  A    between atoms: C_2  and  O_3
REMARK    3  A    between atoms: O_3  and  C_4
REMARK    4  A    between atoms: C_7  and  O_8
REMARK    5  A    between atoms: O_8  and  C_9
REMARK    6  A    between atoms: C_9  and  C_10
REMARK    7  A    between atoms: N_12  and  C_13
REMARK    8  A    between atoms: C_16  and  O_17
REMARK    9  A    between atoms: O_17  and  C_18
REMARK                            x       y       z     vdW  Elec       q    Type
REMARK                         _______ _______ _______ _____ _____    ______ ____
ROOT
ATOM      1  C   UNL     1       7.367   5.288  17.030  0.00  0.00    +0.000 C 
ATOM      2  O   UNL     1       8.052   4.277  17.162  0.00  0.00    +0.000 OA
ATOM      3  N   UNL     1       6.706   5.693  15.881  0.00  0.00    +0.000 N 
ATOM      4  H   UNL     1       6.311   6.629  15.913  0.00  0.00    +0.000 HD
ENDROOT
BRANCH   3   5
ATOM      5  C   UNL     1       6.585   4.968  14.681  0.00  0.00    +0.000 A 
ATOM      6  C   UNL     1       7.526   5.042  13.653  0.00  0.00    +0.000 A 
ATOM      7  C   UNL     1       7.358   4.302  12.482  0.00  0.00    +0.000 A 
ATOM      8  C   UNL     1       6.258   3.464  12.324  0.00  0.00    +0.000 A 
ATOM      9  C   UNL     1       5.313   3.378  13.344  0.00  0.00    +0.000 A 
ATOM     10  C   UNL     1       5.482   4.118  14.525  0.00  0.00    +0.000 A 
BRANCH   8  11
ATOM     11  O   UNL     1       6.193   2.819  11.120  0.00  0.00    +0.000 OA
ATOM     12  C   UNL     1       6.218   1.399  11.179  0.00  0.00    +0.000 C 
ENDBRANCH   8  11
ENDBRANCH   3   5
BRANCH   1  13
ATOM     13  C   UNL     1       7.195   6.246  18.212  0.00  0.00    +0.000 C 
BRANCH  13  14
ATOM     14  O   UNL     1       6.349   5.685  19.210  0.00  0.00    +0.000 OA
BRANCH  14  18
ATOM     15  C   UNL     1       2.638   4.172  18.084  0.00  0.00    +0.000 A 
ATOM     16  C   UNL     1       3.692   3.345  18.470  0.00  0.00    +0.000 A 
ATOM     17  C   UNL     1       4.921   3.893  18.833  0.00  0.00    +0.000 A 
ATOM     18  C   UNL     1       5.118   5.271  18.783  0.00  0.00    +0.000 A 
ATOM     19  C   UNL     1       4.077   6.103  18.365  0.00  0.00    +0.000 A 
ATOM     20  C   UNL     1       2.838   5.552  18.008  0.00  0.00    +0.000 A 
BRANCH  15  21
ATOM     21  O   UNL     1       1.471   3.525  17.796  0.00  0.00    +0.000 OA
BRANCH  21  23
ATOM     22  C   UNL     1       0.721   3.116  20.014  0.00  0.00    +0.000 C 
ATOM     23  C   UNL     1       1.096   2.477  18.689  0.00  0.00    +0.000 C 
ENDBRANCH  21  23
ENDBRANCH  15  21
ENDBRANCH  14  18
ENDBRANCH  13  14
ENDBRANCH   1  13
TORSDOF 7
ENDMDL
MODEL 2
REMARK VINA RESULT:      -6.8      0.255      1.056
REMARK  Name = 
REMARK  9 active torsions:
REMARK  status: ('A' for Active; 'I' for Inactive)
REMARK    1  A    between atoms: C_1  and  C_2
REMARK    2  A    between atoms: C_2  and  O_3
REMARK    3  A    between atoms: O_3  and  C_4
REMARK    4  A    between atoms: C_7  and  O_8
REMARK    5  A    between atoms: O_8  and  C_9
REMARK    6  A    between atoms: C_9  and  C_10
REMARK    7  A    between atoms: N_12  and  C_13
REMARK    8  A    between atoms: C_16  and  O_17
REMARK    9  A    between atoms: O_17  and  C_18
REMARK                            x       y       z     vdW  Elec       q    Type
REMARK                         _______ _______ _______ _____ _____    ______ ____
ROOT
ATOM      1  C   UNL     1       7.281   5.370  16.806  0.00  0.00    +0.000 C 
ATOM      2  O   UNL     1       8.035   4.411  16.946  0.00  0.00    +0.000 OA
ATOM      3  N   UNL     1       6.540   5.680  15.676  0.00  0.00    +0.000 N 
ATOM      4  H   UNL     1       6.088   6.590  15.688  0.00  0.00    +0.000 HD
ENDROOT
BRANCH   3   5
ATOM      5  C   UNL     1       6.408   4.894  14.515  0.00  0.00    +0.000 A 
ATOM      6  C   UNL     1       5.308   4.069  14.280  0.00  0.00    +0.000 A 
ATOM      7  C   UNL     1       5.227   3.310  13.113  0.00  0.00    +0.000 A 
ATOM      8  C   UNL     1       6.234   3.372  12.154  0.00  0.00    +0.000 A 
ATOM      9  C   UNL     1       7.336   4.195  12.374  0.00  0.00    +0.000 A 
ATOM     10  C   UNL     1       7.418   4.964  13.546  0.00  0.00    +0.000 A 
BRANCH   8  11
ATOM     11  O   UNL     1       6.051   2.557  11.072  0.00  0.00    +0.000 OA
ATOM     12  C   UNL     1       6.897   1.416  11.010  0.00  0.00    +0.000 C 
ENDBRANCH   8  11
ENDBRANCH   3   5
BRANCH   1  13
ATOM     13  C   UNL     1       7.106   6.369  17.952  0.00  0.00    +0.000 C 
BRANCH  13  14
ATOM     14  O   UNL     1       6.300   5.823  18.991  0.00  0.00    +0.000 OA
BRANCH  14  18
ATOM     15  C   UNL     1       2.600   4.194  18.001  0.00  0.00    +0.000 A 
ATOM     16  C   UNL     1       3.703   3.400  18.308  0.00  0.00    +0.000 A 
ATOM     17  C   UNL     1       4.926   3.986  18.627  0.00  0.00    +0.000 A 
ATOM     18  C   UNL     1       5.066   5.373  18.612  0.00  0.00    +0.000 A 
ATOM     19  C   UNL     1       3.973   6.173  18.273  0.00  0.00    +0.000 A 
ATOM     20  C   UNL     1       2.740   5.583  17.961  0.00  0.00    +0.000 A 
BRANCH  15  21
ATOM     21  O   UNL     1       1.445   3.509  17.751  0.00  0.00    +0.000 OA
BRANCH  21  23
ATOM     22  C   UNL     1       0.733   3.204  19.998  0.00  0.00    +0.000 C 
ATOM     23  C   UNL     1       1.092   2.503  18.700  0.00  0.00    +0.000 C 
ENDBRANCH  21  23
ENDBRANCH  15  21
ENDBRANCH  14  18
ENDBRANCH  13  14
ENDBRANCH   1  13
TORSDOF 7
ENDMDL
MODEL 3
REMARK VINA RESULT:      -6.7      0.349      1.491
REMARK  Name = 
REMARK  9 active torsions:
REMARK  status: ('A' for Active; 'I' for Inactive)
REMARK    1  A    between atoms: C_1  and  C_2
REMARK    2  A    between atoms: C_2  and  O_3
REMARK    3  A    between atoms: O_3  and  C_4
REMARK    4  A    between atoms: C_7  and  O_8
REMARK    5  A    between atoms: O_8  and  C_9
REMARK    6  A    between atoms: C_9  and  C_10
REMARK    7  A    between atoms: N_12  and  C_13
REMARK    8  A    between atoms: C_16  and  O_17
REMARK    9  A    between atoms: O_17  and  C_18
REMARK                            x       y       z     vdW  Elec       q    Type
REMARK                         _______ _______ _______ _____ _____    ______ ____
ROOT
ATOM      1  C   UNL     1       7.374   5.317  16.786  0.00  0.00    +0.000 C 
ATOM      2  O   UNL     1       8.016   4.282  16.951  0.00  0.00    +0.000 OA
ATOM      3  N   UNL     1       6.672   5.681  15.648  0.00  0.00    +0.000 N 
ATOM      4  H   UNL     1       6.324   6.636  15.637  0.00  0.00    +0.000 HD
ENDROOT
BRANCH   3   5
ATOM      5  C   UNL     1       6.453   4.887  14.506  0.00  0.00    +0.000 A 
ATOM      6  C   UNL     1       5.303   4.117  14.328  0.00  0.00    +0.000 A 
ATOM      7  C   UNL     1       5.136   3.347  13.176  0.00  0.00    +0.000 A 
ATOM      8  C   UNL     1       6.105   3.344  12.177  0.00  0.00    +0.000 A 
ATOM      9  C   UNL     1       7.256   4.112  12.340  0.00  0.00    +0.000 A 
ATOM     10  C   UNL     1       7.424   4.892  13.495  0.00  0.00    +0.000 A 
BRANCH   8  11
ATOM     11  O   UNL     1       5.837   2.525  11.116  0.00  0.00    +0.000 OA
ATOM     12  C   UNL     1       6.574   1.310  11.073  0.00  0.00    +0.000 C 
ENDBRANCH   8  11
ENDBRANCH   3   5
BRANCH   1  13
ATOM     13  C   UNL     1       7.312   6.355  17.909  0.00  0.00    +0.000 C 
BRANCH  13  14
ATOM     14  O   UNL     1       6.702   5.816  19.075  0.00  0.00    +0.000 OA
BRANCH  14  18
ATOM     15  C   UNL     1       2.917   4.257  18.318  0.00  0.00    +0.000 A 
ATOM     16  C   UNL     1       3.200   5.615  18.191  0.00  0.00    +0.000 A 
ATOM     17  C   UNL     1       4.480   6.097  18.461  0.00  0.00    +0.000 A 
ATOM     18  C   UNL     1       5.481   5.229  18.892  0.00  0.00    +0.000 A 
ATOM     19  C   UNL     1       5.195   3.872  19.053  0.00  0.00    +0.000 A 
ATOM     20  C   UNL     1       3.910   3.386  18.773  0.00  0.00    +0.000 A 
BRANCH  15  21
ATOM     21  O   UNL     1       1.644   3.897  17.981  0.00  0.00    +0.000 OA
BRANCH  21  23
ATOM     22  C   UNL     1       0.764   3.551  20.162  0.00  0.00    +0.000 C 
ATOM     23  C   UNL     1       1.028   2.912  18.810  0.00  0.00    +0.000 C 
ENDBRANCH  21  23
ENDBRANCH  15  21
ENDBRANCH  14  18
ENDBRANCH  13  14
ENDBRANCH   1  13
TORSDOF 7
ENDMDL
MODEL 4
REMARK VINA RESULT:      -6.6      5.641      8.807
REMARK  Name = 
REMARK  9 active torsions:
REMARK  status: ('A' for Active; 'I' for Inactive)
REMARK    1  A    between atoms: C_1  and  C_2
REMARK    2  A    between atoms: C_2  and  O_3
REMARK    3  A    between atoms: O_3  and  C_4
REMARK    4  A    between atoms: C_7  and  O_8
REMARK    5  A    between atoms: O_8  and  C_9
REMARK    6  A    between atoms: C_9  and  C_10
REMARK    7  A    between atoms: N_12  and  C_13
REMARK    8  A    between atoms: C_16  and  O_17
REMARK    9  A    between atoms: O_17  and  C_18
REMARK                            x       y       z     vdW  Elec       q    Type
REMARK                         _______ _______ _______ _____ _____    ______ ____
ROOT
ATOM      1  C   UNL     1       7.916   8.038  18.040  0.00  0.00    +0.000 C 
ATOM      2  O   UNL     1       8.426   7.212  18.792  0.00  0.00    +0.000 OA
ATOM      3  N   UNL     1       6.865   7.818  17.162  0.00  0.00    +0.000 N 
ATOM      4  H   UNL     1       6.673   8.577  16.514  0.00  0.00    +0.000 HD
ENDROOT
BRANCH   3   5
ATOM      5  C   UNL     1       6.096   6.644  17.049  0.00  0.00    +0.000 A 
ATOM      6  C   UNL     1       4.768   6.565  17.467  0.00  0.00    +0.000 A 
ATOM      7  C   UNL     1       4.051   5.376  17.332  0.00  0.00    +0.000 A 
ATOM      8  C   UNL     1       4.641   4.252  16.764  0.00  0.00    +0.000 A 
ATOM      9  C   UNL     1       5.966   4.318  16.337  0.00  0.00    +0.000 A 
ATOM     10  C   UNL     1       6.689   5.515  16.467  0.00  0.00    +0.000 A 
BRANCH   8  11
ATOM     11  O   UNL     1       3.844   3.142  16.718  0.00  0.00    +0.000 OA
ATOM     12  C   UNL     1       2.719   3.154  17.587  0.00  0.00    +0.000 C 
ENDBRANCH   8  11
ENDBRANCH   3   5
BRANCH   1  13
ATOM     13  C   UNL     1       8.454   9.470  18.012  0.00  0.00    +0.000 C 
BRANCH  13  14
ATOM     14  O   UNL     1       9.167   9.775  19.205  0.00  0.00    +0.000 OA
BRANCH  14  18
ATOM     15  C   UNL     1      11.424  13.249  18.793  0.00  0.00    +0.000 A 
ATOM     16  C   UNL     1      10.998  12.505  17.695  0.00  0.00    +0.000 A 
ATOM     17  C   UNL     1      10.250  11.344  17.877  0.00  0.00    +0.000 A 
ATOM     18  C   UNL     1       9.947  10.898  19.162  0.00  0.00    +0.000 A 
ATOM     19  C   UNL     1      10.399  11.621  20.268  0.00  0.00    +0.000 A 
ATOM     20  C   UNL     1      11.144  12.794  20.084  0.00  0.00    +0.000 A 
BRANCH  15  21
ATOM     21  O   UNL     1      12.108  14.391  18.489  0.00  0.00    +0.000 OA
BRANCH  21  23
ATOM     22  C   UNL     1      11.483  16.140  17.007  0.00  0.00    +0.000 C 
ATOM     23  C   UNL     1      11.334  15.587  18.413  0.00  0.00    +0.000 C 
ENDBRANCH  21  23
ENDBRANCH  15  21
ENDBRANCH  14  18
ENDBRANCH  13  14
ENDBRANCH   1  13
TORSDOF 7
ENDMDL
MODEL 5
REMARK VINA RESULT:      -6.6      5.184      8.398
REMARK  Name = 
REMARK  9 active torsions:
REMARK  status: ('A' for Active; 'I' for Inactive)
REMARK    1  A    between atoms: C_1  and  C_2
REMARK    2  A    between atoms: C_2  and  O_3
REMARK    3  A    between atoms: O_3  and  C_4
REMARK    4  A    between atoms: C_7  and  O_8
REMARK    5  A    between atoms: O_8  and  C_9
REMARK    6  A    between atoms: C_9  and  C_10
REMARK    7  A    between atoms: N_12  and  C_13
REMARK    8  A    between atoms: C_16  and  O_17
REMARK    9  A    between atoms: O_17  and  C_18
REMARK                            x       y       z     vdW  Elec       q    Type
REMARK                         _______ _______ _______ _____ _____    ______ ____
ROOT
ATOM      1  C   UNL     1       7.492   7.446  17.880  0.00  0.00    +0.000 C 
ATOM      2  O   UNL     1       7.956   6.588  18.627  0.00  0.00    +0.000 OA
ATOM      3  N   UNL     1       6.364   7.324  17.083  0.00  0.00    +0.000 N 
ATOM      4  H   UNL     1       6.214   8.081  16.422  0.00  0.00    +0.000 HD
ENDROOT
BRANCH   3   5
ATOM      5  C   UNL     1       5.461   6.245  17.064  0.00  0.00    +0.000 A 
ATOM      6  C   UNL     1       5.666   5.098  16.296  0.00  0.00    +0.000 A 
ATOM      7  C   UNL     1       4.738   4.057  16.314  0.00  0.00    +0.000 A 
ATOM      8  C   UNL     1       3.599   4.134  17.108  0.00  0.00    +0.000 A 
ATOM      9  C   UNL     1       3.383   5.272  17.884  0.00  0.00    +0.000 A 
ATOM     10  C   UNL     1       4.318   6.319  17.872  0.00  0.00    +0.000 A 
BRANCH   8  11
ATOM     11  O   UNL     1       2.754   3.064  17.012  0.00  0.00    +0.000 OA
ATOM     12  C   UNL     1       2.686   2.226  18.159  0.00  0.00    +0.000 C 
ENDBRANCH   8  11
ENDBRANCH   3   5
BRANCH   1  13
ATOM     13  C   UNL     1       8.186   8.805  17.764  0.00  0.00    +0.000 C 
BRANCH  13  14
ATOM     14  O   UNL     1       8.909   9.117  18.949  0.00  0.00    +0.000 OA
BRANCH  14  18
ATOM     15  C   UNL     1      10.226  13.007  19.627  0.00  0.00    +0.000 A 
ATOM     16  C   UNL     1       9.992  12.110  20.667  0.00  0.00    +0.000 A 
ATOM     17  C   UNL     1       9.545  10.818  20.397  0.00  0.00    +0.000 A 
ATOM     18  C   UNL     1       9.297  10.421  19.085  0.00  0.00    +0.000 A 
ATOM     19  C   UNL     1       9.497  11.326  18.040  0.00  0.00    +0.000 A 
ATOM     20  C   UNL     1       9.956  12.622  18.312  0.00  0.00    +0.000 A 
BRANCH  15  21
ATOM     21  O   UNL     1      10.706  14.226  20.012  0.00  0.00    +0.000 OA
BRANCH  21  23
ATOM     22  C   UNL     1      12.332  15.481  18.816  0.00  0.00    +0.000 C 
ATOM     23  C   UNL     1      10.849  15.200  18.979  0.00  0.00    +0.000 C 
ENDBRANCH  21  23
ENDBRANCH  15  21
ENDBRANCH  14  18
ENDBRANCH  13  14
ENDBRANCH   1  13
TORSDOF 7
ENDMDL
MODEL 6
REMARK VINA RESULT:      -6.5      5.553      8.689
REMARK  Name = 
REMARK  9 active torsions:
REMARK  status: ('A' for Active; 'I' for Inactive)
REMARK    1  A    between atoms: C_1  and  C_2
REMARK    2  A    between atoms: C_2  and  O_3
REMARK    3  A    between atoms: O_3  and  C_4
REMARK    4  A    between atoms: C_7  and  O_8
REMARK    5  A    between atoms: O_8  and  C_9
REMARK    6  A    between atoms: C_9  and  C_10
REMARK    7  A    between atoms: N_12  and  C_13
REMARK    8  A    between atoms: C_16  and  O_17
REMARK    9  A    between atoms: O_17  and  C_18
REMARK                            x       y       z     vdW  Elec       q    Type
REMARK                         _______ _______ _______ _____ _____    ______ ____
ROOT
ATOM      1  C   UNL     1       7.801   7.884  17.890  0.00  0.00    +0.000 C 
ATOM      2  O   UNL     1       8.314   7.123  18.707  0.00  0.00    +0.000 OA
ATOM      3  N   UNL     1       6.744   7.595  17.042  0.00  0.00    +0.000 N 
ATOM      4  H   UNL     1       6.549   8.296  16.333  0.00  0.00    +0.000 HD
ENDROOT
BRANCH   3   5
ATOM      5  C   UNL     1       5.970   6.418  17.034  0.00  0.00    +0.000 A 
ATOM      6  C   UNL     1       6.362   5.258  16.366  0.00  0.00    +0.000 A 
ATOM      7  C   UNL     1       5.557   4.119  16.389  0.00  0.00    +0.000 A 
ATOM      8  C   UNL     1       4.356   4.113  17.092  0.00  0.00    +0.000 A 
ATOM      9  C   UNL     1       3.955   5.263  17.768  0.00  0.00    +0.000 A 
ATOM     10  C   UNL     1       4.765   6.409  17.750  0.00  0.00    +0.000 A 
BRANCH   8  11
ATOM     11  O   UNL     1       3.646   2.948  17.011  0.00  0.00    +0.000 OA
ATOM     12  C   UNL     1       2.395   2.939  17.687  0.00  0.00    +0.000 C 
ENDBRANCH   8  11
ENDBRANCH   3   5
BRANCH   1  13
ATOM     13  C   UNL     1       8.344   9.307  17.737  0.00  0.00    +0.000 C 
BRANCH  13  14
ATOM     14  O   UNL     1       8.881   9.788  18.964  0.00  0.00    +0.000 OA
BRANCH  14  18
ATOM     15  C   UNL     1      10.923  13.395  18.577  0.00  0.00    +0.000 A 
ATOM     16  C   UNL     1       9.873  13.041  17.732  0.00  0.00    +0.000 A 
ATOM     17  C   UNL     1       9.220  11.821  17.892  0.00  0.00    +0.000 A 
ATOM     18  C   UNL     1       9.632  10.927  18.878  0.00  0.00    +0.000 A 
ATOM     19  C   UNL     1      10.706  11.261  19.707  0.00  0.00    +0.000 A 
ATOM     20  C   UNL     1      11.356  12.493  19.552  0.00  0.00    +0.000 A 
BRANCH  15  21
ATOM     21  O   UNL     1      11.453  14.633  18.355  0.00  0.00    +0.000 OA
BRANCH  21  23
ATOM     22  C   UNL     1      11.043  16.552  17.014  0.00  0.00    +0.000 C 
ATOM     23  C   UNL     1      10.517  15.690  18.147  0.00  0.00    +0.000 C 
ENDBRANCH  21  23
ENDBRANCH  15  21
ENDBRANCH  14  18
ENDBRANCH  13  14
ENDBRANCH   1  13
TORSDOF 7
ENDMDL
MODEL 7
REMARK VINA RESULT:      -6.5      3.512      7.463
REMARK  Name = 
REMARK  9 active torsions:
REMARK  status: ('A' for Active; 'I' for Inactive)
REMARK    1  A    between atoms: C_1  and  C_2
REMARK    2  A    between atoms: C_2  and  O_3
REMARK    3  A    between atoms: O_3  and  C_4
REMARK    4  A    between atoms: C_7  and  O_8
REMARK    5  A    between atoms: O_8  and  C_9
REMARK    6  A    between atoms: C_9  and  C_10
REMARK    7  A    between atoms: N_12  and  C_13
REMARK    8  A    between atoms: C_16  and  O_17
REMARK    9  A    between atoms: O_17  and  C_18
REMARK                            x       y       z     vdW  Elec       q    Type
REMARK                         _______ _______ _______ _____ _____    ______ ____
ROOT
ATOM      1  C   UNL     1       1.749   4.767  20.732  0.00  0.00    +0.000 C 
ATOM      2  O   UNL     1       0.591   4.591  20.363  0.00  0.00    +0.000 OA
ATOM      3  N   UNL     1       2.492   5.929  20.594  0.00  0.00    +0.000 N 
ATOM      4  H   UNL     1       3.479   5.845  20.824  0.00  0.00    +0.000 HD
ENDROOT
BRANCH   3   5
ATOM      5  C   UNL     1       2.030   7.171  20.119  0.00  0.00    +0.000 A 
ATOM      6  C   UNL     1       1.308   8.064  20.911  0.00  0.00    +0.000 A 
ATOM      7  C   UNL     1       0.873   9.283  20.389  0.00  0.00    +0.000 A 
ATOM      8  C   UNL     1       1.164   9.638  19.076  0.00  0.00    +0.000 A 
ATOM      9  C   UNL     1       1.888   8.757  18.275  0.00  0.00    +0.000 A 
ATOM     10  C   UNL     1       2.332   7.532  18.799  0.00  0.00    +0.000 A 
BRANCH   8  11
ATOM     11  O   UNL     1       0.654  10.842  18.677  0.00  0.00    +0.000 OA
ATOM     12  C   UNL     1       1.537  11.951  18.783  0.00  0.00    +0.000 C 
ENDBRANCH   8  11
ENDBRANCH   3   5
BRANCH   1  13
ATOM     13  C   UNL     1       2.509   3.625  21.410  0.00  0.00    +0.000 C 
BRANCH  13  14
ATOM     14  O   UNL     1       2.850   2.607  20.476  0.00  0.00    +0.000 OA
BRANCH  14  18
ATOM     15  C   UNL     1       4.532   3.931  16.906  0.00  0.00    +0.000 A 
ATOM     16  C   UNL     1       3.279   3.324  16.957  0.00  0.00    +0.000 A 
ATOM     17  C   UNL     1       2.755   2.889  18.173  0.00  0.00    +0.000 A 
ATOM     18  C   UNL     1       3.494   3.028  19.346  0.00  0.00    +0.000 A 
ATOM     19  C   UNL     1       4.765   3.605  19.297  0.00  0.00    +0.000 A 
ATOM     20  C   UNL     1       5.288   4.051  18.075  0.00  0.00    +0.000 A 
BRANCH  15  21
ATOM     21  O   UNL     1       4.919   4.357  15.668  0.00  0.00    +0.000 OA
BRANCH  21  23
ATOM     22  C   UNL     1       6.852   4.815  14.363  0.00  0.00    +0.000 C 
ATOM     23  C   UNL     1       6.086   5.178  15.622  0.00  0.00    +0.000 C 
ENDBRANCH  21  23
ENDBRANCH  15  21
ENDBRANCH  14  18
ENDBRANCH  13  14
ENDBRANCH   1  13
TORSDOF 7
ENDMDL
MODEL 8
REMARK VINA RESULT:      -6.5      4.809      8.081
REMARK  Name = 
REMARK  9 active torsions:
REMARK  status: ('A' for Active; 'I' for Inactive)
REMARK    1  A    between atoms: C_1  and  C_2
REMARK    2  A    between atoms: C_2  and  O_3
REMARK    3  A    between atoms: O_3  and  C_4
REMARK    4  A    between atoms: C_7  and  O_8
REMARK    5  A    between atoms: O_8  and  C_9
REMARK    6  A    between atoms: C_9  and  C_10
REMARK    7  A    between atoms: N_12  and  C_13
REMARK    8  A    between atoms: C_16  and  O_17
REMARK    9  A    between atoms: O_17  and  C_18
REMARK                            x       y       z     vdW  Elec       q    Type
REMARK                         _______ _______ _______ _____ _____    ______ ____
ROOT
ATOM      1  C   UNL     1       7.207   7.069  17.860  0.00  0.00    +0.000 C 
ATOM      2  O   UNL     1       7.641   6.210  18.623  0.00  0.00    +0.000 OA
ATOM      3  N   UNL     1       6.042   6.997  17.113  0.00  0.00    +0.000 N 
ATOM      4  H   UNL     1       5.918   7.736  16.426  0.00  0.00    +0.000 HD
ENDROOT
BRANCH   3   5
ATOM      5  C   UNL     1       5.065   5.985  17.174  0.00  0.00    +0.000 A 
ATOM      6  C   UNL     1       3.856   6.140  17.854  0.00  0.00    +0.000 A 
ATOM      7  C   UNL     1       2.922   5.104  17.884  0.00  0.00    +0.000 A 
ATOM      8  C   UNL     1       3.170   3.904  17.225  0.00  0.00    +0.000 A 
ATOM      9  C   UNL     1       4.372   3.738  16.539  0.00  0.00    +0.000 A 
ATOM     10  C   UNL     1       5.311   4.780  16.503  0.00  0.00    +0.000 A 
BRANCH   8  11
ATOM     11  O   UNL     1       2.192   2.959  17.358  0.00  0.00    +0.000 OA
ATOM     12  C   UNL     1       1.478   2.978  18.587  0.00  0.00    +0.000 C 
ENDBRANCH   8  11
ENDBRANCH   3   5
BRANCH   1  13
ATOM     13  C   UNL     1       7.990   8.369  17.659  0.00  0.00    +0.000 C 
BRANCH  13  14
ATOM     14  O   UNL     1       8.699   8.729  18.839  0.00  0.00    +0.000 OA
BRANCH  14  18
ATOM     15  C   UNL     1       9.607  12.791  18.920  0.00  0.00    +0.000 A 
ATOM     16  C   UNL     1       9.019  12.183  17.813  0.00  0.00    +0.000 A 
ATOM     17  C   UNL     1       8.738  10.818  17.824  0.00  0.00    +0.000 A 
ATOM     18  C   UNL     1       9.071  10.042  18.932  0.00  0.00    +0.000 A 
ATOM     19  C   UNL     1       9.691  10.638  20.032  0.00  0.00    +0.000 A 
ATOM     20  C   UNL     1       9.966  12.013  20.023  0.00  0.00    +0.000 A 
BRANCH  15  21
ATOM     21  O   UNL     1       9.791  14.139  18.810  0.00  0.00    +0.000 OA
BRANCH  21  23
ATOM     22  C   UNL     1       9.193  16.245  17.885  0.00  0.00    +0.000 C 
ATOM     23  C   UNL     1       8.676  14.890  18.333  0.00  0.00    +0.000 C 
ENDBRANCH  21  23
ENDBRANCH  15  21
ENDBRANCH  14  18
ENDBRANCH  13  14
ENDBRANCH   1  13
TORSDOF 7
ENDMDL
MODEL 9
REMARK VINA RESULT:      -6.5      4.160      8.420
REMARK  Name = 
REMARK  9 active torsions:
REMARK  status: ('A' for Active; 'I' for Inactive)
REMARK    1  A    between atoms: C_1  and  C_2
REMARK    2  A    between atoms: C_2  and  O_3
REMARK    3  A    between atoms: O_3  and  C_4
REMARK    4  A    between atoms: C_7  and  O_8
REMARK    5  A    between atoms: O_8  and  C_9
REMARK    6  A    between atoms: C_9  and  C_10
REMARK    7  A    between atoms: N_12  and  C_13
REMARK    8  A    between atoms: C_16  and  O_17
REMARK    9  A    between atoms: O_17  and  C_18
REMARK                            x       y       z     vdW  Elec       q    Type
REMARK                         _______ _______ _______ _____ _____    ______ ____
ROOT
ATOM      1  C   UNL     1       2.226   5.661  20.130  0.00  0.00    +0.000 C 
ATOM      2  O   UNL     1       1.127   5.169  20.374  0.00  0.00    +0.000 OA
ATOM      3  N   UNL     1       2.526   7.011  20.045  0.00  0.00    +0.000 N 
ATOM      4  H   UNL     1       3.452   7.230  19.690  0.00  0.00    +0.000 HD
ENDROOT
BRANCH   3   5
ATOM      5  C   UNL     1       1.664   8.084  20.343  0.00  0.00    +0.000 A 
ATOM      6  C   UNL     1       1.212   8.983  19.377  0.00  0.00    +0.000 A 
ATOM      7  C   UNL     1       0.359  10.031  19.727  0.00  0.00    +0.000 A 
ATOM      8  C   UNL     1      -0.069  10.189  21.041  0.00  0.00    +0.000 A 
ATOM      9  C   UNL     1       0.371   9.296  22.015  0.00  0.00    +0.000 A 
ATOM     10  C   UNL     1       1.226   8.238  21.665  0.00  0.00    +0.000 A 
BRANCH   8  11
ATOM     11  O   UNL     1      -0.876  11.271  21.259  0.00  0.00    +0.000 OA
ATOM     12  C   UNL     1      -0.210  12.477  21.608  0.00  0.00    +0.000 C 
ENDBRANCH   8  11
ENDBRANCH   3   5
BRANCH   1  13
ATOM     13  C   UNL     1       3.424   4.744  19.873  0.00  0.00    +0.000 C 
BRANCH  13  14
ATOM     14  O   UNL     1       4.591   5.498  19.562  0.00  0.00    +0.000 OA
BRANCH  14  18
ATOM     15  C   UNL     1       6.375   4.474  15.944  0.00  0.00    +0.000 A 
ATOM     16  C   UNL     1       4.992   4.559  16.093  0.00  0.00    +0.000 A 
ATOM     17  C   UNL     1       4.436   4.899  17.324  0.00  0.00    +0.000 A 
ATOM     18  C   UNL     1       5.255   5.126  18.427  0.00  0.00    +0.000 A 
ATOM     19  C   UNL     1       6.640   5.008  18.294  0.00  0.00    +0.000 A 
ATOM     20  C   UNL     1       7.201   4.676  17.052  0.00  0.00    +0.000 A 
BRANCH  15  21
ATOM     21  O   UNL     1       6.805   4.179  14.682  0.00  0.00    +0.000 OA
BRANCH  21  23
ATOM     22  C   UNL     1       6.473   3.548  12.415  0.00  0.00    +0.000 C 
ATOM     23  C   UNL     1       5.787   3.938  13.711  0.00  0.00    +0.000 C 
ENDBRANCH  21  23
ENDBRANCH  15  21
ENDBRANCH  14  18
ENDBRANCH  13  14
ENDBRANCH   1  13
TORSDOF 7
ENDMDL
