MODEL 1
REMARK VINA RESULT:      -6.3      0.000      0.000
REMARK  Name = 
REMARK  4 active torsions:
REMARK  status: ('A' for Active; 'I' for Inactive)
REMARK    1  A    between atoms: C_1  and  C_2
REMARK    2  A    between atoms: C_6  and  N_7
REMARK    3  A    between atoms: C_8  and  C_10
REMARK    4  A    between atoms: C_10  and  C_11
REMARK                            x       y       z     vdW  Elec       q    Type
REMARK                         _______ _______ _______ _____ _____    ______ ____
ROOT
ATOM      1  N   UNL     1       5.986   4.909  15.759  0.00  0.00    +0.000 N 
ATOM      2  C   UNL     1       6.758   4.619  16.877  0.00  0.00    +0.000 C 
ATOM      3  O   UNL     1       7.926   4.288  16.817  0.00  0.00    +0.000 OA
ATOM      4  H   UNL     1       4.967   4.872  15.861  0.00  0.00    +0.000 HD
ENDROOT
BRANCH   1  10
ATOM      5  C   UNL     1       5.661   2.358  11.649  0.00  0.00    +0.000 C 
ATOM      6  C   UNL     1       6.287   3.469  12.442  0.00  0.00    +0.000 A 
ATOM      7  C   UNL     1       7.305   4.220  11.857  0.00  0.00    +0.000 A 
ATOM      8  C   UNL     1       7.892   5.223  12.606  0.00  0.00    +0.000 A 
ATOM      9  C   UNL     1       7.476   5.435  13.924  0.00  0.00    +0.000 A 
ATOM     10  C   UNL     1       6.447   4.641  14.452  0.00  0.00    +0.000 A 
ATOM     11  N   UNL     1       5.820   3.704  13.714  0.00  0.00    +0.000 NA
ENDBRANCH   1  10
BRANCH   2  12
ATOM     12  C   UNL     1       6.090   4.780  18.255  0.00  0.00    +0.000 C 
BRANCH  12  13
ATOM     13  C   UNL     1       4.603   4.523  18.206  0.00  0.00    +0.000 A 
ATOM     14  C   UNL     1       3.897   3.341  18.077  0.00  0.00    +0.000 A 
ATOM     15  C   UNL     1       2.479   3.541  18.032  0.00  0.00    +0.000 A 
ATOM     16  C   UNL     1       2.137   4.872  18.191  0.00  0.00    +0.000 A 
ATOM     17  S   UNL     1       3.520   5.858  18.379  0.00  0.00    +0.000 S 
ENDBRANCH  12  13
ENDBRANCH   2  12
TORSDOF 3
ENDMDL
MODEL 2
REMARK VINA RESULT:      -6.3      3.254      6.507
REMARK  Name = 
REMARK  4 active torsions:
REMARK  status: ('A' for Active; 'I' for Inactive)
REMARK    1  A    between atoms: C_1  and  C_2
REMARK    2  A    between atoms: C_6  and  N_7
REMARK    3  A    between atoms: C_8  and  C_10
REMARK    4  A    between atoms: C_10  and  C_11
REMARK                            x       y       z     vdW  Elec       q    Type
REMARK                         _______ _______ _______ _____ _____    ______ ____
ROOT
ATOM      1  N   UNL     1       3.559   5.231  17.482  0.00  0.00    +0.000 N 
ATOM      2  C   UNL     1       4.557   4.675  16.691  0.00  0.00    +0.000 C 
ATOM      3  O   UNL     1       4.650   3.483  16.472  0.00  0.00    +0.000 OA
ATOM      4  H   UNL     1       3.723   6.166  17.868  0.00  0.00    +0.000 HD
ENDROOT
BRANCH   1  10
ATOM      5  C   UNL     1       2.511   3.095  21.707  0.00  0.00    +0.000 C 
ATOM      6  C   UNL     1       2.136   3.428  20.292  0.00  0.00    +0.000 A 
ATOM      7  C   UNL     1       0.932   2.941  19.784  0.00  0.00    +0.000 A 
ATOM      8  C   UNL     1       0.609   3.232  18.472  0.00  0.00    +0.000 A 
ATOM      9  C   UNL     1       1.502   3.970  17.688  0.00  0.00    +0.000 A 
ATOM     10  C   UNL     1       2.698   4.427  18.261  0.00  0.00    +0.000 A 
ATOM     11  N   UNL     1       2.996   4.209  19.557  0.00  0.00    +0.000 NA
ENDBRANCH   1  10
BRANCH   2  12
ATOM     12  C   UNL     1       5.553   5.644  16.029  0.00  0.00    +0.000 C 
BRANCH  12  13
ATOM     13  C   UNL     1       6.533   6.225  17.020  0.00  0.00    +0.000 A 
ATOM     14  C   UNL     1       7.002   7.518  17.171  0.00  0.00    +0.000 A 
ATOM     15  C   UNL     1       7.967   7.641  18.222  0.00  0.00    +0.000 A 
ATOM     16  C   UNL     1       8.165   6.445  18.889  0.00  0.00    +0.000 A 
ATOM     17  S   UNL     1       7.200   5.195  18.236  0.00  0.00    +0.000 S 
ENDBRANCH  12  13
ENDBRANCH   2  12
TORSDOF 3
ENDMDL
MODEL 3
REMARK VINA RESULT:      -6.2      1.643      2.380
REMARK  Name = 
REMARK  4 active torsions:
REMARK  status: ('A' for Active; 'I' for Inactive)
REMARK    1  A    between atoms: C_1  and  C_2
REMARK    2  A    between atoms: C_6  and  N_7
REMARK    3  A    between atoms: C_8  and  C_10
REMARK    4  A    between atoms: C_10  and  C_11
REMARK                            x       y       z     vdW  Elec       q    Type
REMARK                         _______ _______ _______ _____ _____    ______ ____
ROOT
ATOM      1  N   UNL     1       5.578   4.623  15.856  0.00  0.00    +0.000 N 
ATOM      2  C   UNL     1       5.133   5.827  16.388  0.00  0.00    +0.000 C 
ATOM      3  O   UNL     1       5.027   6.848  15.738  0.00  0.00    +0.000 OA
ATOM      4  H   UNL     1       5.931   3.915  16.508  0.00  0.00    +0.000 HD
ENDROOT
BRANCH   1  10
ATOM      5  C   UNL     1       8.952   6.025  12.670  0.00  0.00    +0.000 C 
ATOM      6  C   UNL     1       7.775   5.161  13.019  0.00  0.00    +0.000 A 
ATOM      7  C   UNL     1       7.270   4.292  12.052  0.00  0.00    +0.000 A 
ATOM      8  C   UNL     1       6.170   3.521  12.376  0.00  0.00    +0.000 A 
ATOM      9  C   UNL     1       5.580   3.653  13.637  0.00  0.00    +0.000 A 
ATOM     10  C   UNL     1       6.137   4.548  14.562  0.00  0.00    +0.000 A 
ATOM     11  N   UNL     1       7.249   5.258  14.285  0.00  0.00    +0.000 NA
ENDBRANCH   1  10
BRANCH   2  12
ATOM     12  C   UNL     1       4.712   5.830  17.869  0.00  0.00    +0.000 C 
BRANCH  12  13
ATOM     13  C   UNL     1       3.638   4.810  18.162  0.00  0.00    +0.000 A 
ATOM     14  C   UNL     1       2.311   4.762  17.771  0.00  0.00    +0.000 A 
ATOM     15  C   UNL     1       1.615   3.630  18.306  0.00  0.00    +0.000 A 
ATOM     16  C   UNL     1       2.447   2.807  19.043  0.00  0.00    +0.000 A 
ATOM     17  S   UNL     1       4.045   3.412  19.092  0.00  0.00    +0.000 S 
ENDBRANCH  12  13
ENDBRANCH   2  12
TORSDOF 3
ENDMDL
MODEL 4
REMARK VINA RESULT:      -6.2      1.450      2.191
REMARK  Name = 
REMARK  4 active torsions:
REMARK  status: ('A' for Active; 'I' for Inactive)
REMARK    1  A    between atoms: C_1  and  C_2
REMARK    2  A    between atoms: C_6  and  N_7
REMARK    3  A    between atoms: C_8  and  C_10
REMARK    4  A    between atoms: C_10  and  C_11
REMARK                            x       y       z     vdW  Elec       q    Type
REMARK                         _______ _______ _______ _____ _____    ______ ____
ROOT
ATOM      1  N   UNL     1       6.193   5.258  16.524  0.00  0.00    +0.000 N 
ATOM      2  C   UNL     1       7.013   4.791  17.544  0.00  0.00    +0.000 C 
ATOM      3  O   UNL     1       8.079   4.242  17.347  0.00  0.00    +0.000 OA
ATOM      4  H   UNL     1       5.204   5.415  16.743  0.00  0.00    +0.000 HD
ENDROOT
BRANCH   1  10
ATOM      5  C   UNL     1       8.792   5.927  12.486  0.00  0.00    +0.000 C 
ATOM      6  C   UNL     1       7.705   5.202  13.226  0.00  0.00    +0.000 A 
ATOM      7  C   UNL     1       6.975   4.222  12.555  0.00  0.00    +0.000 A 
ATOM      8  C   UNL     1       5.959   3.579  13.238  0.00  0.00    +0.000 A 
ATOM      9  C   UNL     1       5.672   3.947  14.556  0.00  0.00    +0.000 A 
ATOM     10  C   UNL     1       6.444   4.943  15.171  0.00  0.00    +0.000 A 
ATOM     11  N   UNL     1       7.480   5.532  14.542  0.00  0.00    +0.000 NA
ENDBRANCH   1  10
BRANCH   2  12
ATOM     12  C   UNL     1       6.548   5.038  18.991  0.00  0.00    +0.000 C 
BRANCH  12  13
ATOM     13  C   UNL     1       5.062   4.835  19.159  0.00  0.00    +0.000 A 
ATOM     14  C   UNL     1       4.025   5.752  19.183  0.00  0.00    +0.000 A 
ATOM     15  C   UNL     1       2.749   5.142  19.408  0.00  0.00    +0.000 A 
ATOM     16  C   UNL     1       2.837   3.764  19.488  0.00  0.00    +0.000 A 
ATOM     17  S   UNL     1       4.449   3.227  19.305  0.00  0.00    +0.000 S 
ENDBRANCH  12  13
ENDBRANCH   2  12
TORSDOF 3
ENDMDL
MODEL 5
REMARK VINA RESULT:      -6.2      1.207      1.929
REMARK  Name = 
REMARK  4 active torsions:
REMARK  status: ('A' for Active; 'I' for Inactive)
REMARK    1  A    between atoms: C_1  and  C_2
REMARK    2  A    between atoms: C_6  and  N_7
REMARK    3  A    between atoms: C_8  and  C_10
REMARK    4  A    between atoms: C_10  and  C_11
REMARK                            x       y       z     vdW  Elec       q    Type
REMARK                         _______ _______ _______ _____ _____    ______ ____
ROOT
ATOM      1  N   UNL     1       6.129   5.203  16.464  0.00  0.00    +0.000 N 
ATOM      2  C   UNL     1       6.955   4.757  17.489  0.00  0.00    +0.000 C 
ATOM      3  O   UNL     1       8.043   4.250  17.298  0.00  0.00    +0.000 OA
ATOM      4  H   UNL     1       5.132   5.321  16.673  0.00  0.00    +0.000 HD
ENDROOT
BRANCH   1  10
ATOM      5  C   UNL     1       8.795   5.951  12.484  0.00  0.00    +0.000 C 
ATOM      6  C   UNL     1       7.699   5.208  13.193  0.00  0.00    +0.000 A 
ATOM      7  C   UNL     1       6.987   4.235  12.493  0.00  0.00    +0.000 A 
ATOM      8  C   UNL     1       5.963   3.575  13.148  0.00  0.00    +0.000 A 
ATOM      9  C   UNL     1       5.651   3.920  14.467  0.00  0.00    +0.000 A 
ATOM     10  C   UNL     1       6.405   4.911  15.111  0.00  0.00    +0.000 A 
ATOM     11  N   UNL     1       7.450   5.516  14.509  0.00  0.00    +0.000 NA
ENDBRANCH   1  10
BRANCH   2  12
ATOM     12  C   UNL     1       6.466   4.972  18.932  0.00  0.00    +0.000 C 
BRANCH  12  13
ATOM     13  C   UNL     1       5.053   4.482  19.139  0.00  0.00    +0.000 A 
ATOM     14  C   UNL     1       4.553   3.197  19.252  0.00  0.00    +0.000 A 
ATOM     15  C   UNL     1       3.129   3.165  19.401  0.00  0.00    +0.000 A 
ATOM     16  C   UNL     1       2.583   4.434  19.460  0.00  0.00    +0.000 A 
ATOM     17  S   UNL     1       3.786   5.641  19.324  0.00  0.00    +0.000 S 
ENDBRANCH  12  13
ENDBRANCH   2  12
TORSDOF 3
ENDMDL
MODEL 6
REMARK VINA RESULT:      -6.2      3.800      7.122
REMARK  Name = 
REMARK  4 active torsions:
REMARK  status: ('A' for Active; 'I' for Inactive)
REMARK    1  A    between atoms: C_1  and  C_2
REMARK    2  A    between atoms: C_6  and  N_7
REMARK    3  A    between atoms: C_8  and  C_10
REMARK    4  A    between atoms: C_10  and  C_11
REMARK                            x       y       z     vdW  Elec       q    Type
REMARK                         _______ _______ _______ _____ _____    ______ ____
ROOT
ATOM      1  N   UNL     1       3.309   6.274  18.514  0.00  0.00    +0.000 N 
ATOM      2  C   UNL     1       2.786   5.067  18.068  0.00  0.00    +0.000 C 
ATOM      3  O   UNL     1       1.631   4.927  17.717  0.00  0.00    +0.000 OA
ATOM      4  H   UNL     1       4.168   6.244  19.072  0.00  0.00    +0.000 HD
ENDROOT
BRANCH   1  10
ATOM      5  C   UNL     1       0.660   8.837  21.663  0.00  0.00    +0.000 C 
ATOM      6  C   UNL     1       1.239   8.669  20.289  0.00  0.00    +0.000 A 
ATOM      7  C   UNL     1       0.950   9.625  19.317  0.00  0.00    +0.000 A 
ATOM      8  C   UNL     1       1.467   9.446  18.047  0.00  0.00    +0.000 A 
ATOM      9  C   UNL     1       2.230   8.309  17.766  0.00  0.00    +0.000 A 
ATOM     10  C   UNL     1       2.480   7.383  18.790  0.00  0.00    +0.000 A 
ATOM     11  N   UNL     1       2.039   7.577  20.049  0.00  0.00    +0.000 NA
ENDBRANCH   1  10
BRANCH   2  12
ATOM     12  C   UNL     1       3.752   3.872  17.974  0.00  0.00    +0.000 C 
BRANCH  12  13
ATOM     13  C   UNL     1       4.958   4.174  17.118  0.00  0.00    +0.000 A 
ATOM     14  C   UNL     1       5.104   4.195  15.742  0.00  0.00    +0.000 A 
ATOM     15  C   UNL     1       6.442   4.494  15.329  0.00  0.00    +0.000 A 
ATOM     16  C   UNL     1       7.273   4.756  16.404  0.00  0.00    +0.000 A 
ATOM     17  S   UNL     1       6.437   4.627  17.889  0.00  0.00    +0.000 S 
ENDBRANCH  12  13
ENDBRANCH   2  12
TORSDOF 3
ENDMDL
MODEL 7
REMARK VINA RESULT:      -6.2      1.561      1.688
REMARK  Name = 
REMARK  4 active torsions:
REMARK  status: ('A' for Active; 'I' for Inactive)
REMARK    1  A    between atoms: C_1  and  C_2
REMARK    2  A    between atoms: C_6  and  N_7
REMARK    3  A    between atoms: C_8  and  C_10
REMARK    4  A    between atoms: C_10  and  C_11
REMARK                            x       y       z     vdW  Elec       q    Type
REMARK                         _______ _______ _______ _____ _____    ______ ____
ROOT
ATOM      1  N   UNL     1       5.386   4.616  15.817  0.00  0.00    +0.000 N 
ATOM      2  C   UNL     1       5.031   5.889  16.247  0.00  0.00    +0.000 C 
ATOM      3  O   UNL     1       5.017   6.861  15.518  0.00  0.00    +0.000 OA
ATOM      4  H   UNL     1       5.672   3.936  16.529  0.00  0.00    +0.000 HD
ENDROOT
BRANCH   1  10
ATOM      5  C   UNL     1       5.151   2.595  11.417  0.00  0.00    +0.000 C 
ATOM      6  C   UNL     1       5.854   3.483  12.402  0.00  0.00    +0.000 A 
ATOM      7  C   UNL     1       7.056   4.082  12.027  0.00  0.00    +0.000 A 
ATOM      8  C   UNL     1       7.708   4.876  12.951  0.00  0.00    +0.000 A 
ATOM      9  C   UNL     1       7.169   5.031  14.232  0.00  0.00    +0.000 A 
ATOM     10  C   UNL     1       5.958   4.397  14.545  0.00  0.00    +0.000 A 
ATOM     11  N   UNL     1       5.276   3.674  13.635  0.00  0.00    +0.000 NA
ENDBRANCH   1  10
BRANCH   2  12
ATOM     12  C   UNL     1       4.589   6.040  17.714  0.00  0.00    +0.000 C 
BRANCH  12  13
ATOM     13  C   UNL     1       3.582   4.991  18.120  0.00  0.00    +0.000 A 
ATOM     14  C   UNL     1       2.255   4.829  17.761  0.00  0.00    +0.000 A 
ATOM     15  C   UNL     1       1.635   3.713  18.411  0.00  0.00    +0.000 A 
ATOM     16  C   UNL     1       2.525   3.013  19.205  0.00  0.00    +0.000 A 
ATOM     17  S   UNL     1       4.084   3.712  19.167  0.00  0.00    +0.000 S 
ENDBRANCH  12  13
ENDBRANCH   2  12
TORSDOF 3
ENDMDL
MODEL 8
REMARK VINA RESULT:      -6.2      2.537      6.274
REMARK  Name = 
REMARK  4 active torsions:
REMARK  status: ('A' for Active; 'I' for Inactive)
REMARK    1  A    between atoms: C_1  and  C_2
REMARK    2  A    between atoms: C_6  and  N_7
REMARK    3  A    between atoms: C_8  and  C_10
REMARK    4  A    between atoms: C_10  and  C_11
REMARK                            x       y       z     vdW  Elec       q    Type
REMARK                         _______ _______ _______ _____ _____    ______ ____
ROOT
ATOM      1  N   UNL     1       5.189   3.639  17.376  0.00  0.00    +0.000 N 
ATOM      2  C   UNL     1       5.634   4.850  16.861  0.00  0.00    +0.000 C 
ATOM      3  O   UNL     1       5.071   5.909  17.058  0.00  0.00    +0.000 OA
ATOM      4  H   UNL     1       5.517   2.779  16.924  0.00  0.00    +0.000 HD
ENDROOT
BRANCH   1  10
ATOM      5  C   UNL     1       2.559   2.863  21.374  0.00  0.00    +0.000 C 
ATOM      6  C   UNL     1       2.632   3.201  19.914  0.00  0.00    +0.000 A 
ATOM      7  C   UNL     1       1.445   3.401  19.211  0.00  0.00    +0.000 A 
ATOM      8  C   UNL     1       1.523   3.686  17.860  0.00  0.00    +0.000 A 
ATOM      9  C   UNL     1       2.774   3.734  17.235  0.00  0.00    +0.000 A 
ATOM     10  C   UNL     1       3.929   3.519  18.001  0.00  0.00    +0.000 A 
ATOM     11  N   UNL     1       3.873   3.306  19.331  0.00  0.00    +0.000 NA
ENDBRANCH   1  10
BRANCH   2  12
ATOM     12  C   UNL     1       6.937   4.831  16.041  0.00  0.00    +0.000 C 
BRANCH  12  13
ATOM     13  C   UNL     1       6.705   4.435  14.602  0.00  0.00    +0.000 A 
ATOM     14  C   UNL     1       5.715   3.655  14.032  0.00  0.00    +0.000 A 
ATOM     15  C   UNL     1       5.883   3.490  12.619  0.00  0.00    +0.000 A 
ATOM     16  C   UNL     1       6.966   4.201  12.136  0.00  0.00    +0.000 A 
ATOM     17  S   UNL     1       7.769   5.045  13.387  0.00  0.00    +0.000 S 
ENDBRANCH  12  13
ENDBRANCH   2  12
TORSDOF 3
ENDMDL
MODEL 9
REMARK VINA RESULT:      -6.2      3.703      7.020
REMARK  Name = 
REMARK  4 active torsions:
REMARK  status: ('A' for Active; 'I' for Inactive)
REMARK    1  A    between atoms: C_1  and  C_2
REMARK    2  A    between atoms: C_6  and  N_7
REMARK    3  A    between atoms: C_8  and  C_10
REMARK    4  A    between atoms: C_10  and  C_11
REMARK                            x       y       z     vdW  Elec       q    Type
REMARK                         _______ _______ _______ _____ _____    ______ ____
ROOT
ATOM      1  N   UNL     1       3.325   6.155  18.189  0.00  0.00    +0.000 N 
ATOM      2  C   UNL     1       2.737   4.937  17.868  0.00  0.00    +0.000 C 
ATOM      3  O   UNL     1       1.539   4.791  17.722  0.00  0.00    +0.000 OA
ATOM      4  H   UNL     1       4.267   6.137  18.594  0.00  0.00    +0.000 HD
ENDROOT
BRANCH   1  10
ATOM      5  C   UNL     1       0.912   8.592  21.616  0.00  0.00    +0.000 C 
ATOM      6  C   UNL     1       1.425   8.496  20.208  0.00  0.00    +0.000 A 
ATOM      7  C   UNL     1       1.132   9.526  19.315  0.00  0.00    +0.000 A 
ATOM      8  C   UNL     1       1.588   9.415  18.015  0.00  0.00    +0.000 A 
ATOM      9  C   UNL     1       2.294   8.272  17.625  0.00  0.00    +0.000 A 
ATOM     10  C   UNL     1       2.551   7.272  18.574  0.00  0.00    +0.000 A 
ATOM     11  N   UNL     1       2.172   7.395  19.862  0.00  0.00    +0.000 NA
ENDBRANCH   1  10
BRANCH   2  12
ATOM     12  C   UNL     1       3.676   3.739  17.641  0.00  0.00    +0.000 C 
BRANCH  12  13
ATOM     13  C   UNL     1       5.076   4.169  17.273  0.00  0.00    +0.000 A 
ATOM     14  C   UNL     1       6.173   4.443  18.071  0.00  0.00    +0.000 A 
ATOM     15  C   UNL     1       7.317   4.864  17.319  0.00  0.00    +0.000 A 
ATOM     16  C   UNL     1       7.081   4.840  15.956  0.00  0.00    +0.000 A 
ATOM     17  S   UNL     1       5.489   4.326  15.604  0.00  0.00    +0.000 S 
ENDBRANCH  12  13
ENDBRANCH   2  12
TORSDOF 3
ENDMDL
