MODEL 1
REMARK VINA RESULT:      -6.3      0.000      0.000
REMARK  Name = 
REMARK  7 active torsions:
REMARK  status: ('A' for Active; 'I' for Inactive)
REMARK    1  A    between atoms: C_2  and  O_3
REMARK    2  A    between atoms: O_3  and  C_4
REMARK    3  A    between atoms: C_4  and  C_5
REMARK    4  A    between atoms: C_11  and  C_12
REMARK    5  A    between atoms: C_12  and  O_13
REMARK    6  A    between atoms: O_13  and  C_14
REMARK    7  A    between atoms: C_14  and  C_15
REMARK                            x       y       z     vdW  Elec       q    Type
REMARK                         _______ _______ _______ _____ _____    ______ ____
ROOT
ATOM      1  C   UNL     1       5.792   4.927  17.061  0.00  0.00    +0.000 A 
ATOM      2  C   UNL     1       6.286   4.829  18.367  0.00  0.00    +0.000 A 
ATOM      3  N   UNL     1       7.592   4.548  18.404  0.00  0.00    +0.000 NA
ATOM      4  O   UNL     1       7.971   4.448  17.073  0.00  0.00    +0.000 OA
ATOM      5  C   UNL     1       6.889   4.667  16.274  0.00  0.00    +0.000 A 
ENDROOT
BRANCH   2   6
ATOM      6  O   UNL     1       5.569   5.033  19.492  0.00  0.00    +0.000 OA
BRANCH   6   7
ATOM      7  C   UNL     1       4.248   5.536  19.271  0.00  0.00    +0.000 C 
BRANCH   7   8
ATOM      8  C   UNL     1       3.273   4.523  19.859  0.00  0.00    +0.000 C 
ATOM      9  C   UNL     1       1.895   4.338  19.179  0.00  0.00    +0.000 C 
ATOM     10  C   UNL     1       1.388   4.164  20.625  0.00  0.00    +0.000 C 
ATOM     11  N   UNL     1       2.519   5.026  21.050  0.00  0.00    +0.000 NA
ATOM     12  H   UNL     1       2.941   4.788  21.946  0.00  0.00    +0.000 HD
ENDBRANCH   7   8
ENDBRANCH   6   7
ENDBRANCH   2   6
BRANCH   5  13
ATOM     13  C   UNL     1       7.108   4.574  14.819  0.00  0.00    +0.000 C 
BRANCH  13  14
ATOM     14  O   UNL     1       6.312   3.489  14.351  0.00  0.00    +0.000 OA
BRANCH  14  15
ATOM     15  C   UNL     1       5.196   3.946  13.597  0.00  0.00    +0.000 C 
BRANCH  15  16
ATOM     16  C   UNL     1       5.474   3.680  12.153  0.00  0.00    +0.000 C 
ATOM     17  C   UNL     1       5.725   2.273  11.676  0.00  0.00    +0.000 C 
ATOM     18  C   UNL     1       4.458   2.982  11.283  0.00  0.00    +0.000 C 
ENDBRANCH  15  16
ENDBRANCH  14  15
ENDBRANCH  13  14
ENDBRANCH   5  13
TORSDOF 7
ENDMDL
MODEL 2
REMARK VINA RESULT:      -6.2      1.447      1.629
REMARK  Name = 
REMARK  7 active torsions:
REMARK  status: ('A' for Active; 'I' for Inactive)
REMARK    1  A    between atoms: C_2  and  O_3
REMARK    2  A    between atoms: O_3  and  C_4
REMARK    3  A    between atoms: C_4  and  C_5
REMARK    4  A    between atoms: C_11  and  C_12
REMARK    5  A    between atoms: C_12  and  O_13
REMARK    6  A    between atoms: O_13  and  C_14
REMARK    7  A    between atoms: C_14  and  C_15
REMARK                            x       y       z     vdW  Elec       q    Type
REMARK                         _______ _______ _______ _____ _____    ______ ____
ROOT
ATOM      1  C   UNL     1       5.546   4.630  16.951  0.00  0.00    +0.000 A 
ATOM      2  C   UNL     1       5.843   4.465  18.308  0.00  0.00    +0.000 A 
ATOM      3  N   UNL     1       7.158   4.464  18.551  0.00  0.00    +0.000 NA
ATOM      4  O   UNL     1       7.748   4.623  17.306  0.00  0.00    +0.000 OA
ATOM      5  C   UNL     1       6.780   4.713  16.351  0.00  0.00    +0.000 A 
ENDROOT
BRANCH   2   6
ATOM      6  O   UNL     1       4.935   4.363  19.302  0.00  0.00    +0.000 OA
BRANCH   6   7
ATOM      7  C   UNL     1       4.348   3.066  19.437  0.00  0.00    +0.000 C 
BRANCH   7   8
ATOM      8  C   UNL     1       2.938   3.146  18.866  0.00  0.00    +0.000 C 
ATOM      9  C   UNL     1       1.742   3.223  19.847  0.00  0.00    +0.000 C 
ATOM     10  C   UNL     1       1.037   2.336  18.801  0.00  0.00    +0.000 C 
ATOM     11  N   UNL     1       2.382   1.826  18.431  0.00  0.00    +0.000 NA
ATOM     12  H   UNL     1       2.517   1.617  17.443  0.00  0.00    +0.000 HD
ENDBRANCH   7   8
ENDBRANCH   6   7
ENDBRANCH   2   6
BRANCH   5  13
ATOM     13  C   UNL     1       7.234   4.863  14.956  0.00  0.00    +0.000 C 
BRANCH  13  14
ATOM     14  O   UNL     1       6.106   4.605  14.126  0.00  0.00    +0.000 OA
BRANCH  14  15
ATOM     15  C   UNL     1       6.478   3.915  12.938  0.00  0.00    +0.000 C 
BRANCH  15  16
ATOM     16  C   UNL     1       5.376   2.968  12.590  0.00  0.00    +0.000 C 
ATOM     17  C   UNL     1       4.474   3.250  11.416  0.00  0.00    +0.000 C 
ATOM     18  C   UNL     1       5.453   2.109  11.352  0.00  0.00    +0.000 C 
ENDBRANCH  15  16
ENDBRANCH  14  15
ENDBRANCH  13  14
ENDBRANCH   5  13
TORSDOF 7
ENDMDL
MODEL 3
REMARK VINA RESULT:      -6.1      1.688      2.103
REMARK  Name = 
REMARK  7 active torsions:
REMARK  status: ('A' for Active; 'I' for Inactive)
REMARK    1  A    between atoms: C_2  and  O_3
REMARK    2  A    between atoms: O_3  and  C_4
REMARK    3  A    between atoms: C_4  and  C_5
REMARK    4  A    between atoms: C_11  and  C_12
REMARK    5  A    between atoms: C_12  and  O_13
REMARK    6  A    between atoms: O_13  and  C_14
REMARK    7  A    between atoms: C_14  and  C_15
REMARK                            x       y       z     vdW  Elec       q    Type
REMARK                         _______ _______ _______ _____ _____    ______ ____
ROOT
ATOM      1  C   UNL     1       4.450   5.681  16.940  0.00  0.00    +0.000 A 
ATOM      2  C   UNL     1       3.808   4.947  17.943  0.00  0.00    +0.000 A 
ATOM      3  N   UNL     1       4.601   4.022  18.492  0.00  0.00    +0.000 NA
ATOM      4  O   UNL     1       5.807   4.144  17.818  0.00  0.00    +0.000 OA
ATOM      5  C   UNL     1       5.709   5.133  16.885  0.00  0.00    +0.000 A 
ENDROOT
BRANCH   2   6
ATOM      6  O   UNL     1       2.544   5.148  18.373  0.00  0.00    +0.000 OA
BRANCH   6   7
ATOM      7  C   UNL     1       1.617   4.131  17.985  0.00  0.00    +0.000 C 
BRANCH   7   8
ATOM      8  C   UNL     1       1.154   3.431  19.257  0.00  0.00    +0.000 C 
ATOM      9  C   UNL     1       1.228   4.201  20.598  0.00  0.00    +0.000 C 
ATOM     10  C   UNL     1       1.616   2.826  21.178  0.00  0.00    +0.000 C 
ATOM     11  N   UNL     1       2.167   2.495  19.839  0.00  0.00    +0.000 NA
ATOM     12  H   UNL     1       2.060   1.525  19.547  0.00  0.00    +0.000 HD
ENDBRANCH   7   8
ENDBRANCH   6   7
ENDBRANCH   2   6
BRANCH   5  13
ATOM     13  C   UNL     1       6.902   5.383  16.056  0.00  0.00    +0.000 C 
BRANCH  13  14
ATOM     14  O   UNL     1       6.482   5.305  14.696  0.00  0.00    +0.000 OA
BRANCH  14  15
ATOM     15  C   UNL     1       6.306   3.956  14.280  0.00  0.00    +0.000 C 
BRANCH  15  16
ATOM     16  C   UNL     1       6.295   3.932  12.786  0.00  0.00    +0.000 C 
ATOM     17  C   UNL     1       6.330   2.618  12.049  0.00  0.00    +0.000 C 
ATOM     18  C   UNL     1       5.082   3.457  12.026  0.00  0.00    +0.000 C 
ENDBRANCH  15  16
ENDBRANCH  14  15
ENDBRANCH  13  14
ENDBRANCH   5  13
TORSDOF 7
ENDMDL
MODEL 4
REMARK VINA RESULT:      -6.1      1.911      6.645
REMARK  Name = 
REMARK  7 active torsions:
REMARK  status: ('A' for Active; 'I' for Inactive)
REMARK    1  A    between atoms: C_2  and  O_3
REMARK    2  A    between atoms: O_3  and  C_4
REMARK    3  A    between atoms: C_4  and  C_5
REMARK    4  A    between atoms: C_11  and  C_12
REMARK    5  A    between atoms: C_12  and  O_13
REMARK    6  A    between atoms: O_13  and  C_14
REMARK    7  A    between atoms: C_14  and  C_15
REMARK                            x       y       z     vdW  Elec       q    Type
REMARK                         _______ _______ _______ _____ _____    ______ ____
ROOT
ATOM      1  C   UNL     1       5.714   4.525  16.973  0.00  0.00    +0.000 A 
ATOM      2  C   UNL     1       7.101   4.560  16.793  0.00  0.00    +0.000 A 
ATOM      3  N   UNL     1       7.772   4.512  17.948  0.00  0.00    +0.000 NA
ATOM      4  O   UNL     1       6.789   4.455  18.926  0.00  0.00    +0.000 OA
ATOM      5  C   UNL     1       5.560   4.471  18.338  0.00  0.00    +0.000 A 
ENDROOT
BRANCH   2   6
ATOM      6  O   UNL     1       7.735   4.590  15.602  0.00  0.00    +0.000 OA
BRANCH   6   7
ATOM      7  C   UNL     1       6.934   5.064  14.515  0.00  0.00    +0.000 C 
BRANCH   7   8
ATOM      8  C   UNL     1       6.614   3.864  13.632  0.00  0.00    +0.000 C 
ATOM      9  C   UNL     1       6.934   3.950  12.119  0.00  0.00    +0.000 C 
ATOM     10  C   UNL     1       5.628   3.144  11.964  0.00  0.00    +0.000 C 
ATOM     11  N   UNL     1       5.175   3.770  13.232  0.00  0.00    +0.000 NA
ATOM     12  H   UNL     1       4.608   3.178  13.837  0.00  0.00    +0.000 HD
ENDBRANCH   7   8
ENDBRANCH   6   7
ENDBRANCH   2   6
BRANCH   5  13
ATOM     13  C   UNL     1       4.393   4.438  19.238  0.00  0.00    +0.000 C 
BRANCH  13  14
ATOM     14  O   UNL     1       3.264   4.098  18.437  0.00  0.00    +0.000 OA
BRANCH  14  15
ATOM     15  C   UNL     1       2.449   3.120  19.071  0.00  0.00    +0.000 C 
BRANCH  15  16
ATOM     16  C   UNL     1       2.221   3.552  20.482  0.00  0.00    +0.000 C 
ATOM     17  C   UNL     1       1.115   2.932  21.297  0.00  0.00    +0.000 C 
ATOM     18  C   UNL     1       2.551   2.639  21.636  0.00  0.00    +0.000 C 
ENDBRANCH  15  16
ENDBRANCH  14  15
ENDBRANCH  13  14
ENDBRANCH   5  13
TORSDOF 7
ENDMDL
MODEL 5
REMARK VINA RESULT:      -6.1      2.740      4.183
REMARK  Name = 
REMARK  7 active torsions:
REMARK  status: ('A' for Active; 'I' for Inactive)
REMARK    1  A    between atoms: C_2  and  O_3
REMARK    2  A    between atoms: O_3  and  C_4
REMARK    3  A    between atoms: C_4  and  C_5
REMARK    4  A    between atoms: C_11  and  C_12
REMARK    5  A    between atoms: C_12  and  O_13
REMARK    6  A    between atoms: O_13  and  C_14
REMARK    7  A    between atoms: C_14  and  C_15
REMARK                            x       y       z     vdW  Elec       q    Type
REMARK                         _______ _______ _______ _____ _____    ______ ____
ROOT
ATOM      1  C   UNL     1       4.421   3.562  17.334  0.00  0.00    +0.000 A 
ATOM      2  C   UNL     1       4.237   3.226  18.680  0.00  0.00    +0.000 A 
ATOM      3  N   UNL     1       5.267   3.594  19.449  0.00  0.00    +0.000 NA
ATOM      4  O   UNL     1       6.168   4.184  18.575  0.00  0.00    +0.000 OA
ATOM      5  C   UNL     1       5.661   4.155  17.310  0.00  0.00    +0.000 A 
ENDROOT
BRANCH   2   6
ATOM      6  O   UNL     1       3.136   2.639  19.196  0.00  0.00    +0.000 OA
BRANCH   6   7
ATOM      7  C   UNL     1       3.092   2.616  20.626  0.00  0.00    +0.000 C 
BRANCH   7   8
ATOM      8  C   UNL     1       2.096   3.681  21.066  0.00  0.00    +0.000 C 
ATOM      9  C   UNL     1       1.037   4.174  20.050  0.00  0.00    +0.000 C 
ATOM     10  C   UNL     1       1.272   5.544  20.718  0.00  0.00    +0.000 C 
ATOM     11  N   UNL     1       2.644   5.074  21.038  0.00  0.00    +0.000 NA
ATOM     12  H   UNL     1       3.023   5.396  21.927  0.00  0.00    +0.000 HD
ENDBRANCH   7   8
ENDBRANCH   6   7
ENDBRANCH   2   6
BRANCH   5  13
ATOM     13  C   UNL     1       6.505   4.723  16.243  0.00  0.00    +0.000 C 
BRANCH  13  14
ATOM     14  O   UNL     1       5.951   5.993  15.912  0.00  0.00    +0.000 OA
BRANCH  14  15
ATOM     15  C   UNL     1       6.068   6.913  16.991  0.00  0.00    +0.000 C 
BRANCH  15  16
ATOM     16  C   UNL     1       7.518   7.213  17.186  0.00  0.00    +0.000 C 
ATOM     17  C   UNL     1       7.949   8.542  17.751  0.00  0.00    +0.000 C 
ATOM     18  C   UNL     1       8.114   7.292  18.570  0.00  0.00    +0.000 C 
ENDBRANCH  15  16
ENDBRANCH  14  15
ENDBRANCH  13  14
ENDBRANCH   5  13
TORSDOF 7
ENDMDL
MODEL 6
REMARK VINA RESULT:      -6.0      1.073      1.290
REMARK  Name = 
REMARK  7 active torsions:
REMARK  status: ('A' for Active; 'I' for Inactive)
REMARK    1  A    between atoms: C_2  and  O_3
REMARK    2  A    between atoms: O_3  and  C_4
REMARK    3  A    between atoms: C_4  and  C_5
REMARK    4  A    between atoms: C_11  and  C_12
REMARK    5  A    between atoms: C_12  and  O_13
REMARK    6  A    between atoms: O_13  and  C_14
REMARK    7  A    between atoms: C_14  and  C_15
REMARK                            x       y       z     vdW  Elec       q    Type
REMARK                         _______ _______ _______ _____ _____    ______ ____
ROOT
ATOM      1  C   UNL     1       5.238   4.595  16.920  0.00  0.00    +0.000 A 
ATOM      2  C   UNL     1       6.057   4.355  18.028  0.00  0.00    +0.000 A 
ATOM      3  N   UNL     1       7.359   4.413  17.730  0.00  0.00    +0.000 NA
ATOM      4  O   UNL     1       7.398   4.692  16.372  0.00  0.00    +0.000 OA
ATOM      5  C   UNL     1       6.128   4.792  15.890  0.00  0.00    +0.000 A 
ENDROOT
BRANCH   2   6
ATOM      6  O   UNL     1       5.624   4.131  19.287  0.00  0.00    +0.000 OA
BRANCH   6   7
ATOM      7  C   UNL     1       4.478   3.281  19.378  0.00  0.00    +0.000 C 
BRANCH   7   8
ATOM      8  C   UNL     1       3.357   4.095  20.011  0.00  0.00    +0.000 C 
ATOM      9  C   UNL     1       2.094   4.400  19.170  0.00  0.00    +0.000 C 
ATOM     10  C   UNL     1       2.136   5.759  19.898  0.00  0.00    +0.000 C 
ATOM     11  N   UNL     1       3.605   5.572  20.012  0.00  0.00    +0.000 NA
ATOM     12  H   UNL     1       4.028   5.927  20.868  0.00  0.00    +0.000 HD
ENDBRANCH   7   8
ENDBRANCH   6   7
ENDBRANCH   2   6
BRANCH   5  13
ATOM     13  C   UNL     1       5.983   5.064  14.448  0.00  0.00    +0.000 C 
BRANCH  13  14
ATOM     14  O   UNL     1       7.176   4.603  13.820  0.00  0.00    +0.000 OA
BRANCH  14  15
ATOM     15  C   UNL     1       6.925   4.138  12.499  0.00  0.00    +0.000 C 
BRANCH  15  16
ATOM     16  C   UNL     1       5.745   3.224  12.547  0.00  0.00    +0.000 C 
ATOM     17  C   UNL     1       4.628   3.373  11.546  0.00  0.00    +0.000 C 
ATOM     18  C   UNL     1       5.533   2.173  11.486  0.00  0.00    +0.000 C 
ENDBRANCH  15  16
ENDBRANCH  14  15
ENDBRANCH  13  14
ENDBRANCH   5  13
TORSDOF 7
ENDMDL
MODEL 7
REMARK VINA RESULT:      -6.0      1.996      2.298
REMARK  Name = 
REMARK  7 active torsions:
REMARK  status: ('A' for Active; 'I' for Inactive)
REMARK    1  A    between atoms: C_2  and  O_3
REMARK    2  A    between atoms: O_3  and  C_4
REMARK    3  A    between atoms: C_4  and  C_5
REMARK    4  A    between atoms: C_11  and  C_12
REMARK    5  A    between atoms: C_12  and  O_13
REMARK    6  A    between atoms: O_13  and  C_14
REMARK    7  A    between atoms: C_14  and  C_15
REMARK                            x       y       z     vdW  Elec       q    Type
REMARK                         _______ _______ _______ _____ _____    ______ ____
ROOT
ATOM      1  C   UNL     1       4.484   4.153  16.833  0.00  0.00    +0.000 A 
ATOM      2  C   UNL     1       3.802   5.179  17.495  0.00  0.00    +0.000 A 
ATOM      3  N   UNL     1       4.369   6.376  17.312  0.00  0.00    +0.000 NA
ATOM      4  O   UNL     1       5.472   6.127  16.508  0.00  0.00    +0.000 OA
ATOM      5  C   UNL     1       5.541   4.794  16.231  0.00  0.00    +0.000 A 
ENDROOT
BRANCH   2   6
ATOM      6  O   UNL     1       2.668   5.030  18.211  0.00  0.00    +0.000 OA
BRANCH   6   7
ATOM      7  C   UNL     1       1.761   4.055  17.690  0.00  0.00    +0.000 C 
BRANCH   7   8
ATOM      8  C   UNL     1       1.282   3.208  18.862  0.00  0.00    +0.000 C 
ATOM      9  C   UNL     1       0.937   3.915  20.196  0.00  0.00    +0.000 C 
ATOM     10  C   UNL     1       1.553   2.654  20.835  0.00  0.00    +0.000 C 
ATOM     11  N   UNL     1       2.385   2.527  19.611  0.00  0.00    +0.000 NA
ATOM     12  H   UNL     1       2.575   1.574  19.306  0.00  0.00    +0.000 HD
ENDBRANCH   7   8
ENDBRANCH   6   7
ENDBRANCH   2   6
BRANCH   5  13
ATOM     13  C   UNL     1       6.674   4.347  15.401  0.00  0.00    +0.000 C 
BRANCH  13  14
ATOM     14  O   UNL     1       6.747   5.235  14.289  0.00  0.00    +0.000 OA
BRANCH  14  15
ATOM     15  C   UNL     1       6.999   4.536  13.076  0.00  0.00    +0.000 C 
BRANCH  15  16
ATOM     16  C   UNL     1       5.982   3.450  12.949  0.00  0.00    +0.000 C 
ATOM     17  C   UNL     1       4.877   3.560  11.930  0.00  0.00    +0.000 C 
ATOM     18  C   UNL     1       5.966   2.538  11.748  0.00  0.00    +0.000 C 
ENDBRANCH  15  16
ENDBRANCH  14  15
ENDBRANCH  13  14
ENDBRANCH   5  13
TORSDOF 7
ENDMDL
MODEL 8
REMARK VINA RESULT:      -6.0      1.908      2.510
REMARK  Name = 
REMARK  7 active torsions:
REMARK  status: ('A' for Active; 'I' for Inactive)
REMARK    1  A    between atoms: C_2  and  O_3
REMARK    2  A    between atoms: O_3  and  C_4
REMARK    3  A    between atoms: C_4  and  C_5
REMARK    4  A    between atoms: C_11  and  C_12
REMARK    5  A    between atoms: C_12  and  O_13
REMARK    6  A    between atoms: O_13  and  C_14
REMARK    7  A    between atoms: C_14  and  C_15
REMARK                            x       y       z     vdW  Elec       q    Type
REMARK                         _______ _______ _______ _____ _____    ______ ____
ROOT
ATOM      1  C   UNL     1       4.695   4.500  18.019  0.00  0.00    +0.000 A 
ATOM      2  C   UNL     1       3.720   5.503  18.017  0.00  0.00    +0.000 A 
ATOM      3  N   UNL     1       4.157   6.646  17.480  0.00  0.00    +0.000 NA
ATOM      4  O   UNL     1       5.473   6.390  17.124  0.00  0.00    +0.000 OA
ATOM      5  C   UNL     1       5.792   5.107  17.456  0.00  0.00    +0.000 A 
ENDROOT
BRANCH   2   6
ATOM      6  O   UNL     1       2.451   5.361  18.456  0.00  0.00    +0.000 OA
BRANCH   6   7
ATOM      7  C   UNL     1       1.789   4.184  17.985  0.00  0.00    +0.000 C 
BRANCH   7   8
ATOM      8  C   UNL     1       1.167   3.499  19.196  0.00  0.00    +0.000 C 
ATOM      9  C   UNL     1       1.198   4.230  20.561  0.00  0.00    +0.000 C 
ATOM     10  C   UNL     1       1.420   2.813  21.129  0.00  0.00    +0.000 C 
ATOM     11  N   UNL     1       2.046   2.465  19.829  0.00  0.00    +0.000 NA
ATOM     12  H   UNL     1       1.881   1.515  19.501  0.00  0.00    +0.000 HD
ENDBRANCH   7   8
ENDBRANCH   6   7
ENDBRANCH   2   6
BRANCH   5  13
ATOM     13  C   UNL     1       7.170   4.671  17.167  0.00  0.00    +0.000 C 
BRANCH  13  14
ATOM     14  O   UNL     1       7.323   4.698  15.751  0.00  0.00    +0.000 OA
BRANCH  14  15
ATOM     15  C   UNL     1       6.483   3.742  15.115  0.00  0.00    +0.000 C 
BRANCH  15  16
ATOM     16  C   UNL     1       6.087   4.290  13.783  0.00  0.00    +0.000 C 
ATOM     17  C   UNL     1       7.092   4.365  12.663  0.00  0.00    +0.000 C 
ATOM     18  C   UNL     1       5.952   3.387  12.582  0.00  0.00    +0.000 C 
ENDBRANCH  15  16
ENDBRANCH  14  15
ENDBRANCH  13  14
ENDBRANCH   5  13
TORSDOF 7
ENDMDL
MODEL 9
REMARK VINA RESULT:      -5.9      2.490      5.926
REMARK  Name = 
REMARK  7 active torsions:
REMARK  status: ('A' for Active; 'I' for Inactive)
REMARK    1  A    between atoms: C_2  and  O_3
REMARK    2  A    between atoms: O_3  and  C_4
REMARK    3  A    between atoms: C_4  and  C_5
REMARK    4  A    between atoms: C_11  and  C_12
REMARK    5  A    between atoms: C_12  and  O_13
REMARK    6  A    between atoms: O_13  and  C_14
REMARK    7  A    between atoms: C_14  and  C_15
REMARK                            x       y       z     vdW  Elec       q    Type
REMARK                         _______ _______ _______ _____ _____    ______ ____
ROOT
ATOM      1  C   UNL     1       3.923   5.741  19.398  0.00  0.00    +0.000 A 
ATOM      2  C   UNL     1       5.096   5.233  18.829  0.00  0.00    +0.000 A 
ATOM      3  N   UNL     1       5.352   3.977  19.209  0.00  0.00    +0.000 NA
ATOM      4  O   UNL     1       4.314   3.649  20.069  0.00  0.00    +0.000 OA
ATOM      5  C   UNL     1       3.467   4.710  20.186  0.00  0.00    +0.000 A 
ENDROOT
BRANCH   2   6
ATOM      6  O   UNL     1       5.887   5.886  17.951  0.00  0.00    +0.000 OA
BRANCH   6   7
ATOM      7  C   UNL     1       5.183   6.536  16.889  0.00  0.00    +0.000 C 
BRANCH   7   8
ATOM      8  C   UNL     1       5.646   5.900  15.584  0.00  0.00    +0.000 C 
ATOM      9  C   UNL     1       5.385   4.391  15.359  0.00  0.00    +0.000 C 
ATOM     10  C   UNL     1       6.763   4.423  14.667  0.00  0.00    +0.000 C 
ATOM     11  N   UNL     1       7.104   5.563  15.555  0.00  0.00    +0.000 NA
ATOM     12  H   UNL     1       7.694   6.282  15.141  0.00  0.00    +0.000 HD
ENDBRANCH   7   8
ENDBRANCH   6   7
ENDBRANCH   2   6
BRANCH   5  13
ATOM     13  C   UNL     1       2.312   4.543  21.087  0.00  0.00    +0.000 C 
BRANCH  13  14
ATOM     14  O   UNL     1       1.188   4.244  20.265  0.00  0.00    +0.000 OA
BRANCH  14  15
ATOM     15  C   UNL     1       1.038   2.842  20.073  0.00  0.00    +0.000 C 
BRANCH  15  16
ATOM     16  C   UNL     1       0.970   2.582  18.603  0.00  0.00    +0.000 C 
ATOM     17  C   UNL     1       1.584   3.557  17.631  0.00  0.00    +0.000 C 
ATOM     18  C   UNL     1       2.204   2.200  17.825  0.00  0.00    +0.000 C 
ENDBRANCH  15  16
ENDBRANCH  14  15
ENDBRANCH  13  14
ENDBRANCH   5  13
TORSDOF 7
ENDMDL
