MODEL 1
REMARK VINA RESULT:      -7.7      0.000      0.000
REMARK  Name = 
REMARK  7 active torsions:
REMARK  status: ('A' for Active; 'I' for Inactive)
REMARK    1  A    between atoms: C_5  and  C_6
REMARK    2  A    between atoms: C_6  and  C_7
REMARK    3  A    between atoms: C_6  and  O_14
REMARK    4  A    between atoms: C_7  and  C_8
REMARK    5  A    between atoms: C_8  and  N_9
REMARK    6  A    between atoms: O_14  and  C_15
REMARK    7  A    between atoms: C_15  and  C_16
REMARK                            x       y       z     vdW  Elec       q    Type
REMARK                         _______ _______ _______ _____ _____    ______ ____
ROOT
ATOM      1  C   UNL     1       3.060   6.134  18.933  0.00  0.00    +0.000 C 
ENDROOT
BRANCH   1   6
ATOM      2 CL   UNL     1      -0.044  11.308  19.366  0.00  0.00    +0.000 Cl
ATOM      3  C   UNL     1       0.860   9.850  19.245  0.00  0.00    +0.000 A 
ATOM      4  C   UNL     1       1.027   9.041  20.367  0.00  0.00    +0.000 A 
ATOM      5  C   UNL     1       1.751   7.849  20.266  0.00  0.00    +0.000 A 
ATOM      6  C   UNL     1       2.295   7.446  19.036  0.00  0.00    +0.000 A 
ATOM      7  C   UNL     1       2.104   8.273  17.914  0.00  0.00    +0.000 A 
ATOM      8  C   UNL     1       1.411   9.479  18.022  0.00  0.00    +0.000 A 
ENDBRANCH   1   6
BRANCH   1   9
ATOM      9  C   UNL     1       2.273   5.157  18.023  0.00  0.00    +0.000 C 
BRANCH   9  10
ATOM     10  C   UNL     1       1.393   4.180  18.809  0.00  0.00    +0.000 C 
BRANCH  10  11
ATOM     11  N   UNL     1       2.069   3.567  19.939  0.00  0.00    +0.000 N 
ATOM     12  C   UNL     1       3.078   2.645  19.890  0.00  0.00    +0.000 A 
ATOM     13  C   UNL     1       3.284   2.257  21.196  0.00  0.00    +0.000 A 
ATOM     14  N   UNL     1       2.436   2.935  22.037  0.00  0.00    +0.000 NA
ATOM     15  C   UNL     1       1.719   3.706  21.255  0.00  0.00    +0.000 A 
ENDBRANCH  10  11
ENDBRANCH   9  10
ENDBRANCH   1   9
BRANCH   1  16
ATOM     16  O   UNL     1       4.385   6.296  18.400  0.00  0.00    +0.000 OA
BRANCH  16  17
ATOM     17  C   UNL     1       5.141   5.083  18.227  0.00  0.00    +0.000 C 
BRANCH  17  18
ATOM     18  C   UNL     1       5.680   4.906  16.828  0.00  0.00    +0.000 A 
ATOM     19  C   UNL     1       5.042   3.977  15.988  0.00  0.00    +0.000 A 
ATOM     20  C   UNL     1       5.487   3.772  14.682  0.00  0.00    +0.000 A 
ATOM     21  C   UNL     1       6.575   4.497  14.204  0.00  0.00    +0.000 A 
ATOM     22 CL   UNL     1       7.132   4.235  12.598  0.00  0.00    +0.000 Cl
ATOM     23  C   UNL     1       7.213   5.433  15.012  0.00  0.00    +0.000 A 
ATOM     24  C   UNL     1       6.762   5.643  16.319  0.00  0.00    +0.000 A 
ATOM     25 CL   UNL     1       7.587   6.841  17.250  0.00  0.00    +0.000 Cl
ENDBRANCH  17  18
ENDBRANCH  16  17
ENDBRANCH   1  16
TORSDOF 7
ENDMDL
MODEL 2
REMARK VINA RESULT:      -7.5      0.983      1.332
REMARK  Name = 
REMARK  7 active torsions:
REMARK  status: ('A' for Active; 'I' for Inactive)
REMARK    1  A    between atoms: C_5  and  C_6
REMARK    2  A    between atoms: C_6  and  C_7
REMARK    3  A    between atoms: C_6  and  O_14
REMARK    4  A    between atoms: C_7  and  C_8
REMARK    5  A    between atoms: C_8  and  N_9
REMARK    6  A    between atoms: O_14  and  C_15
REMARK    7  A    between atoms: C_15  and  C_16
REMARK                            x       y       z     vdW  Elec       q    Type
REMARK                         _______ _______ _______ _____ _____    ______ ____
ROOT
ATOM      1  C   UNL     1       2.985   6.353  19.691  0.00  0.00    +0.000 C 
ENDROOT
BRANCH   1   6
ATOM      2 CL   UNL     1      -0.266  11.345  18.644  0.00  0.00    +0.000 Cl
ATOM      3  C   UNL     1       0.679   9.940  18.944  0.00  0.00    +0.000 A 
ATOM      4  C   UNL     1       0.702   9.377  20.218  0.00  0.00    +0.000 A 
ATOM      5  C   UNL     1       1.459   8.228  20.460  0.00  0.00    +0.000 A 
ATOM      6  C   UNL     1       2.183   7.619  19.421  0.00  0.00    +0.000 A 
ATOM      7  C   UNL     1       2.136   8.198  18.141  0.00  0.00    +0.000 A 
ATOM      8  C   UNL     1       1.408   9.365  17.908  0.00  0.00    +0.000 A 
ENDBRANCH   1   6
BRANCH   1   9
ATOM      9  C   UNL     1       2.076   5.317  20.400  0.00  0.00    +0.000 C 
BRANCH   9  10
ATOM     10  C   UNL     1       1.542   4.238  19.452  0.00  0.00    +0.000 C 
BRANCH  10  11
ATOM     11  N   UNL     1       2.422   3.089  19.324  0.00  0.00    +0.000 N 
ATOM     12  C   UNL     1       3.382   2.687  20.213  0.00  0.00    +0.000 A 
ATOM     13  C   UNL     1       4.045   1.652  19.591  0.00  0.00    +0.000 A 
ATOM     14  N   UNL     1       3.499   1.405  18.357  0.00  0.00    +0.000 NA
ATOM     15  C   UNL     1       2.535   2.283  18.223  0.00  0.00    +0.000 A 
ENDBRANCH  10  11
ENDBRANCH   9  10
ENDBRANCH   1   9
BRANCH   1  16
ATOM     16  O   UNL     1       3.516   5.758  18.495  0.00  0.00    +0.000 OA
BRANCH  16  17
ATOM     17  C   UNL     1       4.940   5.553  18.479  0.00  0.00    +0.000 C 
BRANCH  17  18
ATOM     18  C   UNL     1       5.487   5.234  17.109  0.00  0.00    +0.000 A 
ATOM     19  C   UNL     1       4.778   4.318  16.313  0.00  0.00    +0.000 A 
ATOM     20  C   UNL     1       5.226   3.986  15.035  0.00  0.00    +0.000 A 
ATOM     21  C   UNL     1       6.389   4.571  14.540  0.00  0.00    +0.000 A 
ATOM     22 CL   UNL     1       6.949   4.153  12.968  0.00  0.00    +0.000 Cl
ATOM     23  C   UNL     1       7.100   5.492  15.304  0.00  0.00    +0.000 A 
ATOM     24  C   UNL     1       6.645   5.829  16.582  0.00  0.00    +0.000 A 
ATOM     25 CL   UNL     1       7.565   7.001  17.457  0.00  0.00    +0.000 Cl
ENDBRANCH  17  18
ENDBRANCH  16  17
ENDBRANCH   1  16
TORSDOF 7
ENDMDL
MODEL 3
REMARK VINA RESULT:      -7.4      0.923      1.578
REMARK  Name = 
REMARK  7 active torsions:
REMARK  status: ('A' for Active; 'I' for Inactive)
REMARK    1  A    between atoms: C_5  and  C_6
REMARK    2  A    between atoms: C_6  and  C_7
REMARK    3  A    between atoms: C_6  and  O_14
REMARK    4  A    between atoms: C_7  and  C_8
REMARK    5  A    between atoms: C_8  and  N_9
REMARK    6  A    between atoms: O_14  and  C_15
REMARK    7  A    between atoms: C_15  and  C_16
REMARK                            x       y       z     vdW  Elec       q    Type
REMARK                         _______ _______ _______ _____ _____    ______ ____
ROOT
ATOM      1  C   UNL     1       2.897   6.334  19.143  0.00  0.00    +0.000 C 
ENDROOT
BRANCH   1   6
ATOM      2 CL   UNL     1      -0.199  11.421  20.212  0.00  0.00    +0.000 Cl
ATOM      3  C   UNL     1       0.660   9.962  19.904  0.00  0.00    +0.000 A 
ATOM      4  C   UNL     1       1.243   9.750  18.657  0.00  0.00    +0.000 A 
ATOM      5  C   UNL     1       1.952   8.572  18.409  0.00  0.00    +0.000 A 
ATOM      6  C   UNL     1       2.101   7.604  19.417  0.00  0.00    +0.000 A 
ATOM      7  C   UNL     1       1.514   7.844  20.671  0.00  0.00    +0.000 A 
ATOM      8  C   UNL     1       0.777   9.005  20.907  0.00  0.00    +0.000 A 
ENDBRANCH   1   6
BRANCH   1   9
ATOM      9  C   UNL     1       1.991   5.316  18.406  0.00  0.00    +0.000 C 
BRANCH   9  10
ATOM     10  C   UNL     1       1.580   4.131  19.285  0.00  0.00    +0.000 C 
BRANCH  10  11
ATOM     11  N   UNL     1       2.527   3.029  19.258  0.00  0.00    +0.000 N 
ATOM     12  C   UNL     1       3.545   2.800  20.143  0.00  0.00    +0.000 A 
ATOM     13  C   UNL     1       4.249   1.736  19.622  0.00  0.00    +0.000 A 
ATOM     14  N   UNL     1       3.672   1.304  18.455  0.00  0.00    +0.000 NA
ATOM     15  C   UNL     1       2.648   2.099  18.260  0.00  0.00    +0.000 A 
ENDBRANCH  10  11
ENDBRANCH   9  10
ENDBRANCH   1   9
BRANCH   1  16
ATOM     16  O   UNL     1       4.072   6.568  18.348  0.00  0.00    +0.000 OA
BRANCH  16  17
ATOM     17  C   UNL     1       5.052   5.514  18.359  0.00  0.00    +0.000 C 
BRANCH  17  18
ATOM     18  C   UNL     1       5.548   5.140  16.984  0.00  0.00    +0.000 A 
ATOM     19  C   UNL     1       4.806   4.200  16.248  0.00  0.00    +0.000 A 
ATOM     20  C   UNL     1       5.208   3.818  14.968  0.00  0.00    +0.000 A 
ATOM     21  C   UNL     1       6.356   4.376  14.411  0.00  0.00    +0.000 A 
ATOM     22 CL   UNL     1       6.857   3.896  12.837  0.00  0.00    +0.000 Cl
ATOM     23  C   UNL     1       7.098   5.320  15.115  0.00  0.00    +0.000 A 
ATOM     24  C   UNL     1       6.691   5.707  16.395  0.00  0.00    +0.000 A 
ATOM     25 CL   UNL     1       7.647   6.904  17.193  0.00  0.00    +0.000 Cl
ENDBRANCH  17  18
ENDBRANCH  16  17
ENDBRANCH   1  16
TORSDOF 7
ENDMDL
MODEL 4
REMARK VINA RESULT:      -7.4      0.498      1.246
REMARK  Name = 
REMARK  7 active torsions:
REMARK  status: ('A' for Active; 'I' for Inactive)
REMARK    1  A    between atoms: C_5  and  C_6
REMARK    2  A    between atoms: C_6  and  C_7
REMARK    3  A    between atoms: C_6  and  O_14
REMARK    4  A    between atoms: C_7  and  C_8
REMARK    5  A    between atoms: C_8  and  N_9
REMARK    6  A    between atoms: O_14  and  C_15
REMARK    7  A    between atoms: C_15  and  C_16
REMARK                            x       y       z     vdW  Elec       q    Type
REMARK                         _______ _______ _______ _____ _____    ______ ____
ROOT
ATOM      1  C   UNL     1       3.018   6.200  18.885  0.00  0.00    +0.000 C 
ENDROOT
BRANCH   1   6
ATOM      2 CL   UNL     1      -0.023  11.351  19.784  0.00  0.00    +0.000 Cl
ATOM      3  C   UNL     1       0.820   9.874  19.526  0.00  0.00    +0.000 A 
ATOM      4  C   UNL     1       1.325   9.574  18.263  0.00  0.00    +0.000 A 
ATOM      5  C   UNL     1       2.021   8.381  18.056  0.00  0.00    +0.000 A 
ATOM      6  C   UNL     1       2.236   7.486  19.117  0.00  0.00    +0.000 A 
ATOM      7  C   UNL     1       1.728   7.815  20.386  0.00  0.00    +0.000 A 
ATOM      8  C   UNL     1       1.003   8.991  20.585  0.00  0.00    +0.000 A 
ENDBRANCH   1   6
BRANCH   1   9
ATOM      9  C   UNL     1       2.098   5.165  18.191  0.00  0.00    +0.000 C 
BRANCH   9  10
ATOM     10  C   UNL     1       2.538   3.716  18.425  0.00  0.00    +0.000 C 
BRANCH  10  11
ATOM     11  N   UNL     1       2.273   3.238  19.772  0.00  0.00    +0.000 N 
ATOM     12  C   UNL     1       1.067   3.238  20.419  0.00  0.00    +0.000 A 
ATOM     13  C   UNL     1       1.345   2.832  21.707  0.00  0.00    +0.000 A 
ATOM     14  N   UNL     1       2.684   2.571  21.850  0.00  0.00    +0.000 NA
ATOM     15  C   UNL     1       3.213   2.827  20.678  0.00  0.00    +0.000 A 
ENDBRANCH  10  11
ENDBRANCH   9  10
ENDBRANCH   1   9
BRANCH   1  16
ATOM     16  O   UNL     1       4.190   6.393  18.075  0.00  0.00    +0.000 OA
BRANCH  16  17
ATOM     17  C   UNL     1       5.099   5.279  18.017  0.00  0.00    +0.000 C 
BRANCH  17  18
ATOM     18  C   UNL     1       5.658   5.030  16.638  0.00  0.00    +0.000 A 
ATOM     19  C   UNL     1       4.966   4.142  15.796  0.00  0.00    +0.000 A 
ATOM     20  C   UNL     1       5.427   3.876  14.506  0.00  0.00    +0.000 A 
ATOM     21  C   UNL     1       6.585   4.498  14.047  0.00  0.00    +0.000 A 
ATOM     22 CL   UNL     1       7.160   4.160  12.461  0.00  0.00    +0.000 Cl
ATOM     23  C   UNL     1       7.278   5.392  14.856  0.00  0.00    +0.000 A 
ATOM     24  C   UNL     1       6.812   5.664  16.146  0.00  0.00    +0.000 A 
ATOM     25 CL   UNL     1       7.710   6.806  17.080  0.00  0.00    +0.000 Cl
ENDBRANCH  17  18
ENDBRANCH  16  17
ENDBRANCH   1  16
TORSDOF 7
ENDMDL
MODEL 5
REMARK VINA RESULT:      -7.4      2.015      7.167
REMARK  Name = 
REMARK  7 active torsions:
REMARK  status: ('A' for Active; 'I' for Inactive)
REMARK    1  A    between atoms: C_5  and  C_6
REMARK    2  A    between atoms: C_6  and  C_7
REMARK    3  A    between atoms: C_6  and  O_14
REMARK    4  A    between atoms: C_7  and  C_8
REMARK    5  A    between atoms: C_8  and  N_9
REMARK    6  A    between atoms: O_14  and  C_15
REMARK    7  A    between atoms: C_15  and  C_16
REMARK                            x       y       z     vdW  Elec       q    Type
REMARK                         _______ _______ _______ _____ _____    ______ ____
ROOT
ATOM      1  C   UNL     1       2.275   6.329  19.365  0.00  0.00    +0.000 C 
ENDROOT
BRANCH   1   6
ATOM      2 CL   UNL     1       7.528   4.548  16.949  0.00  0.00    +0.000 Cl
ATOM      3  C   UNL     1       6.045   5.077  17.642  0.00  0.00    +0.000 A 
ATOM      4  C   UNL     1       5.035   5.576  16.824  0.00  0.00    +0.000 A 
ATOM      5  C   UNL     1       3.824   5.993  17.384  0.00  0.00    +0.000 A 
ATOM      6  C   UNL     1       3.608   5.894  18.769  0.00  0.00    +0.000 A 
ATOM      7  C   UNL     1       4.637   5.376  19.574  0.00  0.00    +0.000 A 
ATOM      8  C   UNL     1       5.857   4.991  19.018  0.00  0.00    +0.000 A 
ENDBRANCH   1   6
BRANCH   1   9
ATOM      9  C   UNL     1       1.981   5.476  20.625  0.00  0.00    +0.000 C 
BRANCH   9  10
ATOM     10  C   UNL     1       1.070   4.278  20.341  0.00  0.00    +0.000 C 
BRANCH  10  11
ATOM     11  N   UNL     1       1.674   3.282  19.471  0.00  0.00    +0.000 N 
ATOM     12  C   UNL     1       2.697   2.429  19.787  0.00  0.00    +0.000 A 
ATOM     13  C   UNL     1       3.016   1.790  18.609  0.00  0.00    +0.000 A 
ATOM     14  N   UNL     1       2.201   2.220  17.593  0.00  0.00    +0.000 NA
ATOM     15  C   UNL     1       1.413   3.116  18.138  0.00  0.00    +0.000 A 
ENDBRANCH  10  11
ENDBRANCH   9  10
ENDBRANCH   1   9
BRANCH   1  16
ATOM     16  O   UNL     1       2.251   7.719  19.732  0.00  0.00    +0.000 OA
BRANCH  16  17
ATOM     17  C   UNL     1       1.443   8.048  20.876  0.00  0.00    +0.000 C 
BRANCH  17  18
ATOM     18  C   UNL     1       0.617   9.298  20.690  0.00  0.00    +0.000 A 
ATOM     19  C   UNL     1       0.449   9.789  19.383  0.00  0.00    +0.000 A 
ATOM     20  C   UNL     1      -0.309  10.935  19.143  0.00  0.00    +0.000 A 
ATOM     21  C   UNL     1      -0.907  11.600  20.210  0.00  0.00    +0.000 A 
ATOM     22 CL   UNL     1      -1.832  13.020  19.916  0.00  0.00    +0.000 Cl
ATOM     23  C   UNL     1      -0.767  11.124  21.510  0.00  0.00    +0.000 A 
ATOM     24  C   UNL     1      -0.013   9.971  21.749  0.00  0.00    +0.000 A 
ATOM     25 CL   UNL     1       0.090   9.427  23.385  0.00  0.00    +0.000 Cl
ENDBRANCH  17  18
ENDBRANCH  16  17
ENDBRANCH   1  16
TORSDOF 7
ENDMDL
MODEL 6
REMARK VINA RESULT:      -7.3      1.221      1.938
REMARK  Name = 
REMARK  7 active torsions:
REMARK  status: ('A' for Active; 'I' for Inactive)
REMARK    1  A    between atoms: C_5  and  C_6
REMARK    2  A    between atoms: C_6  and  C_7
REMARK    3  A    between atoms: C_6  and  O_14
REMARK    4  A    between atoms: C_7  and  C_8
REMARK    5  A    between atoms: C_8  and  N_9
REMARK    6  A    between atoms: O_14  and  C_15
REMARK    7  A    between atoms: C_15  and  C_16
REMARK                            x       y       z     vdW  Elec       q    Type
REMARK                         _______ _______ _______ _____ _____    ______ ____
ROOT
ATOM      1  C   UNL     1       2.657   6.319  20.021  0.00  0.00    +0.000 C 
ENDROOT
BRANCH   1   6
ATOM      2 CL   UNL     1       0.110  11.657  18.748  0.00  0.00    +0.000 Cl
ATOM      3  C   UNL     1       0.812  10.128  19.107  0.00  0.00    +0.000 A 
ATOM      4  C   UNL     1       1.503   9.432  18.118  0.00  0.00    +0.000 A 
ATOM      5  C   UNL     1       2.085   8.196  18.412  0.00  0.00    +0.000 A 
ATOM      6  C   UNL     1       1.997   7.656  19.706  0.00  0.00    +0.000 A 
ATOM      7  C   UNL     1       1.305   8.381  20.691  0.00  0.00    +0.000 A 
ATOM      8  C   UNL     1       0.695   9.599  20.389  0.00  0.00    +0.000 A 
ENDBRANCH   1   6
BRANCH   1   9
ATOM      9  C   UNL     1       1.575   5.320  20.502  0.00  0.00    +0.000 C 
BRANCH   9  10
ATOM     10  C   UNL     1       2.152   3.961  20.912  0.00  0.00    +0.000 C 
BRANCH  10  11
ATOM     11  N   UNL     1       2.488   3.107  19.786  0.00  0.00    +0.000 N 
ATOM     12  C   UNL     1       1.699   2.831  18.702  0.00  0.00    +0.000 A 
ATOM     13  C   UNL     1       2.382   1.868  17.990  0.00  0.00    +0.000 A 
ATOM     14  N   UNL     1       3.571   1.569  18.606  0.00  0.00    +0.000 NA
ATOM     15  C   UNL     1       3.604   2.321  19.679  0.00  0.00    +0.000 A 
ENDBRANCH  10  11
ENDBRANCH   9  10
ENDBRANCH   1   9
BRANCH   1  16
ATOM     16  O   UNL     1       3.342   5.751  18.892  0.00  0.00    +0.000 OA
BRANCH  16  17
ATOM     17  C   UNL     1       4.775   5.685  19.001  0.00  0.00    +0.000 C 
BRANCH  17  18
ATOM     18  C   UNL     1       5.469   5.466  17.678  0.00  0.00    +0.000 A 
ATOM     19  C   UNL     1       4.670   5.300  16.534  0.00  0.00    +0.000 A 
ATOM     20  C   UNL     1       5.250   5.102  15.281  0.00  0.00    +0.000 A 
ATOM     21  C   UNL     1       6.637   5.071  15.162  0.00  0.00    +0.000 A 
ATOM     22 CL   UNL     1       7.352   4.814  13.618  0.00  0.00    +0.000 Cl
ATOM     23  C   UNL     1       7.448   5.248  16.278  0.00  0.00    +0.000 A 
ATOM     24  C   UNL     1       6.866   5.453  17.532  0.00  0.00    +0.000 A 
ATOM     25 CL   UNL     1       7.939   5.693  18.865  0.00  0.00    +0.000 Cl
ENDBRANCH  17  18
ENDBRANCH  16  17
ENDBRANCH   1  16
TORSDOF 7
ENDMDL
MODEL 7
REMARK VINA RESULT:      -7.2      3.617      7.358
REMARK  Name = 
REMARK  7 active torsions:
REMARK  status: ('A' for Active; 'I' for Inactive)
REMARK    1  A    between atoms: C_5  and  C_6
REMARK    2  A    between atoms: C_6  and  C_7
REMARK    3  A    between atoms: C_6  and  O_14
REMARK    4  A    between atoms: C_7  and  C_8
REMARK    5  A    between atoms: C_8  and  N_9
REMARK    6  A    between atoms: O_14  and  C_15
REMARK    7  A    between atoms: C_15  and  C_16
REMARK                            x       y       z     vdW  Elec       q    Type
REMARK                         _______ _______ _______ _____ _____    ______ ____
ROOT
ATOM      1  C   UNL     1       3.018   7.607  18.078  0.00  0.00    +0.000 C 
ENDROOT
BRANCH   1   6
ATOM      2 CL   UNL     1       1.000   2.625  20.853  0.00  0.00    +0.000 Cl
ATOM      3  C   UNL     1       1.550   4.047  20.057  0.00  0.00    +0.000 A 
ATOM      4  C   UNL     1       1.788   5.206  20.792  0.00  0.00    +0.000 A 
ATOM      5  C   UNL     1       2.248   6.358  20.148  0.00  0.00    +0.000 A 
ATOM      6  C   UNL     1       2.493   6.353  18.765  0.00  0.00    +0.000 A 
ATOM      7  C   UNL     1       2.257   5.168  18.045  0.00  0.00    +0.000 A 
ATOM      8  C   UNL     1       1.766   4.028  18.682  0.00  0.00    +0.000 A 
ENDBRANCH   1   6
BRANCH   1   9
ATOM      9  C   UNL     1       3.941   7.195  16.904  0.00  0.00    +0.000 C 
BRANCH   9  10
ATOM     10  C   UNL     1       5.419   7.119  17.301  0.00  0.00    +0.000 C 
BRANCH  10  11
ATOM     11  N   UNL     1       6.151   6.065  16.618  0.00  0.00    +0.000 N 
ATOM     12  C   UNL     1       5.795   5.442  15.453  0.00  0.00    +0.000 A 
ATOM     13  C   UNL     1       6.712   4.426  15.287  0.00  0.00    +0.000 A 
ATOM     14  N   UNL     1       7.624   4.431  16.313  0.00  0.00    +0.000 NA
ATOM     15  C   UNL     1       7.259   5.419  17.095  0.00  0.00    +0.000 A 
ENDBRANCH  10  11
ENDBRANCH   9  10
ENDBRANCH   1   9
BRANCH   1  16
ATOM     16  O   UNL     1       1.970   8.448  17.568  0.00  0.00    +0.000 OA
BRANCH  16  17
ATOM     17  C   UNL     1       1.940   9.791  18.084  0.00  0.00    +0.000 C 
BRANCH  17  18
ATOM     18  C   UNL     1       0.544  10.324  18.294  0.00  0.00    +0.000 A 
ATOM     19  C   UNL     1      -0.512   9.696  17.609  0.00  0.00    +0.000 A 
ATOM     20  C   UNL     1      -1.826  10.136  17.766  0.00  0.00    +0.000 A 
ATOM     21  C   UNL     1      -2.097  11.208  18.613  0.00  0.00    +0.000 A 
ATOM     22 CL   UNL     1      -3.716  11.758  18.797  0.00  0.00    +0.000 Cl
ATOM     23  C   UNL     1      -1.071  11.835  19.312  0.00  0.00    +0.000 A 
ATOM     24  C   UNL     1       0.246  11.389  19.160  0.00  0.00    +0.000 A 
ATOM     25 CL   UNL     1       1.460  12.199  20.083  0.00  0.00    +0.000 Cl
ENDBRANCH  17  18
ENDBRANCH  16  17
ENDBRANCH   1  16
TORSDOF 7
ENDMDL
MODEL 8
REMARK VINA RESULT:      -7.1      1.843      6.935
REMARK  Name = 
REMARK  7 active torsions:
REMARK  status: ('A' for Active; 'I' for Inactive)
REMARK    1  A    between atoms: C_5  and  C_6
REMARK    2  A    between atoms: C_6  and  C_7
REMARK    3  A    between atoms: C_6  and  O_14
REMARK    4  A    between atoms: C_7  and  C_8
REMARK    5  A    between atoms: C_8  and  N_9
REMARK    6  A    between atoms: O_14  and  C_15
REMARK    7  A    between atoms: C_15  and  C_16
REMARK                            x       y       z     vdW  Elec       q    Type
REMARK                         _______ _______ _______ _____ _____    ______ ____
ROOT
ATOM      1  C   UNL     1       2.515   7.050  18.425  0.00  0.00    +0.000 C 
ENDROOT
BRANCH   1   6
ATOM      2 CL   UNL     1       6.392   3.867  15.044  0.00  0.00    +0.000 Cl
ATOM      3  C   UNL     1       5.275   4.776  15.985  0.00  0.00    +0.000 A 
ATOM      4  C   UNL     1       4.330   4.118  16.768  0.00  0.00    +0.000 A 
ATOM      5  C   UNL     1       3.430   4.855  17.543  0.00  0.00    +0.000 A 
ATOM      6  C   UNL     1       3.484   6.258  17.557  0.00  0.00    +0.000 A 
ATOM      7  C   UNL     1       4.454   6.901  16.768  0.00  0.00    +0.000 A 
ATOM      8  C   UNL     1       5.329   6.166  15.968  0.00  0.00    +0.000 A 
ENDBRANCH   1   6
BRANCH   1   9
ATOM      9  C   UNL     1       2.726   6.660  19.909  0.00  0.00    +0.000 C 
BRANCH   9  10
ATOM     10  C   UNL     1       1.472   6.066  20.559  0.00  0.00    +0.000 C 
BRANCH  10  11
ATOM     11  N   UNL     1       1.532   4.624  20.731  0.00  0.00    +0.000 N 
ATOM     12  C   UNL     1       2.312   3.936  21.621  0.00  0.00    +0.000 A 
ATOM     13  C   UNL     1       2.135   2.606  21.308  0.00  0.00    +0.000 A 
ATOM     14  N   UNL     1       1.256   2.471  20.263  0.00  0.00    +0.000 NA
ATOM     15  C   UNL     1       0.917   3.695  19.936  0.00  0.00    +0.000 A 
ENDBRANCH  10  11
ENDBRANCH   9  10
ENDBRANCH   1   9
BRANCH   1  16
ATOM     16  O   UNL     1       2.677   8.473  18.294  0.00  0.00    +0.000 OA
BRANCH  16  17
ATOM     17  C   UNL     1       1.493   9.205  17.930  0.00  0.00    +0.000 C 
BRANCH  17  18
ATOM     18  C   UNL     1       1.018  10.154  19.003  0.00  0.00    +0.000 A 
ATOM     19  C   UNL     1       0.129   9.661  19.973  0.00  0.00    +0.000 A 
ATOM     20  C   UNL     1      -0.341  10.485  20.996  0.00  0.00    +0.000 A 
ATOM     21  C   UNL     1       0.078  11.811  21.058  0.00  0.00    +0.000 A 
ATOM     22 CL   UNL     1      -0.510  12.831  22.313  0.00  0.00    +0.000 Cl
ATOM     23  C   UNL     1       0.970  12.317  20.118  0.00  0.00    +0.000 A 
ATOM     24  C   UNL     1       1.446  11.488  19.097  0.00  0.00    +0.000 A 
ATOM     25 CL   UNL     1       2.572  12.181  17.986  0.00  0.00    +0.000 Cl
ENDBRANCH  17  18
ENDBRANCH  16  17
ENDBRANCH   1  16
TORSDOF 7
ENDMDL
MODEL 9
REMARK VINA RESULT:      -7.1      1.458      6.328
REMARK  Name = 
REMARK  7 active torsions:
REMARK  status: ('A' for Active; 'I' for Inactive)
REMARK    1  A    between atoms: C_5  and  C_6
REMARK    2  A    between atoms: C_6  and  C_7
REMARK    3  A    between atoms: C_6  and  O_14
REMARK    4  A    between atoms: C_7  and  C_8
REMARK    5  A    between atoms: C_8  and  N_9
REMARK    6  A    between atoms: O_14  and  C_15
REMARK    7  A    between atoms: C_15  and  C_16
REMARK                            x       y       z     vdW  Elec       q    Type
REMARK                         _______ _______ _______ _____ _____    ______ ____
ROOT
ATOM      1  C   UNL     1       3.991   4.181  17.189  0.00  0.00    +0.000 C 
ENDROOT
BRANCH   1   6
ATOM      2 CL   UNL     1       8.230   5.339  13.032  0.00  0.00    +0.000 Cl
ATOM      3  C   UNL     1       7.037   4.989  14.221  0.00  0.00    +0.000 A 
ATOM      4  C   UNL     1       7.082   5.626  15.458  0.00  0.00    +0.000 A 
ATOM      5  C   UNL     1       6.106   5.352  16.420  0.00  0.00    +0.000 A 
ATOM      6  C   UNL     1       5.063   4.453  16.142  0.00  0.00    +0.000 A 
ATOM      7  C   UNL     1       5.031   3.830  14.882  0.00  0.00    +0.000 A 
ATOM      8  C   UNL     1       6.025   4.078  13.935  0.00  0.00    +0.000 A 
ENDBRANCH   1   6
BRANCH   1   9
ATOM      9  C   UNL     1       4.672   3.766  18.518  0.00  0.00    +0.000 C 
BRANCH   9  10
ATOM     10  C   UNL     1       4.085   2.485  19.120  0.00  0.00    +0.000 C 
BRANCH  10  11
ATOM     11  N   UNL     1       2.922   2.717  19.960  0.00  0.00    +0.000 N 
ATOM     12  C   UNL     1       2.877   2.672  21.328  0.00  0.00    +0.000 A 
ATOM     13  C   UNL     1       1.545   2.808  21.653  0.00  0.00    +0.000 A 
ATOM     14  N   UNL     1       0.785   2.952  20.519  0.00  0.00    +0.000 NA
ATOM     15  C   UNL     1       1.636   2.888  19.523  0.00  0.00    +0.000 A 
ENDBRANCH  10  11
ENDBRANCH   9  10
ENDBRANCH   1   9
BRANCH   1  16
ATOM     16  O   UNL     1       3.147   5.318  17.439  0.00  0.00    +0.000 OA
BRANCH  16  17
ATOM     17  C   UNL     1       3.407   6.032  18.660  0.00  0.00    +0.000 C 
BRANCH  17  18
ATOM     18  C   UNL     1       2.631   7.321  18.780  0.00  0.00    +0.000 A 
ATOM     19  C   UNL     1       2.741   8.257  17.737  0.00  0.00    +0.000 A 
ATOM     20  C   UNL     1       2.043   9.463  17.784  0.00  0.00    +0.000 A 
ATOM     21  C   UNL     1       1.226   9.744  18.876  0.00  0.00    +0.000 A 
ATOM     22 CL   UNL     1       0.374  11.237  18.940  0.00  0.00    +0.000 Cl
ATOM     23  C   UNL     1       1.090   8.827  19.914  0.00  0.00    +0.000 A 
ATOM     24  C   UNL     1       1.784   7.614  19.862  0.00  0.00    +0.000 A 
ATOM     25 CL   UNL     1       1.542   6.515  21.173  0.00  0.00    +0.000 Cl
ENDBRANCH  17  18
ENDBRANCH  16  17
ENDBRANCH   1  16
TORSDOF 7
ENDMDL
