MODEL 1
REMARK VINA RESULT:      -8.6      0.000      0.000
REMARK  Name = 
REMARK  4 active torsions:
REMARK  status: ('A' for Active; 'I' for Inactive)
REMARK    1  A    between atoms: C_1  and  C_2
REMARK    2  A    between atoms: C_2  and  C_3
REMARK    3  A    between atoms: C_8  and  C_10
REMARK    4  A    between atoms: C_16  and  C_17
REMARK                            x       y       z     vdW  Elec       q    Type
REMARK                         _______ _______ _______ _____ _____    ______ ____
ROOT
ATOM      1  C   UNL     1       2.900   2.805  20.620  0.00  0.00    +0.000 A 
ATOM      2  N   UNL     1       3.869   2.093  21.209  0.00  0.00    +0.000 NA
ATOM      3  N   UNL     1       4.887   2.277  20.347  0.00  0.00    +0.000 N 
ATOM      4  C   UNL     1       4.522   3.076  19.301  0.00  0.00    +0.000 A 
ATOM      5  N   UNL     1       5.369   3.426  18.278  0.00  0.00    +0.000 N 
ATOM      6  C   UNL     1       4.916   4.222  17.235  0.00  0.00    +0.000 C 
ATOM      7  O   UNL     1       3.800   4.728  17.134  0.00  0.00    +0.000 OA
ATOM      8  N   UNL     1       3.267   3.410  19.454  0.00  0.00    +0.000 NA
ATOM      9  H   UNL     1       5.775   1.824  20.536  0.00  0.00    +0.000 HD
ATOM     10  H   UNL     1       6.317   3.086  18.307  0.00  0.00    +0.000 HD
ENDROOT
BRANCH   6  11
ATOM     11  C   UNL     1       5.865   4.421  16.113  0.00  0.00    +0.000 A 
ATOM     12  C   UNL     1       5.635   3.736  14.905  0.00  0.00    +0.000 A 
ATOM     13  C   UNL     1       6.399   4.035  13.789  0.00  0.00    +0.000 A 
ATOM     14 BR   UNL     1       6.077   3.166  12.149  0.00  0.00    +0.000 Br
ATOM     15  C   UNL     1       7.368   5.005  13.908  0.00  0.00    +0.000 A 
ATOM     16  N   UNL     1       7.639   5.652  15.064  0.00  0.00    +0.000 NA
ATOM     17  C   UNL     1       6.901   5.378  16.181  0.00  0.00    +0.000 A 
BRANCH  17  18
ATOM     18  C   UNL     1       7.251   6.235  17.393  0.00  0.00    +0.000 C 
ATOM     19  C   UNL     1       7.790   7.646  17.349  0.00  0.00    +0.000 C 
ATOM     20  C   UNL     1       6.351   7.425  17.696  0.00  0.00    +0.000 C 
ENDBRANCH  17  18
ENDBRANCH   6  11
BRANCH   1  22
ATOM     21  C   UNL     1       0.736   3.992  20.407  0.00  0.00    +0.000 C 
ATOM     22  C   UNL     1       1.519   2.915  21.137  0.00  0.00    +0.000 C 
ENDBRANCH   1  22
TORSDOF 3
ENDMDL
MODEL 2
REMARK VINA RESULT:      -7.6      1.166      1.166
REMARK  Name = 
REMARK  4 active torsions:
REMARK  status: ('A' for Active; 'I' for Inactive)
REMARK    1  A    between atoms: C_1  and  C_2
REMARK    2  A    between atoms: C_2  and  C_3
REMARK    3  A    between atoms: C_8  and  C_10
REMARK    4  A    between atoms: C_16  and  C_17
REMARK                            x       y       z     vdW  Elec       q    Type
REMARK                         _______ _______ _______ _____ _____    ______ ____
ROOT
ATOM      1  C   UNL     1       1.773   2.689  19.338  0.00  0.00    +0.000 A 
ATOM      2  N   UNL     1       2.104   1.392  19.339  0.00  0.00    +0.000 NA
ATOM      3  N   UNL     1       3.176   1.397  18.525  0.00  0.00    +0.000 N 
ATOM      4  C   UNL     1       3.461   2.656  18.076  0.00  0.00    +0.000 A 
ATOM      5  N   UNL     1       4.505   2.945  17.232  0.00  0.00    +0.000 N 
ATOM      6  C   UNL     1       4.714   4.247  16.799  0.00  0.00    +0.000 C 
ATOM      7  O   UNL     1       4.077   5.241  17.139  0.00  0.00    +0.000 OA
ATOM      8  N   UNL     1       2.577   3.481  18.573  0.00  0.00    +0.000 NA
ATOM      9  H   UNL     1       3.640   0.518  18.322  0.00  0.00    +0.000 HD
ATOM     10  H   UNL     1       5.103   2.189  16.938  0.00  0.00    +0.000 HD
ENDROOT
BRANCH   6  11
ATOM     11  C   UNL     1       5.777   4.426  15.779  0.00  0.00    +0.000 A 
ATOM     12  C   UNL     1       5.643   3.768  14.541  0.00  0.00    +0.000 A 
ATOM     13  C   UNL     1       6.523   4.055  13.512  0.00  0.00    +0.000 A 
ATOM     14 BR   UNL     1       6.334   3.222  11.833  0.00  0.00    +0.000 Br
ATOM     15  C   UNL     1       7.510   4.986  13.743  0.00  0.00    +0.000 A 
ATOM     16  N   UNL     1       7.688   5.605  14.932  0.00  0.00    +0.000 NA
ATOM     17  C   UNL     1       6.834   5.342  15.966  0.00  0.00    +0.000 A 
BRANCH  17  18
ATOM     18  C   UNL     1       7.093   6.168  17.222  0.00  0.00    +0.000 C 
ATOM     19  C   UNL     1       7.824   7.489  17.274  0.00  0.00    +0.000 C 
ATOM     20  C   UNL     1       6.332   7.477  17.372  0.00  0.00    +0.000 C 
ENDBRANCH  17  18
ENDBRANCH   6  11
BRANCH   1  22
ATOM     21  C   UNL     1       0.880   4.665  20.535  0.00  0.00    +0.000 C 
ATOM     22  C   UNL     1       0.609   3.250  20.058  0.00  0.00    +0.000 C 
ENDBRANCH   1  22
TORSDOF 3
ENDMDL
MODEL 3
REMARK VINA RESULT:      -7.5      3.119      6.743
REMARK  Name = 
REMARK  4 active torsions:
REMARK  status: ('A' for Active; 'I' for Inactive)
REMARK    1  A    between atoms: C_1  and  C_2
REMARK    2  A    between atoms: C_2  and  C_3
REMARK    3  A    between atoms: C_8  and  C_10
REMARK    4  A    between atoms: C_16  and  C_17
REMARK                            x       y       z     vdW  Elec       q    Type
REMARK                         _______ _______ _______ _____ _____    ______ ____
ROOT
ATOM      1  C   UNL     1       6.617   4.315  13.729  0.00  0.00    +0.000 A 
ATOM      2  N   UNL     1       7.641   5.139  13.982  0.00  0.00    +0.000 NA
ATOM      3  N   UNL     1       7.252   5.686  15.149  0.00  0.00    +0.000 N 
ATOM      4  C   UNL     1       6.048   5.188  15.561  0.00  0.00    +0.000 A 
ATOM      5  N   UNL     1       5.421   5.573  16.720  0.00  0.00    +0.000 N 
ATOM      6  C   UNL     1       4.185   5.039  17.058  0.00  0.00    +0.000 C 
ATOM      7  O   UNL     1       3.570   4.173  16.441  0.00  0.00    +0.000 OA
ATOM      8  N   UNL     1       5.630   4.327  14.669  0.00  0.00    +0.000 NA
ATOM      9  H   UNL     1       7.846   6.384  15.584  0.00  0.00    +0.000 HD
ATOM     10  H   UNL     1       5.879   6.252  17.307  0.00  0.00    +0.000 HD
ENDROOT
BRANCH   6  11
ATOM     11  C   UNL     1       3.531   5.629  18.252  0.00  0.00    +0.000 A 
ATOM     12  C   UNL     1       2.996   6.928  18.157  0.00  0.00    +0.000 A 
ATOM     13  C   UNL     1       2.228   7.433  19.193  0.00  0.00    +0.000 A 
ATOM     14 BR   UNL     1       1.464   9.149  19.067  0.00  0.00    +0.000 Br
ATOM     15  C   UNL     1       2.015   6.632  20.292  0.00  0.00    +0.000 A 
ATOM     16  N   UNL     1       2.547   5.396  20.429  0.00  0.00    +0.000 NA
ATOM     17  C   UNL     1       3.308   4.871  19.422  0.00  0.00    +0.000 A 
BRANCH  17  18
ATOM     18  C   UNL     1       3.776   3.441  19.667  0.00  0.00    +0.000 C 
ATOM     19  C   UNL     1       3.251   2.511  20.736  0.00  0.00    +0.000 C 
ATOM     20  C   UNL     1       2.811   2.316  19.320  0.00  0.00    +0.000 C 
ENDBRANCH  17  18
ENDBRANCH   6  11
BRANCH   1  22
ATOM     21  C   UNL     1       5.074   3.399  12.022  0.00  0.00    +0.000 C 
ATOM     22  C   UNL     1       6.507   3.476  12.516  0.00  0.00    +0.000 C 
ENDBRANCH   1  22
TORSDOF 3
ENDMDL
MODEL 4
REMARK VINA RESULT:      -7.4      1.307      1.768
REMARK  Name = 
REMARK  4 active torsions:
REMARK  status: ('A' for Active; 'I' for Inactive)
REMARK    1  A    between atoms: C_1  and  C_2
REMARK    2  A    between atoms: C_2  and  C_3
REMARK    3  A    between atoms: C_8  and  C_10
REMARK    4  A    between atoms: C_16  and  C_17
REMARK                            x       y       z     vdW  Elec       q    Type
REMARK                         _______ _______ _______ _____ _____    ______ ____
ROOT
ATOM      1  C   UNL     1       1.686   3.607  19.850  0.00  0.00    +0.000 A 
ATOM      2  N   UNL     1       0.705   3.472  18.950  0.00  0.00    +0.000 NA
ATOM      3  N   UNL     1       1.395   3.561  17.798  0.00  0.00    +0.000 N 
ATOM      4  C   UNL     1       2.732   3.732  18.024  0.00  0.00    +0.000 A 
ATOM      5  N   UNL     1       3.664   3.851  17.023  0.00  0.00    +0.000 N 
ATOM      6  C   UNL     1       5.002   4.049  17.333  0.00  0.00    +0.000 C 
ATOM      7  O   UNL     1       5.495   4.078  18.460  0.00  0.00    +0.000 OA
ATOM      8  N   UNL     1       2.930   3.773  19.316  0.00  0.00    +0.000 NA
ATOM      9  H   UNL     1       0.889   3.508  16.920  0.00  0.00    +0.000 HD
ATOM     10  H   UNL     1       3.348   3.795  16.068  0.00  0.00    +0.000 HD
ENDROOT
BRANCH   6  11
ATOM     11  C   UNL     1       5.901   4.308  16.183  0.00  0.00    +0.000 A 
ATOM     12  C   UNL     1       5.671   3.618  14.977  0.00  0.00    +0.000 A 
ATOM     13  C   UNL     1       6.379   3.967  13.839  0.00  0.00    +0.000 A 
ATOM     14 BR   UNL     1       6.055   3.090  12.204  0.00  0.00    +0.000 Br
ATOM     15  C   UNL     1       7.294   4.992  13.934  0.00  0.00    +0.000 A 
ATOM     16  N   UNL     1       7.565   5.647  15.085  0.00  0.00    +0.000 NA
ATOM     17  C   UNL     1       6.881   5.324  16.224  0.00  0.00    +0.000 A 
BRANCH  17  18
ATOM     18  C   UNL     1       7.220   6.193  17.430  0.00  0.00    +0.000 C 
ATOM     19  C   UNL     1       7.795   7.590  17.377  0.00  0.00    +0.000 C 
ATOM     20  C   UNL     1       6.343   7.410  17.689  0.00  0.00    +0.000 C 
ENDBRANCH  17  18
ENDBRANCH   6  11
BRANCH   1  22
ATOM     21  C   UNL     1       1.883   2.310  21.951  0.00  0.00    +0.000 C 
ATOM     22  C   UNL     1       1.474   3.625  21.314  0.00  0.00    +0.000 C 
ENDBRANCH   1  22
TORSDOF 3
ENDMDL
MODEL 5
REMARK VINA RESULT:      -7.4      1.367      1.873
REMARK  Name = 
REMARK  4 active torsions:
REMARK  status: ('A' for Active; 'I' for Inactive)
REMARK    1  A    between atoms: C_1  and  C_2
REMARK    2  A    between atoms: C_2  and  C_3
REMARK    3  A    between atoms: C_8  and  C_10
REMARK    4  A    between atoms: C_16  and  C_17
REMARK                            x       y       z     vdW  Elec       q    Type
REMARK                         _______ _______ _______ _____ _____    ______ ____
ROOT
ATOM      1  C   UNL     1       1.963   4.516  20.173  0.00  0.00    +0.000 A 
ATOM      2  N   UNL     1       1.738   5.836  20.138  0.00  0.00    +0.000 NA
ATOM      3  N   UNL     1       2.526   6.206  19.111  0.00  0.00    +0.000 N 
ATOM      4  C   UNL     1       3.176   5.135  18.564  0.00  0.00    +0.000 A 
ATOM      5  N   UNL     1       4.041   5.231  17.502  0.00  0.00    +0.000 N 
ATOM      6  C   UNL     1       4.683   4.099  17.019  0.00  0.00    +0.000 C 
ATOM      7  O   UNL     1       4.525   2.945  17.411  0.00  0.00    +0.000 OA
ATOM      8  N   UNL     1       2.838   4.062  19.231  0.00  0.00    +0.000 NA
ATOM      9  H   UNL     1       2.571   7.187  18.858  0.00  0.00    +0.000 HD
ATOM     10  H   UNL     1       4.195   6.138  17.093  0.00  0.00    +0.000 HD
ENDROOT
BRANCH   6  11
ATOM     11  C   UNL     1       5.703   4.334  15.967  0.00  0.00    +0.000 A 
ATOM     12  C   UNL     1       5.547   3.696  14.722  0.00  0.00    +0.000 A 
ATOM     13  C   UNL     1       6.381   4.032  13.668  0.00  0.00    +0.000 A 
ATOM     14 BR   UNL     1       6.161   3.227  11.980  0.00  0.00    +0.000 Br
ATOM     15  C   UNL     1       7.343   4.993  13.884  0.00  0.00    +0.000 A 
ATOM     16  N   UNL     1       7.543   5.594  15.078  0.00  0.00    +0.000 NA
ATOM     17  C   UNL     1       6.734   5.283  16.136  0.00  0.00    +0.000 A 
BRANCH  17  18
ATOM     18  C   UNL     1       7.010   6.092  17.399  0.00  0.00    +0.000 C 
ATOM     19  C   UNL     1       7.864   7.336  17.480  0.00  0.00    +0.000 C 
ATOM     20  C   UNL     1       6.374   7.472  17.502  0.00  0.00    +0.000 C 
ENDBRANCH  17  18
ENDBRANCH   6  11
BRANCH   1  22
ATOM     21  C   UNL     1       2.368   2.563  21.642  0.00  0.00    +0.000 C 
ATOM     22  C   UNL     1       1.364   3.598  21.166  0.00  0.00    +0.000 C 
ENDBRANCH   1  22
TORSDOF 3
ENDMDL
MODEL 6
REMARK VINA RESULT:      -7.2      4.629      6.282
REMARK  Name = 
REMARK  4 active torsions:
REMARK  status: ('A' for Active; 'I' for Inactive)
REMARK    1  A    between atoms: C_1  and  C_2
REMARK    2  A    between atoms: C_2  and  C_3
REMARK    3  A    between atoms: C_8  and  C_10
REMARK    4  A    between atoms: C_16  and  C_17
REMARK                            x       y       z     vdW  Elec       q    Type
REMARK                         _______ _______ _______ _____ _____    ______ ____
ROOT
ATOM      1  C   UNL     1       0.707  10.519  19.879  0.00  0.00    +0.000 A 
ATOM      2  N   UNL     1       0.597  11.139  18.697  0.00  0.00    +0.000 NA
ATOM      3  N   UNL     1       1.120  10.216  17.869  0.00  0.00    +0.000 N 
ATOM      4  C   UNL     1       1.510   9.095  18.547  0.00  0.00    +0.000 A 
ATOM      5  N   UNL     1       2.075   7.998  17.944  0.00  0.00    +0.000 N 
ATOM      6  C   UNL     1       2.469   6.907  18.705  0.00  0.00    +0.000 C 
ATOM      7  O   UNL     1       2.318   6.769  19.917  0.00  0.00    +0.000 OA
ATOM      8  N   UNL     1       1.265   9.276  19.819  0.00  0.00    +0.000 NA
ATOM      9  H   UNL     1       1.183  10.427  16.879  0.00  0.00    +0.000 HD
ATOM     10  H   UNL     1       2.196   8.014  16.944  0.00  0.00    +0.000 HD
ENDROOT
BRANCH   6  11
ATOM     11  C   UNL     1       3.197   5.840  17.976  0.00  0.00    +0.000 A 
ATOM     12  C   UNL     1       4.476   6.125  17.461  0.00  0.00    +0.000 A 
ATOM     13  C   UNL     1       5.249   5.103  16.935  0.00  0.00    +0.000 A 
ATOM     14 BR   UNL     1       6.981   5.453  16.284  0.00  0.00    +0.000 Br
ATOM     15  C   UNL     1       4.727   3.830  16.935  0.00  0.00    +0.000 A 
ATOM     16  N   UNL     1       3.488   3.531  17.386  0.00  0.00    +0.000 NA
ATOM     17  C   UNL     1       2.703   4.519  17.913  0.00  0.00    +0.000 A 
BRANCH  17  18
ATOM     18  C   UNL     1       1.365   4.035  18.461  0.00  0.00    +0.000 C 
ATOM     19  C   UNL     1       0.989   2.595  18.728  0.00  0.00    +0.000 C 
ATOM     20  C   UNL     1       1.345   3.482  19.879  0.00  0.00    +0.000 C 
ENDBRANCH  17  18
ENDBRANCH   6  11
BRANCH   1  22
ATOM     21  C   UNL     1       0.002  10.050  22.206  0.00  0.00    +0.000 C 
ATOM     22  C   UNL     1       0.310  11.117  21.172  0.00  0.00    +0.000 C 
ENDBRANCH   1  22
TORSDOF 3
ENDMDL
MODEL 7
REMARK VINA RESULT:      -7.2      4.293      5.990
REMARK  Name = 
REMARK  4 active torsions:
REMARK  status: ('A' for Active; 'I' for Inactive)
REMARK    1  A    between atoms: C_1  and  C_2
REMARK    2  A    between atoms: C_2  and  C_3
REMARK    3  A    between atoms: C_8  and  C_10
REMARK    4  A    between atoms: C_16  and  C_17
REMARK                            x       y       z     vdW  Elec       q    Type
REMARK                         _______ _______ _______ _____ _____    ______ ____
ROOT
ATOM      1  C   UNL     1       0.561   9.784  20.954  0.00  0.00    +0.000 A 
ATOM      2  N   UNL     1       0.914   9.366  22.176  0.00  0.00    +0.000 NA
ATOM      3  N   UNL     1       1.685   8.304  21.875  0.00  0.00    +0.000 N 
ATOM      4  C   UNL     1       1.782   8.119  20.525  0.00  0.00    +0.000 A 
ATOM      5  N   UNL     1       2.509   7.109  19.945  0.00  0.00    +0.000 N 
ATOM      6  C   UNL     1       2.538   6.972  18.564  0.00  0.00    +0.000 C 
ATOM      7  O   UNL     1       2.007   7.718  17.744  0.00  0.00    +0.000 OA
ATOM      8  N   UNL     1       1.070   9.041  19.930  0.00  0.00    +0.000 NA
ATOM      9  H   UNL     1       2.089   7.763  22.633  0.00  0.00    +0.000 HD
ATOM     10  H   UNL     1       3.009   6.475  20.548  0.00  0.00    +0.000 HD
ENDROOT
BRANCH   6  11
ATOM     11  C   UNL     1       3.231   5.766  18.049  0.00  0.00    +0.000 A 
ATOM     12  C   UNL     1       4.549   5.897  17.570  0.00  0.00    +0.000 A 
ATOM     13  C   UNL     1       5.280   4.766  17.250  0.00  0.00    +0.000 A 
ATOM     14 BR   UNL     1       7.060   4.914  16.653  0.00  0.00    +0.000 Br
ATOM     15  C   UNL     1       4.680   3.538  17.415  0.00  0.00    +0.000 A 
ATOM     16  N   UNL     1       3.404   3.381  17.834  0.00  0.00    +0.000 NA
ATOM     17  C   UNL     1       2.659   4.480  18.159  0.00  0.00    +0.000 A 
BRANCH  17  18
ATOM     18  C   UNL     1       1.269   4.161  18.697  0.00  0.00    +0.000 C 
ATOM     19  C   UNL     1       0.777   2.796  19.119  0.00  0.00    +0.000 C 
ATOM     20  C   UNL     1       1.152   3.792  20.170  0.00  0.00    +0.000 C 
ENDBRANCH  17  18
ENDBRANCH   6  11
BRANCH   1  22
ATOM     21  C   UNL     1      -0.134  11.494  19.302  0.00  0.00    +0.000 C 
ATOM     22  C   UNL     1      -0.341  10.926  20.695  0.00  0.00    +0.000 C 
ENDBRANCH   1  22
TORSDOF 3
ENDMDL
MODEL 8
REMARK VINA RESULT:      -7.1      4.529      6.322
REMARK  Name = 
REMARK  4 active torsions:
REMARK  status: ('A' for Active; 'I' for Inactive)
REMARK    1  A    between atoms: C_1  and  C_2
REMARK    2  A    between atoms: C_2  and  C_3
REMARK    3  A    between atoms: C_8  and  C_10
REMARK    4  A    between atoms: C_16  and  C_17
REMARK                            x       y       z     vdW  Elec       q    Type
REMARK                         _______ _______ _______ _____ _____    ______ ____
ROOT
ATOM      1  C   UNL     1       0.432   9.561  21.733  0.00  0.00    +0.000 A 
ATOM      2  N   UNL     1       0.475  10.497  20.777  0.00  0.00    +0.000 NA
ATOM      3  N   UNL     1       1.100   9.831  19.789  0.00  0.00    +0.000 N 
ATOM      4  C   UNL     1       1.399   8.549  20.157  0.00  0.00    +0.000 A 
ATOM      5  N   UNL     1       2.036   7.650  19.337  0.00  0.00    +0.000 N 
ATOM      6  C   UNL     1       2.327   6.372  19.792  0.00  0.00    +0.000 C 
ATOM      7  O   UNL     1       2.021   5.898  20.884  0.00  0.00    +0.000 OA
ATOM      8  N   UNL     1       0.992   8.367  21.386  0.00  0.00    +0.000 NA
ATOM      9  H   UNL     1       1.291  10.314  18.917  0.00  0.00    +0.000 HD
ATOM     10  H   UNL     1       2.285   7.947  18.406  0.00  0.00    +0.000 HD
ENDROOT
BRANCH   6  11
ATOM     11  C   UNL     1       3.142   5.531  18.882  0.00  0.00    +0.000 A 
ATOM     12  C   UNL     1       4.472   5.913  18.619  0.00  0.00    +0.000 A 
ATOM     13  C   UNL     1       5.307   5.059  17.918  0.00  0.00    +0.000 A 
ATOM     14 BR   UNL     1       7.102   5.528  17.596  0.00  0.00    +0.000 Br
ATOM     15  C   UNL     1       4.796   3.851  17.501  0.00  0.00    +0.000 A 
ATOM     16  N   UNL     1       3.514   3.473  17.704  0.00  0.00    +0.000 NA
ATOM     17  C   UNL     1       2.666   4.296  18.393  0.00  0.00    +0.000 A 
BRANCH  17  18
ATOM     18  C   UNL     1       1.276   3.715  18.626  0.00  0.00    +0.000 C 
ATOM     19  C   UNL     1       0.917   2.247  18.599  0.00  0.00    +0.000 C 
ATOM     20  C   UNL     1       1.043   2.944  19.917  0.00  0.00    +0.000 C 
ENDBRANCH  17  18
ENDBRANCH   6  11
BRANCH   1  22
ATOM     21  C   UNL     1      -1.174  10.878  23.081  0.00  0.00    +0.000 C 
ATOM     22  C   UNL     1      -0.129   9.778  23.084  0.00  0.00    +0.000 C 
ENDBRANCH   1  22
TORSDOF 3
ENDMDL
MODEL 9
REMARK VINA RESULT:      -7.0      3.234      6.486
REMARK  Name = 
REMARK  4 active torsions:
REMARK  status: ('A' for Active; 'I' for Inactive)
REMARK    1  A    between atoms: C_1  and  C_2
REMARK    2  A    between atoms: C_2  and  C_3
REMARK    3  A    between atoms: C_8  and  C_10
REMARK    4  A    between atoms: C_16  and  C_17
REMARK                            x       y       z     vdW  Elec       q    Type
REMARK                         _______ _______ _______ _____ _____    ______ ____
ROOT
ATOM      1  C   UNL     1       6.700   4.513  14.041  0.00  0.00    +0.000 A 
ATOM      2  N   UNL     1       7.624   5.303  14.603  0.00  0.00    +0.000 NA
ATOM      3  N   UNL     1       7.063   5.547  15.802  0.00  0.00    +0.000 N 
ATOM      4  C   UNL     1       5.860   4.912  15.933  0.00  0.00    +0.000 A 
ATOM      5  N   UNL     1       5.077   4.989  17.058  0.00  0.00    +0.000 N 
ATOM      6  C   UNL     1       3.854   4.335  17.106  0.00  0.00    +0.000 C 
ATOM      7  O   UNL     1       3.381   3.606  16.236  0.00  0.00    +0.000 OA
ATOM      8  N   UNL     1       5.613   4.262  14.825  0.00  0.00    +0.000 NA
ATOM      9  H   UNL     1       7.549   6.153  16.455  0.00  0.00    +0.000 HD
ATOM     10  H   UNL     1       5.413   5.535  17.836  0.00  0.00    +0.000 HD
ENDROOT
BRANCH   6  11
ATOM     11  C   UNL     1       3.024   4.601  18.306  0.00  0.00    +0.000 A 
ATOM     12  C   UNL     1       2.953   3.616  19.310  0.00  0.00    +0.000 A 
ATOM     13  C   UNL     1       2.333   3.905  20.514  0.00  0.00    +0.000 A 
ATOM     14 BR   UNL     1       2.267   2.619  21.888  0.00  0.00    +0.000 Br
ATOM     15  C   UNL     1       1.805   5.165  20.685  0.00  0.00    +0.000 A 
ATOM     16  N   UNL     1       1.823   6.119  19.727  0.00  0.00    +0.000 NA
ATOM     17  C   UNL     1       2.429   5.862  18.528  0.00  0.00    +0.000 A 
BRANCH  17  18
ATOM     18  C   UNL     1       2.455   7.046  17.569  0.00  0.00    +0.000 C 
ATOM     19  C   UNL     1       2.115   8.476  17.924  0.00  0.00    +0.000 C 
ATOM     20  C   UNL     1       3.550   8.085  17.764  0.00  0.00    +0.000 C 
ENDBRANCH  17  18
ENDBRANCH   6  11
BRANCH   1  22
ATOM     21  C   UNL     1       5.502   3.294  12.249  0.00  0.00    +0.000 C 
ATOM     22  C   UNL     1       6.794   3.972  12.668  0.00  0.00    +0.000 C 
ENDBRANCH   1  22
TORSDOF 3
ENDMDL
