MODEL 1
REMARK VINA RESULT:      -7.9      0.000      0.000
REMARK  Name = 
REMARK  4 active torsions:
REMARK  status: ('A' for Active; 'I' for Inactive)
REMARK    1  A    between atoms: C_1  and  C_2
REMARK    2  A    between atoms: C_2  and  O_3
REMARK    3  A    between atoms: O_3  and  C_4
REMARK    4  A    between atoms: N_21  and  C_22
REMARK                            x       y       z     vdW  Elec       q    Type
REMARK                         _______ _______ _______ _____ _____    ______ ____
ROOT
ATOM      1  C   UNL     1       3.820   3.200  17.082  0.00  0.00    +0.000 C 
ATOM      2  C   UNL     1       4.834   3.990  16.313  0.00  0.00    +0.000 A 
ATOM      3  C   UNL     1       5.826   3.477  15.486  0.00  0.00    +0.000 A 
ATOM      4  C   UNL     1       6.684   4.376  14.870  0.00  0.00    +0.000 A 
ATOM      5  C   UNL     1       6.545   5.753  15.104  0.00  0.00    +0.000 A 
ATOM      6  C   UNL     1       5.535   6.257  15.946  0.00  0.00    +0.000 A 
ATOM      7  C   UNL     1       4.654   5.374  16.549  0.00  0.00    +0.000 A 
ATOM      8  C   UNL     1       3.495   5.528  17.449  0.00  0.00    +0.000 A 
ATOM      9  C   UNL     1       2.953   4.311  17.603  0.00  0.00    +0.000 A 
ATOM     10  C   UNL     1       1.834   4.083  18.496  0.00  0.00    +0.000 A 
ATOM     11  C   UNL     1       1.179   2.862  18.529  0.00  0.00    +0.000 A 
ATOM     12  C   UNL     1       0.910   2.319  19.773  0.00  0.00    +0.000 A 
ATOM     13  C   UNL     1       1.028   3.120  20.911  0.00  0.00    +0.000 A 
ATOM     14  C   UNL     1       1.322   4.490  20.802  0.00  0.00    +0.000 A 
ATOM     15  C   UNL     1       1.754   4.965  19.560  0.00  0.00    +0.000 A 
ATOM     16  C   UNL     1       2.238   6.368  19.339  0.00  0.00    +0.000 A 
ATOM     17  O   UNL     1       1.938   7.231  20.159  0.00  0.00    +0.000 OA
ATOM     18  N   UNL     1       3.051   6.601  18.199  0.00  0.00    +0.000 N 
ATOM     19  C   UNL     1       3.582   7.936  18.000  0.00  0.00    +0.000 C 
ENDROOT
BRANCH   1  20
ATOM     20  O   UNL     1       4.404   2.393  18.127  0.00  0.00    +0.000 OA
BRANCH  20  22
ATOM     21  C   UNL     1       4.537   2.169  20.536  0.00  0.00    +0.000 C 
ATOM     22  C   UNL     1       4.777   3.072  19.336  0.00  0.00    +0.000 C 
ENDBRANCH  20  22
ENDBRANCH   1  20
TORSDOF 2
ENDMDL
MODEL 2
REMARK VINA RESULT:      -7.0      1.550      5.057
REMARK  Name = 
REMARK  4 active torsions:
REMARK  status: ('A' for Active; 'I' for Inactive)
REMARK    1  A    between atoms: C_1  and  C_2
REMARK    2  A    between atoms: C_2  and  O_3
REMARK    3  A    between atoms: O_3  and  C_4
REMARK    4  A    between atoms: N_21  and  C_22
REMARK                            x       y       z     vdW  Elec       q    Type
REMARK                         _______ _______ _______ _____ _____    ______ ____
ROOT
ATOM      1  C   UNL     1       4.677   3.298  19.073  0.00  0.00    +0.000 C 
ATOM      2  C   UNL     1       3.596   3.256  20.110  0.00  0.00    +0.000 A 
ATOM      3  C   UNL     1       3.228   2.155  20.874  0.00  0.00    +0.000 A 
ATOM      4  C   UNL     1       2.185   2.312  21.774  0.00  0.00    +0.000 A 
ATOM      5  C   UNL     1       1.528   3.548  21.881  0.00  0.00    +0.000 A 
ATOM      6  C   UNL     1       1.913   4.654  21.098  0.00  0.00    +0.000 A 
ATOM      7  C   UNL     1       2.969   4.521  20.211  0.00  0.00    +0.000 A 
ATOM      8  C   UNL     1       3.647   5.434  19.271  0.00  0.00    +0.000 A 
ATOM      9  C   UNL     1       4.697   4.769  18.765  0.00  0.00    +0.000 A 
ATOM     10  C   UNL     1       5.543   5.347  17.740  0.00  0.00    +0.000 A 
ATOM     11  C   UNL     1       6.714   4.723  17.340  0.00  0.00    +0.000 A 
ATOM     12  C   UNL     1       6.948   4.625  15.980  0.00  0.00    +0.000 A 
ATOM     13  C   UNL     1       6.183   5.389  15.095  0.00  0.00    +0.000 A 
ATOM     14  C   UNL     1       5.248   6.324  15.572  0.00  0.00    +0.000 A 
ATOM     15  C   UNL     1       4.915   6.276  16.929  0.00  0.00    +0.000 A 
ATOM     16  C   UNL     1       3.830   7.114  17.539  0.00  0.00    +0.000 A 
ATOM     17  O   UNL     1       3.447   8.113  16.936  0.00  0.00    +0.000 OA
ATOM     18  N   UNL     1       3.288   6.673  18.775  0.00  0.00    +0.000 N 
ATOM     19  C   UNL     1       2.195   7.432  19.351  0.00  0.00    +0.000 C 
ENDROOT
BRANCH   1  20
ATOM     20  O   UNL     1       4.390   2.477  17.921  0.00  0.00    +0.000 OA
BRANCH  20  22
ATOM     21  C   UNL     1       2.388   3.241  16.789  0.00  0.00    +0.000 C 
ATOM     22  C   UNL     1       3.009   2.170  17.673  0.00  0.00    +0.000 C 
ENDBRANCH  20  22
ENDBRANCH   1  20
TORSDOF 2
ENDMDL
MODEL 3
REMARK VINA RESULT:      -6.8      8.684     11.133
REMARK  Name = 
REMARK  4 active torsions:
REMARK  status: ('A' for Active; 'I' for Inactive)
REMARK    1  A    between atoms: C_1  and  C_2
REMARK    2  A    between atoms: C_2  and  O_3
REMARK    3  A    between atoms: O_3  and  C_4
REMARK    4  A    between atoms: N_21  and  C_22
REMARK                            x       y       z     vdW  Elec       q    Type
REMARK                         _______ _______ _______ _____ _____    ______ ____
ROOT
ATOM      1  C   UNL     1      -4.729  12.370  19.452  0.00  0.00    +0.000 C 
ATOM      2  C   UNL     1      -4.071  11.764  18.251  0.00  0.00    +0.000 A 
ATOM      3  C   UNL     1      -4.686  11.450  17.045  0.00  0.00    +0.000 A 
ATOM      4  C   UNL     1      -3.905  10.876  16.052  0.00  0.00    +0.000 A 
ATOM      5  C   UNL     1      -2.546  10.616  16.287  0.00  0.00    +0.000 A 
ATOM      6  C   UNL     1      -1.939  10.940  17.517  0.00  0.00    +0.000 A 
ATOM      7  C   UNL     1      -2.699  11.536  18.510  0.00  0.00    +0.000 A 
ATOM      8  C   UNL     1      -2.413  12.021  19.874  0.00  0.00    +0.000 A 
ATOM      9  C   UNL     1      -3.527  12.624  20.318  0.00  0.00    +0.000 A 
ATOM     10  C   UNL     1      -3.624  13.150  21.665  0.00  0.00    +0.000 A 
ATOM     11  C   UNL     1      -4.712  13.911  22.062  0.00  0.00    +0.000 A 
ATOM     12  C   UNL     1      -5.291  13.603  23.281  0.00  0.00    +0.000 A 
ATOM     13  C   UNL     1      -4.609  12.773  24.174  0.00  0.00    +0.000 A 
ATOM     14  C   UNL     1      -3.307  12.327  23.893  0.00  0.00    +0.000 A 
ATOM     15  C   UNL     1      -2.822  12.510  22.594  0.00  0.00    +0.000 A 
ATOM     16  C   UNL     1      -1.512  11.954  22.120  0.00  0.00    +0.000 A 
ATOM     17  O   UNL     1      -0.673  11.627  22.954  0.00  0.00    +0.000 OA
ATOM     18  N   UNL     1      -1.339  11.811  20.717  0.00  0.00    +0.000 N 
ATOM     19  C   UNL     1      -0.105  11.217  20.239  0.00  0.00    +0.000 C 
ENDROOT
BRANCH   1  20
ATOM     20  O   UNL     1      -5.701  11.496  20.068  0.00  0.00    +0.000 OA
BRANCH  20  22
ATOM     21  C   UNL     1      -7.759  11.645  21.338  0.00  0.00    +0.000 C 
ATOM     22  C   UNL     1      -7.074  11.911  20.006  0.00  0.00    +0.000 C 
ENDBRANCH  20  22
ENDBRANCH   1  20
TORSDOF 2
ENDMDL
MODEL 4
REMARK VINA RESULT:      -6.5      9.667     12.525
REMARK  Name = 
REMARK  4 active torsions:
REMARK  status: ('A' for Active; 'I' for Inactive)
REMARK    1  A    between atoms: C_1  and  C_2
REMARK    2  A    between atoms: C_2  and  O_3
REMARK    3  A    between atoms: O_3  and  C_4
REMARK    4  A    between atoms: N_21  and  C_22
REMARK                            x       y       z     vdW  Elec       q    Type
REMARK                         _______ _______ _______ _____ _____    ______ ____
ROOT
ATOM      1  C   UNL     1       9.960  12.304  21.077  0.00  0.00    +0.000 C 
ATOM      2  C   UNL     1       9.250  12.790  22.303  0.00  0.00    +0.000 A 
ATOM      3  C   UNL     1       8.570  12.006  23.228  0.00  0.00    +0.000 A 
ATOM      4  C   UNL     1       7.958  12.648  24.294  0.00  0.00    +0.000 A 
ATOM      5  C   UNL     1       8.023  14.046  24.405  0.00  0.00    +0.000 A 
ATOM      6  C   UNL     1       8.715  14.826  23.458  0.00  0.00    +0.000 A 
ATOM      7  C   UNL     1       9.353  14.198  22.400  0.00  0.00    +0.000 A 
ATOM      8  C   UNL     1      10.166  14.667  21.262  0.00  0.00    +0.000 A 
ATOM      9  C   UNL     1      10.623  13.576  20.629  0.00  0.00    +0.000 A 
ATOM     10  C   UNL     1      11.397  13.672  19.407  0.00  0.00    +0.000 A 
ATOM     11  C   UNL     1      12.000  12.555  18.850  0.00  0.00    +0.000 A 
ATOM     12  C   UNL     1      11.856  12.369  17.487  0.00  0.00    +0.000 A 
ATOM     13  C   UNL     1      11.386  13.421  16.697  0.00  0.00    +0.000 A 
ATOM     14  C   UNL     1      11.150  14.691  17.253  0.00  0.00    +0.000 A 
ATOM     15  C   UNL     1      11.140  14.799  18.647  0.00  0.00    +0.000 A 
ATOM     16  C   UNL     1      10.760  16.056  19.371  0.00  0.00    +0.000 A 
ATOM     17  O   UNL     1      10.788  17.121  18.759  0.00  0.00    +0.000 OA
ATOM     18  N   UNL     1      10.354  15.927  20.726  0.00  0.00    +0.000 N 
ATOM     19  C   UNL     1       9.922  17.121  21.426  0.00  0.00    +0.000 C 
ENDROOT
BRANCH   1  20
ATOM     20  O   UNL     1       9.069  11.745  20.088  0.00  0.00    +0.000 OA
BRANCH  20  22
ATOM     21  C   UNL     1       8.897  10.179  18.248  0.00  0.00    +0.000 C 
ATOM     22  C   UNL     1       9.306  10.384  19.698  0.00  0.00    +0.000 C 
ENDBRANCH  20  22
ENDBRANCH   1  20
TORSDOF 2
ENDMDL
MODEL 5
REMARK VINA RESULT:      -6.4      1.633      4.570
REMARK  Name = 
REMARK  4 active torsions:
REMARK  status: ('A' for Active; 'I' for Inactive)
REMARK    1  A    between atoms: C_1  and  C_2
REMARK    2  A    between atoms: C_2  and  O_3
REMARK    3  A    between atoms: O_3  and  C_4
REMARK    4  A    between atoms: N_21  and  C_22
REMARK                            x       y       z     vdW  Elec       q    Type
REMARK                         _______ _______ _______ _____ _____    ______ ____
ROOT
ATOM      1  C   UNL     1       2.640   5.817  19.719  0.00  0.00    +0.000 C 
ATOM      2  C   UNL     1       2.349   7.216  19.268  0.00  0.00    +0.000 A 
ATOM      3  C   UNL     1       1.487   8.118  19.881  0.00  0.00    +0.000 A 
ATOM      4  C   UNL     1       1.339   9.368  19.298  0.00  0.00    +0.000 A 
ATOM      5  C   UNL     1       2.034   9.682  18.120  0.00  0.00    +0.000 A 
ATOM      6  C   UNL     1       2.902   8.755  17.511  0.00  0.00    +0.000 A 
ATOM      7  C   UNL     1       3.081   7.511  18.093  0.00  0.00    +0.000 A 
ATOM      8  C   UNL     1       3.899   6.328  17.765  0.00  0.00    +0.000 A 
ATOM      9  C   UNL     1       3.753   5.457  18.776  0.00  0.00    +0.000 A 
ATOM     10  C   UNL     1       4.361   4.141  18.742  0.00  0.00    +0.000 A 
ATOM     11  C   UNL     1       4.340   3.312  19.852  0.00  0.00    +0.000 A 
ATOM     12  C   UNL     1       3.991   1.989  19.650  0.00  0.00    +0.000 A 
ATOM     13  C   UNL     1       3.966   1.477  18.351  0.00  0.00    +0.000 A 
ATOM     14  C   UNL     1       4.381   2.259  17.259  0.00  0.00    +0.000 A 
ATOM     15  C   UNL     1       4.560   3.629  17.472  0.00  0.00    +0.000 A 
ATOM     16  C   UNL     1       4.858   4.600  16.368  0.00  0.00    +0.000 A 
ATOM     17  O   UNL     1       5.299   4.169  15.305  0.00  0.00    +0.000 OA
ATOM     18  N   UNL     1       4.576   5.970  16.615  0.00  0.00    +0.000 N 
ATOM     19  C   UNL     1       4.798   6.918  15.541  0.00  0.00    +0.000 C 
ENDROOT
BRANCH   1  20
ATOM     20  O   UNL     1       1.498   4.939  19.616  0.00  0.00    +0.000 OA
BRANCH  20  22
ATOM     21  C   UNL     1       0.733   2.774  20.387  0.00  0.00    +0.000 C 
ATOM     22  C   UNL     1       1.161   4.178  20.785  0.00  0.00    +0.000 C 
ENDBRANCH  20  22
ENDBRANCH   1  20
TORSDOF 2
ENDMDL
MODEL 6
REMARK VINA RESULT:      -6.3      8.240     10.478
REMARK  Name = 
REMARK  4 active torsions:
REMARK  status: ('A' for Active; 'I' for Inactive)
REMARK    1  A    between atoms: C_1  and  C_2
REMARK    2  A    between atoms: C_2  and  O_3
REMARK    3  A    between atoms: O_3  and  C_4
REMARK    4  A    between atoms: N_21  and  C_22
REMARK                            x       y       z     vdW  Elec       q    Type
REMARK                         _______ _______ _______ _____ _____    ______ ____
ROOT
ATOM      1  C   UNL     1      -2.502  11.594  18.436  0.00  0.00    +0.000 C 
ATOM      2  C   UNL     1      -1.167  11.687  19.109  0.00  0.00    +0.000 A 
ATOM      3  C   UNL     1       0.057  11.314  18.568  0.00  0.00    +0.000 A 
ATOM      4  C   UNL     1       1.186  11.462  19.361  0.00  0.00    +0.000 A 
ATOM      5  C   UNL     1       1.067  11.958  20.668  0.00  0.00    +0.000 A 
ATOM      6  C   UNL     1      -0.182  12.330  21.202  0.00  0.00    +0.000 A 
ATOM      7  C   UNL     1      -1.316  12.212  20.415  0.00  0.00    +0.000 A 
ATOM      8  C   UNL     1      -2.746  12.513  20.617  0.00  0.00    +0.000 A 
ATOM      9  C   UNL     1      -3.361  12.306  19.443  0.00  0.00    +0.000 A 
ATOM     10  C   UNL     1      -4.799  12.431  19.303  0.00  0.00    +0.000 A 
ATOM     11  C   UNL     1      -5.406  12.375  18.058  0.00  0.00    +0.000 A 
ATOM     12  C   UNL     1      -6.532  11.580  17.937  0.00  0.00    +0.000 A 
ATOM     13  C   UNL     1      -7.173  11.118  19.088  0.00  0.00    +0.000 A 
ATOM     14  C   UNL     1      -6.747  11.527  20.364  0.00  0.00    +0.000 A 
ATOM     15  C   UNL     1      -5.516  12.182  20.460  0.00  0.00    +0.000 A 
ATOM     16  C   UNL     1      -4.876  12.542  21.768  0.00  0.00    +0.000 A 
ATOM     17  O   UNL     1      -5.576  12.586  22.775  0.00  0.00    +0.000 OA
ATOM     18  N   UNL     1      -3.476  12.780  21.760  0.00  0.00    +0.000 N 
ATOM     19  C   UNL     1      -2.825  13.068  23.024  0.00  0.00    +0.000 C 
ENDROOT
BRANCH   1  20
ATOM     20  O   UNL     1      -2.920  10.234  18.189  0.00  0.00    +0.000 OA
BRANCH  20  22
ATOM     21  C   UNL     1      -2.848  10.905  15.862  0.00  0.00    +0.000 C 
ATOM     22  C   UNL     1      -2.778   9.747  16.846  0.00  0.00    +0.000 C 
ENDBRANCH  20  22
ENDBRANCH   1  20
TORSDOF 2
ENDMDL
MODEL 7
REMARK VINA RESULT:      -6.2      9.999     12.630
REMARK  Name = 
REMARK  4 active torsions:
REMARK  status: ('A' for Active; 'I' for Inactive)
REMARK    1  A    between atoms: C_1  and  C_2
REMARK    2  A    between atoms: C_2  and  O_3
REMARK    3  A    between atoms: O_3  and  C_4
REMARK    4  A    between atoms: N_21  and  C_22
REMARK                            x       y       z     vdW  Elec       q    Type
REMARK                         _______ _______ _______ _____ _____    ______ ____
ROOT
ATOM      1  C   UNL     1       9.636  13.731  21.916  0.00  0.00    +0.000 C 
ATOM      2  C   UNL     1       9.950  15.136  22.329  0.00  0.00    +0.000 A 
ATOM      3  C   UNL     1       9.486  15.784  23.468  0.00  0.00    +0.000 A 
ATOM      4  C   UNL     1       9.877  17.100  23.668  0.00  0.00    +0.000 A 
ATOM      5  C   UNL     1      10.702  17.738  22.729  0.00  0.00    +0.000 A 
ATOM      6  C   UNL     1      11.162  17.068  21.579  0.00  0.00    +0.000 A 
ATOM      7  C   UNL     1      10.800  15.746  21.377  0.00  0.00    +0.000 A 
ATOM      8  C   UNL     1      11.097  14.745  20.335  0.00  0.00    +0.000 A 
ATOM      9  C   UNL     1      10.563  13.583  20.742  0.00  0.00    +0.000 A 
ATOM     10  C   UNL     1      10.599  12.395  19.912  0.00  0.00    +0.000 A 
ATOM     11  C   UNL     1      10.191  11.164  20.403  0.00  0.00    +0.000 A 
ATOM     12  C   UNL     1       9.357  10.406  19.601  0.00  0.00    +0.000 A 
ATOM     13  C   UNL     1       9.199  10.750  18.256  0.00  0.00    +0.000 A 
ATOM     14  C   UNL     1       9.949  11.794  17.686  0.00  0.00    +0.000 A 
ATOM     15  C   UNL     1      10.646  12.642  18.552  0.00  0.00    +0.000 A 
ATOM     16  C   UNL     1      11.364  13.876  18.091  0.00  0.00    +0.000 A 
ATOM     17  O   UNL     1      11.653  13.982  16.903  0.00  0.00    +0.000 OA
ATOM     18  N   UNL     1      11.637  14.870  19.069  0.00  0.00    +0.000 N 
ATOM     19  C   UNL     1      12.274  16.098  18.635  0.00  0.00    +0.000 C 
ENDROOT
BRANCH   1  20
ATOM     20  O   UNL     1       8.246  13.537  21.573  0.00  0.00    +0.000 OA
BRANCH  20  22
ATOM     21  C   UNL     1       8.119  11.814  23.272  0.00  0.00    +0.000 C 
ATOM     22  C   UNL     1       7.404  12.968  22.587  0.00  0.00    +0.000 C 
ENDBRANCH  20  22
ENDBRANCH   1  20
TORSDOF 2
ENDMDL
MODEL 8
REMARK VINA RESULT:      -6.2      8.222     11.325
REMARK  Name = 
REMARK  4 active torsions:
REMARK  status: ('A' for Active; 'I' for Inactive)
REMARK    1  A    between atoms: C_1  and  C_2
REMARK    2  A    between atoms: C_2  and  O_3
REMARK    3  A    between atoms: O_3  and  C_4
REMARK    4  A    between atoms: N_21  and  C_22
REMARK                            x       y       z     vdW  Elec       q    Type
REMARK                         _______ _______ _______ _____ _____    ______ ____
ROOT
ATOM      1  C   UNL     1      -2.370  12.415  21.570  0.00  0.00    +0.000 C 
ATOM      2  C   UNL     1      -3.682  12.804  22.178  0.00  0.00    +0.000 A 
ATOM      3  C   UNL     1      -3.916  13.101  23.516  0.00  0.00    +0.000 A 
ATOM      4  C   UNL     1      -5.212  13.425  23.890  0.00  0.00    +0.000 A 
ATOM      5  C   UNL     1      -6.239  13.430  22.933  0.00  0.00    +0.000 A 
ATOM      6  C   UNL     1      -5.986  13.124  21.582  0.00  0.00    +0.000 A 
ATOM      7  C   UNL     1      -4.692  12.823  21.187  0.00  0.00    +0.000 A 
ATOM      8  C   UNL     1      -4.061  12.484  19.897  0.00  0.00    +0.000 A 
ATOM      9  C   UNL     1      -2.738  12.416  20.113  0.00  0.00    +0.000 A 
ATOM     10  C   UNL     1      -1.815  12.023  19.067  0.00  0.00    +0.000 A 
ATOM     11  C   UNL     1      -0.444  12.110  19.249  0.00  0.00    +0.000 A 
ATOM     12  C   UNL     1       0.319  11.022  18.864  0.00  0.00    +0.000 A 
ATOM     13  C   UNL     1      -0.254  10.034  18.060  0.00  0.00    +0.000 A 
ATOM     14  C   UNL     1      -1.560  10.177  17.560  0.00  0.00    +0.000 A 
ATOM     15  C   UNL     1      -2.356  11.191  18.102  0.00  0.00    +0.000 A 
ATOM     16  C   UNL     1      -3.808  11.363  17.767  0.00  0.00    +0.000 A 
ATOM     17  O   UNL     1      -4.245  10.838  16.746  0.00  0.00    +0.000 OA
ATOM     18  N   UNL     1      -4.601  12.105  18.683  0.00  0.00    +0.000 N 
ATOM     19  C   UNL     1      -6.019  12.231  18.412  0.00  0.00    +0.000 C 
ENDROOT
BRANCH   1  20
ATOM     20  O   UNL     1      -1.885  11.137  22.035  0.00  0.00    +0.000 OA
BRANCH  20  22
ATOM     21  C   UNL     1      -0.197   9.740  23.069  0.00  0.00    +0.000 C 
ATOM     22  C   UNL     1      -0.725  11.154  22.880  0.00  0.00    +0.000 C 
ENDBRANCH  20  22
ENDBRANCH   1  20
TORSDOF 2
ENDMDL
MODEL 9
REMARK VINA RESULT:      -6.2      7.207     10.430
REMARK  Name = 
REMARK  4 active torsions:
REMARK  status: ('A' for Active; 'I' for Inactive)
REMARK    1  A    between atoms: C_1  and  C_2
REMARK    2  A    between atoms: C_2  and  O_3
REMARK    3  A    between atoms: O_3  and  C_4
REMARK    4  A    between atoms: N_21  and  C_22
REMARK                            x       y       z     vdW  Elec       q    Type
REMARK                         _______ _______ _______ _____ _____    ______ ____
ROOT
ATOM      1  C   UNL     1      -0.260  12.689  21.448  0.00  0.00    +0.000 C 
ATOM      2  C   UNL     1      -1.383  13.265  22.255  0.00  0.00    +0.000 A 
ATOM      3  C   UNL     1      -1.288  13.807  23.532  0.00  0.00    +0.000 A 
ATOM      4  C   UNL     1      -2.452  14.276  24.123  0.00  0.00    +0.000 A 
ATOM      5  C   UNL     1      -3.675  14.182  23.440  0.00  0.00    +0.000 A 
ATOM      6  C   UNL     1      -3.754  13.628  22.147  0.00  0.00    +0.000 A 
ATOM      7  C   UNL     1      -2.597  13.177  21.533  0.00  0.00    +0.000 A 
ATOM      8  C   UNL     1      -2.295  12.576  20.220  0.00  0.00    +0.000 A 
ATOM      9  C   UNL     1      -0.960  12.459  20.139  0.00  0.00    +0.000 A 
ATOM     10  C   UNL     1      -0.318  11.828  19.003  0.00  0.00    +0.000 A 
ATOM     11  C   UNL     1       1.059  11.855  18.850  0.00  0.00    +0.000 A 
ATOM     12  C   UNL     1       1.683  10.667  18.511  0.00  0.00    +0.000 A 
ATOM     13  C   UNL     1       0.915   9.594  18.055  0.00  0.00    +0.000 A 
ATOM     14  C   UNL     1      -0.468   9.734  17.847  0.00  0.00    +0.000 A 
ATOM     15  C   UNL     1      -1.090  10.878  18.357  0.00  0.00    +0.000 A 
ATOM     16  C   UNL     1      -2.576  11.085  18.334  0.00  0.00    +0.000 A 
ATOM     17  O   UNL     1      -3.253  10.420  17.554  0.00  0.00    +0.000 OA
ATOM     18  N   UNL     1      -3.113  12.027  19.251  0.00  0.00    +0.000 N 
ATOM     19  C   UNL     1      -4.553  12.197  19.290  0.00  0.00    +0.000 C 
ENDROOT
BRANCH   1  20
ATOM     20  O   UNL     1       0.289  11.482  22.021  0.00  0.00    +0.000 OA
BRANCH  20  22
ATOM     21  C   UNL     1      -0.238   9.136  21.727  0.00  0.00    +0.000 C 
ATOM     22  C   UNL     1      -0.644  10.451  22.374  0.00  0.00    +0.000 C 
ENDBRANCH  20  22
ENDBRANCH   1  20
TORSDOF 2
ENDMDL
