MODEL 1
REMARK VINA RESULT:      -8.4      0.000      0.000
REMARK  Name = 
REMARK  5 active torsions:
REMARK  status: ('A' for Active; 'I' for Inactive)
REMARK    1  A    between atoms: C_2  and  O_3
REMARK    2  A    between atoms: C_2  and  C_17
REMARK    3  A    between atoms: O_3  and  C_4
REMARK    4  A    between atoms: C_13  and  C_14
REMARK    5  A    between atoms: C_14  and  O_16
REMARK                            x       y       z     vdW  Elec       q    Type
REMARK                         _______ _______ _______ _____ _____    ______ ____
ROOT
ATOM      1  C   UNL     1       5.091   4.304  17.539  0.00  0.00    +0.000 A 
ATOM      2  C   UNL     1       3.819   3.760  17.328  0.00  0.00    +0.000 A 
ATOM      3  C   UNL     1       2.893   3.674  18.377  0.00  0.00    +0.000 A 
ATOM      4  C   UNL     1       1.624   3.111  18.173  0.00  0.00    +0.000 A 
ATOM      5  C   UNL     1       0.712   3.011  19.223  0.00  0.00    +0.000 A 
ATOM      6  C   UNL     1       1.060   3.466  20.491  0.00  0.00    +0.000 A 
ATOM      7  C   UNL     1       2.316   4.035  20.709  0.00  0.00    +0.000 A 
ATOM      8  C   UNL     1       3.241   4.153  19.658  0.00  0.00    +0.000 A 
ATOM      9  C   UNL     1       4.500   4.748  19.847  0.00  0.00    +0.000 A 
ATOM     10  C   UNL     1       5.417   4.852  18.789  0.00  0.00    +0.000 A 
ENDROOT
BRANCH  10  11
ATOM     11  C   UNL     1       6.687   5.566  19.079  0.00  0.00    +0.000 C 
ATOM     12  O   UNL     1       7.358   5.353  20.071  0.00  0.00    +0.000 OA
BRANCH  11  13
ATOM     13  O   UNL     1       6.974   6.547  18.195  0.00  0.00    +0.000 OA
ATOM     14  H   UNL     1       7.930   6.706  18.081  0.00  0.00    +0.000 HD
ENDBRANCH  11  13
ENDBRANCH  10  11
BRANCH   1  15
ATOM     15  O   UNL     1       6.042   4.363  16.487  0.00  0.00    +0.000 OA
BRANCH  15  17
ATOM     16  O   UNL     1       5.550   6.454  15.555  0.00  0.00    +0.000 OA
ATOM     17  C   UNL     1       5.887   5.285  15.448  0.00  0.00    +0.000 C 
BRANCH  17  18
ATOM     18  C   UNL     1       6.209   4.668  14.131  0.00  0.00    +0.000 A 
ATOM     19  C   UNL     1       7.356   5.116  13.455  0.00  0.00    +0.000 A 
ATOM     20  C   UNL     1       7.679   4.609  12.196  0.00  0.00    +0.000 A 
ATOM     21  C   UNL     1       6.859   3.651  11.601  0.00  0.00    +0.000 A 
ATOM     22  C   UNL     1       5.724   3.194  12.270  0.00  0.00    +0.000 A 
ATOM     23  C   UNL     1       5.395   3.700  13.533  0.00  0.00    +0.000 A 
ENDBRANCH  17  18
ENDBRANCH  15  17
ENDBRANCH   1  15
TORSDOF 5
ENDMDL
MODEL 2
REMARK VINA RESULT:      -8.4      0.073      1.032
REMARK  Name = 
REMARK  5 active torsions:
REMARK  status: ('A' for Active; 'I' for Inactive)
REMARK    1  A    between atoms: C_2  and  O_3
REMARK    2  A    between atoms: C_2  and  C_17
REMARK    3  A    between atoms: O_3  and  C_4
REMARK    4  A    between atoms: C_13  and  C_14
REMARK    5  A    between atoms: C_14  and  O_16
REMARK                            x       y       z     vdW  Elec       q    Type
REMARK                         _______ _______ _______ _____ _____    ______ ____
ROOT
ATOM      1  C   UNL     1       5.093   4.301  17.518  0.00  0.00    +0.000 A 
ATOM      2  C   UNL     1       3.827   3.744  17.305  0.00  0.00    +0.000 A 
ATOM      3  C   UNL     1       2.906   3.635  18.358  0.00  0.00    +0.000 A 
ATOM      4  C   UNL     1       1.643   3.060  18.152  0.00  0.00    +0.000 A 
ATOM      5  C   UNL     1       0.737   2.936  19.205  0.00  0.00    +0.000 A 
ATOM      6  C   UNL     1       1.085   3.381  20.477  0.00  0.00    +0.000 A 
ATOM      7  C   UNL     1       2.335   3.963  20.696  0.00  0.00    +0.000 A 
ATOM      8  C   UNL     1       3.254   4.104  19.643  0.00  0.00    +0.000 A 
ATOM      9  C   UNL     1       4.506   4.711  19.833  0.00  0.00    +0.000 A 
ATOM     10  C   UNL     1       5.418   4.838  18.773  0.00  0.00    +0.000 A 
ENDROOT
BRANCH  10  11
ATOM     11  C   UNL     1       6.681   5.564  19.066  0.00  0.00    +0.000 C 
ATOM     12  O   UNL     1       7.363   5.341  20.048  0.00  0.00    +0.000 OA
BRANCH  11  13
ATOM     13  O   UNL     1       6.947   6.566  18.198  0.00  0.00    +0.000 OA
ATOM     14  H   UNL     1       6.149   7.012  17.858  0.00  0.00    +0.000 HD
ENDBRANCH  11  13
ENDBRANCH  10  11
BRANCH   1  15
ATOM     15  O   UNL     1       6.038   4.384  16.462  0.00  0.00    +0.000 OA
BRANCH  15  17
ATOM     16  O   UNL     1       5.541   6.499  15.591  0.00  0.00    +0.000 OA
ATOM     17  C   UNL     1       5.884   5.336  15.451  0.00  0.00    +0.000 C 
BRANCH  17  18
ATOM     18  C   UNL     1       6.216   4.760  14.118  0.00  0.00    +0.000 A 
ATOM     19  C   UNL     1       5.351   3.791  13.584  0.00  0.00    +0.000 A 
ATOM     20  C   UNL     1       5.638   3.181  12.362  0.00  0.00    +0.000 A 
ATOM     21  C   UNL     1       6.792   3.534  11.663  0.00  0.00    +0.000 A 
ATOM     22  C   UNL     1       7.651   4.503  12.182  0.00  0.00    +0.000 A 
ATOM     23  C   UNL     1       7.367   5.117  13.407  0.00  0.00    +0.000 A 
ENDBRANCH  17  18
ENDBRANCH  15  17
ENDBRANCH   1  15
TORSDOF 5
ENDMDL
MODEL 3
REMARK VINA RESULT:      -8.3      1.227      6.317
REMARK  Name = 
REMARK  5 active torsions:
REMARK  status: ('A' for Active; 'I' for Inactive)
REMARK    1  A    between atoms: C_2  and  O_3
REMARK    2  A    between atoms: C_2  and  C_17
REMARK    3  A    between atoms: O_3  and  C_4
REMARK    4  A    between atoms: C_13  and  C_14
REMARK    5  A    between atoms: C_14  and  O_16
REMARK                            x       y       z     vdW  Elec       q    Type
REMARK                         _______ _______ _______ _____ _____    ______ ____
ROOT
ATOM      1  C   UNL     1       5.456   5.003  16.903  0.00  0.00    +0.000 A 
ATOM      2  C   UNL     1       4.912   4.341  15.797  0.00  0.00    +0.000 A 
ATOM      3  C   UNL     1       5.624   4.254  14.592  0.00  0.00    +0.000 A 
ATOM      4  C   UNL     1       5.074   3.608  13.475  0.00  0.00    +0.000 A 
ATOM      5  C   UNL     1       5.778   3.540  12.272  0.00  0.00    +0.000 A 
ATOM      6  C   UNL     1       7.037   4.123  12.172  0.00  0.00    +0.000 A 
ATOM      7  C   UNL     1       7.602   4.763  13.276  0.00  0.00    +0.000 A 
ATOM      8  C   UNL     1       6.910   4.830  14.497  0.00  0.00    +0.000 A 
ATOM      9  C   UNL     1       7.469   5.444  15.629  0.00  0.00    +0.000 A 
ATOM     10  C   UNL     1       6.762   5.510  16.841  0.00  0.00    +0.000 A 
ENDROOT
BRANCH  10  11
ATOM     11  C   UNL     1       7.477   6.114  17.995  0.00  0.00    +0.000 C 
ATOM     12  O   UNL     1       7.824   7.279  18.027  0.00  0.00    +0.000 OA
BRANCH  11  13
ATOM     13  O   UNL     1       7.800   5.224  18.961  0.00  0.00    +0.000 OA
ATOM     14  H   UNL     1       8.690   4.838  18.857  0.00  0.00    +0.000 HD
ENDBRANCH  11  13
ENDBRANCH  10  11
BRANCH   1  15
ATOM     15  O   UNL     1       4.723   5.120  18.114  0.00  0.00    +0.000 OA
BRANCH  15  17
ATOM     16  O   UNL     1       5.519   3.422  19.517  0.00  0.00    +0.000 OA
ATOM     17  C   UNL     1       4.605   4.024  18.974  0.00  0.00    +0.000 C 
BRANCH  17  18
ATOM     18  C   UNL     1       3.177   3.661  19.186  0.00  0.00    +0.000 A 
ATOM     19  C   UNL     1       2.490   4.274  20.248  0.00  0.00    +0.000 A 
ATOM     20  C   UNL     1       1.165   3.936  20.524  0.00  0.00    +0.000 A 
ATOM     21  C   UNL     1       0.514   2.982  19.743  0.00  0.00    +0.000 A 
ATOM     22  C   UNL     1       1.185   2.376  18.681  0.00  0.00    +0.000 A 
ATOM     23  C   UNL     1       2.514   2.712  18.400  0.00  0.00    +0.000 A 
ENDBRANCH  17  18
ENDBRANCH  15  17
ENDBRANCH   1  15
TORSDOF 5
ENDMDL
MODEL 4
REMARK VINA RESULT:      -8.2      1.363      6.261
REMARK  Name = 
REMARK  5 active torsions:
REMARK  status: ('A' for Active; 'I' for Inactive)
REMARK    1  A    between atoms: C_2  and  O_3
REMARK    2  A    between atoms: C_2  and  C_17
REMARK    3  A    between atoms: O_3  and  C_4
REMARK    4  A    between atoms: C_13  and  C_14
REMARK    5  A    between atoms: C_14  and  O_16
REMARK                            x       y       z     vdW  Elec       q    Type
REMARK                         _______ _______ _______ _____ _____    ______ ____
ROOT
ATOM      1  C   UNL     1       5.498   4.976  16.962  0.00  0.00    +0.000 A 
ATOM      2  C   UNL     1       4.959   4.316  15.853  0.00  0.00    +0.000 A 
ATOM      3  C   UNL     1       5.663   4.258  14.641  0.00  0.00    +0.000 A 
ATOM      4  C   UNL     1       5.116   3.613  13.521  0.00  0.00    +0.000 A 
ATOM      5  C   UNL     1       5.811   3.574  12.312  0.00  0.00    +0.000 A 
ATOM      6  C   UNL     1       7.058   4.184  12.208  0.00  0.00    +0.000 A 
ATOM      7  C   UNL     1       7.618   4.822  13.315  0.00  0.00    +0.000 A 
ATOM      8  C   UNL     1       6.935   4.861  14.542  0.00  0.00    +0.000 A 
ATOM      9  C   UNL     1       7.491   5.473  15.677  0.00  0.00    +0.000 A 
ATOM     10  C   UNL     1       6.794   5.510  16.895  0.00  0.00    +0.000 A 
ENDROOT
BRANCH  10  11
ATOM     11  C   UNL     1       7.506   6.115  18.051  0.00  0.00    +0.000 C 
ATOM     12  O   UNL     1       7.918   7.259  18.052  0.00  0.00    +0.000 OA
BRANCH  11  13
ATOM     13  O   UNL     1       7.746   5.245  19.057  0.00  0.00    +0.000 OA
ATOM     14  H   UNL     1       6.953   4.763  19.357  0.00  0.00    +0.000 HD
ENDBRANCH  11  13
ENDBRANCH  10  11
BRANCH   1  15
ATOM     15  O   UNL     1       4.774   5.063  18.180  0.00  0.00    +0.000 OA
BRANCH  15  17
ATOM     16  O   UNL     1       3.213   6.771  17.822  0.00  0.00    +0.000 OA
ATOM     17  C   UNL     1       3.505   5.650  18.205  0.00  0.00    +0.000 C 
BRANCH  17  18
ATOM     18  C   UNL     1       2.492   4.710  18.759  0.00  0.00    +0.000 A 
ATOM     19  C   UNL     1       2.138   4.843  20.112  0.00  0.00    +0.000 A 
ATOM     20  C   UNL     1       1.230   3.959  20.697  0.00  0.00    +0.000 A 
ATOM     21  C   UNL     1       0.670   2.934  19.937  0.00  0.00    +0.000 A 
ATOM     22  C   UNL     1       1.008   2.801  18.591  0.00  0.00    +0.000 A 
ATOM     23  C   UNL     1       1.918   3.684  17.999  0.00  0.00    +0.000 A 
ENDBRANCH  17  18
ENDBRANCH  15  17
ENDBRANCH   1  15
TORSDOF 5
ENDMDL
MODEL 5
REMARK VINA RESULT:      -8.2      1.313      6.370
REMARK  Name = 
REMARK  5 active torsions:
REMARK  status: ('A' for Active; 'I' for Inactive)
REMARK    1  A    between atoms: C_2  and  O_3
REMARK    2  A    between atoms: C_2  and  C_17
REMARK    3  A    between atoms: O_3  and  C_4
REMARK    4  A    between atoms: C_13  and  C_14
REMARK    5  A    between atoms: C_14  and  O_16
REMARK                            x       y       z     vdW  Elec       q    Type
REMARK                         _______ _______ _______ _____ _____    ______ ____
ROOT
ATOM      1  C   UNL     1       5.609   4.712  16.846  0.00  0.00    +0.000 A 
ATOM      2  C   UNL     1       5.137   4.044  15.711  0.00  0.00    +0.000 A 
ATOM      3  C   UNL     1       5.832   4.120  14.495  0.00  0.00    +0.000 A 
ATOM      4  C   UNL     1       5.352   3.467  13.349  0.00  0.00    +0.000 A 
ATOM      5  C   UNL     1       6.036   3.560  12.137  0.00  0.00    +0.000 A 
ATOM      6  C   UNL     1       7.203   4.312  12.055  0.00  0.00    +0.000 A 
ATOM      7  C   UNL     1       7.698   4.961  13.187  0.00  0.00    +0.000 A 
ATOM      8  C   UNL     1       7.027   4.868  14.417  0.00  0.00    +0.000 A 
ATOM      9  C   UNL     1       7.520   5.489  15.577  0.00  0.00    +0.000 A 
ATOM     10  C   UNL     1       6.834   5.393  16.798  0.00  0.00    +0.000 A 
ENDROOT
BRANCH  10  11
ATOM     11  C   UNL     1       7.484   6.023  17.976  0.00  0.00    +0.000 C 
ATOM     12  O   UNL     1       7.828   7.189  18.000  0.00  0.00    +0.000 OA
BRANCH  11  13
ATOM     13  O   UNL     1       7.753   5.156  18.978  0.00  0.00    +0.000 OA
ATOM     14  H   UNL     1       7.611   5.529  19.868  0.00  0.00    +0.000 HD
ENDBRANCH  11  13
ENDBRANCH  10  11
BRANCH   1  15
ATOM     15  O   UNL     1       4.891   4.662  18.070  0.00  0.00    +0.000 OA
BRANCH  15  17
ATOM     16  O   UNL     1       3.477   6.516  17.850  0.00  0.00    +0.000 OA
ATOM     17  C   UNL     1       3.694   5.371  18.214  0.00  0.00    +0.000 C 
BRANCH  17  18
ATOM     18  C   UNL     1       2.654   4.536  18.876  0.00  0.00    +0.000 A 
ATOM     19  C   UNL     1       1.992   3.569  18.100  0.00  0.00    +0.000 A 
ATOM     20  C   UNL     1       0.974   2.792  18.654  0.00  0.00    +0.000 A 
ATOM     21  C   UNL     1       0.607   2.974  19.987  0.00  0.00    +0.000 A 
ATOM     22  C   UNL     1       1.266   3.925  20.767  0.00  0.00    +0.000 A 
ATOM     23  C   UNL     1       2.287   4.707  20.215  0.00  0.00    +0.000 A 
ENDBRANCH  17  18
ENDBRANCH  15  17
ENDBRANCH   1  15
TORSDOF 5
ENDMDL
MODEL 6
REMARK VINA RESULT:      -8.2      1.211      6.345
REMARK  Name = 
REMARK  5 active torsions:
REMARK  status: ('A' for Active; 'I' for Inactive)
REMARK    1  A    between atoms: C_2  and  O_3
REMARK    2  A    between atoms: C_2  and  C_17
REMARK    3  A    between atoms: O_3  and  C_4
REMARK    4  A    between atoms: C_13  and  C_14
REMARK    5  A    between atoms: C_14  and  O_16
REMARK                            x       y       z     vdW  Elec       q    Type
REMARK                         _______ _______ _______ _____ _____    ______ ____
ROOT
ATOM      1  C   UNL     1       5.454   5.156  16.746  0.00  0.00    +0.000 A 
ATOM      2  C   UNL     1       4.963   4.373  15.695  0.00  0.00    +0.000 A 
ATOM      3  C   UNL     1       5.675   4.262  14.491  0.00  0.00    +0.000 A 
ATOM      4  C   UNL     1       5.177   3.494  13.429  0.00  0.00    +0.000 A 
ATOM      5  C   UNL     1       5.878   3.401  12.227  0.00  0.00    +0.000 A 
ATOM      6  C   UNL     1       7.082   4.080  12.071  0.00  0.00    +0.000 A 
ATOM      7  C   UNL     1       7.595   4.843  13.122  0.00  0.00    +0.000 A 
ATOM      8  C   UNL     1       6.905   4.938  14.342  0.00  0.00    +0.000 A 
ATOM      9  C   UNL     1       7.415   5.676  15.423  0.00  0.00    +0.000 A 
ATOM     10  C   UNL     1       6.711   5.767  16.634  0.00  0.00    +0.000 A 
ENDROOT
BRANCH  10  11
ATOM     11  C   UNL     1       7.377   6.510  17.735  0.00  0.00    +0.000 C 
ATOM     12  O   UNL     1       7.609   7.703  17.687  0.00  0.00    +0.000 OA
BRANCH  11  13
ATOM     13  O   UNL     1       7.796   5.720  18.749  0.00  0.00    +0.000 OA
ATOM     14  H   UNL     1       7.152   5.641  19.477  0.00  0.00    +0.000 HD
ENDBRANCH  11  13
ENDBRANCH  10  11
BRANCH   1  15
ATOM     15  O   UNL     1       4.720   5.296  17.953  0.00  0.00    +0.000 OA
BRANCH  15  17
ATOM     16  O   UNL     1       5.681   3.751  19.427  0.00  0.00    +0.000 OA
ATOM     17  C   UNL     1       4.709   4.262  18.895  0.00  0.00    +0.000 C 
BRANCH  17  18
ATOM     18  C   UNL     1       3.316   3.840  19.210  0.00  0.00    +0.000 A 
ATOM     19  C   UNL     1       2.702   2.902  18.364  0.00  0.00    +0.000 A 
ATOM     20  C   UNL     1       1.382   2.508  18.582  0.00  0.00    +0.000 A 
ATOM     21  C   UNL     1       0.662   3.047  19.648  0.00  0.00    +0.000 A 
ATOM     22  C   UNL     1       1.267   3.972  20.499  0.00  0.00    +0.000 A 
ATOM     23  C   UNL     1       2.592   4.371  20.284  0.00  0.00    +0.000 A 
ENDBRANCH  17  18
ENDBRANCH  15  17
ENDBRANCH   1  15
TORSDOF 5
ENDMDL
MODEL 7
REMARK VINA RESULT:      -7.9      1.505      6.228
REMARK  Name = 
REMARK  5 active torsions:
REMARK  status: ('A' for Active; 'I' for Inactive)
REMARK    1  A    between atoms: C_2  and  O_3
REMARK    2  A    between atoms: C_2  and  C_17
REMARK    3  A    between atoms: O_3  and  C_4
REMARK    4  A    between atoms: C_13  and  C_14
REMARK    5  A    between atoms: C_14  and  O_16
REMARK                            x       y       z     vdW  Elec       q    Type
REMARK                         _______ _______ _______ _____ _____    ______ ____
ROOT
ATOM      1  C   UNL     1       5.703   4.573  17.973  0.00  0.00    +0.000 A 
ATOM      2  C   UNL     1       5.167   3.928  16.853  0.00  0.00    +0.000 A 
ATOM      3  C   UNL     1       5.739   4.103  15.584  0.00  0.00    +0.000 A 
ATOM      4  C   UNL     1       5.193   3.473  14.455  0.00  0.00    +0.000 A 
ATOM      5  C   UNL     1       5.753   3.664  13.192  0.00  0.00    +0.000 A 
ATOM      6  C   UNL     1       6.861   4.492  13.042  0.00  0.00    +0.000 A 
ATOM      7  C   UNL     1       7.421   5.120  14.156  0.00  0.00    +0.000 A 
ATOM      8  C   UNL     1       6.874   4.929  15.436  0.00  0.00    +0.000 A 
ATOM      9  C   UNL     1       7.437   5.527  16.575  0.00  0.00    +0.000 A 
ATOM     10  C   UNL     1       6.875   5.333  17.847  0.00  0.00    +0.000 A 
ENDROOT
BRANCH  10  11
ATOM     11  C   UNL     1       7.594   5.950  18.992  0.00  0.00    +0.000 C 
ATOM     12  O   UNL     1       8.257   6.965  18.892  0.00  0.00    +0.000 OA
BRANCH  11  13
ATOM     13  O   UNL     1       7.530   5.223  20.130  0.00  0.00    +0.000 OA
ATOM     14  H   UNL     1       6.619   5.038  20.427  0.00  0.00    +0.000 HD
ENDBRANCH  11  13
ENDBRANCH  10  11
BRANCH   1  15
ATOM     15  O   UNL     1       5.107   4.423  19.253  0.00  0.00    +0.000 OA
BRANCH  15  17
ATOM     16  O   UNL     1       5.227   2.195  19.963  0.00  0.00    +0.000 OA
ATOM     17  C   UNL     1       4.588   3.186  19.648  0.00  0.00    +0.000 C 
BRANCH  17  18
ATOM     18  C   UNL     1       3.099   3.211  19.663  0.00  0.00    +0.000 A 
ATOM     19  C   UNL     1       2.415   2.274  18.871  0.00  0.00    +0.000 A 
ATOM     20  C   UNL     1       1.021   2.282  18.808  0.00  0.00    +0.000 A 
ATOM     21  C   UNL     1       0.298   3.228  19.534  0.00  0.00    +0.000 A 
ATOM     22  C   UNL     1       0.969   4.155  20.331  0.00  0.00    +0.000 A 
ATOM     23  C   UNL     1       2.367   4.151  20.397  0.00  0.00    +0.000 A 
ENDBRANCH  17  18
ENDBRANCH  15  17
ENDBRANCH   1  15
TORSDOF 5
ENDMDL
MODEL 8
REMARK VINA RESULT:      -7.9      1.108      1.631
REMARK  Name = 
REMARK  5 active torsions:
REMARK  status: ('A' for Active; 'I' for Inactive)
REMARK    1  A    between atoms: C_2  and  O_3
REMARK    2  A    between atoms: C_2  and  C_17
REMARK    3  A    between atoms: O_3  and  C_4
REMARK    4  A    between atoms: C_13  and  C_14
REMARK    5  A    between atoms: C_14  and  O_16
REMARK                            x       y       z     vdW  Elec       q    Type
REMARK                         _______ _______ _______ _____ _____    ______ ____
ROOT
ATOM      1  C   UNL     1       5.442   4.006  16.871  0.00  0.00    +0.000 A 
ATOM      2  C   UNL     1       4.067   3.750  16.829  0.00  0.00    +0.000 A 
ATOM      3  C   UNL     1       3.259   3.994  17.949  0.00  0.00    +0.000 A 
ATOM      4  C   UNL     1       1.883   3.721  17.918  0.00  0.00    +0.000 A 
ATOM      5  C   UNL     1       1.086   3.948  19.039  0.00  0.00    +0.000 A 
ATOM      6  C   UNL     1       1.656   4.445  20.207  0.00  0.00    +0.000 A 
ATOM      7  C   UNL     1       3.022   4.730  20.252  0.00  0.00    +0.000 A 
ATOM      8  C   UNL     1       3.836   4.516  19.128  0.00  0.00    +0.000 A 
ATOM      9  C   UNL     1       5.207   4.821  19.140  0.00  0.00    +0.000 A 
ATOM     10  C   UNL     1       6.009   4.596  18.010  0.00  0.00    +0.000 A 
ENDROOT
BRANCH  10  11
ATOM     11  C   UNL     1       7.429   5.025  18.107  0.00  0.00    +0.000 C 
ATOM     12  O   UNL     1       7.762   6.154  18.410  0.00  0.00    +0.000 OA
BRANCH  11  13
ATOM     13  O   UNL     1       8.311   4.075  17.725  0.00  0.00    +0.000 OA
ATOM     14  H   UNL     1       7.891   3.265  17.381  0.00  0.00    +0.000 HD
ENDBRANCH  11  13
ENDBRANCH  10  11
BRANCH   1  15
ATOM     15  O   UNL     1       6.268   3.730  15.749  0.00  0.00    +0.000 OA
BRANCH  15  17
ATOM     16  O   UNL     1       6.533   5.815  14.718  0.00  0.00    +0.000 OA
ATOM     17  C   UNL     1       6.309   4.616  14.669  0.00  0.00    +0.000 C 
BRANCH  17  18
ATOM     18  C   UNL     1       6.056   3.906  13.384  0.00  0.00    +0.000 A 
ATOM     19  C   UNL     1       4.731   3.821  12.927  0.00  0.00    +0.000 A 
ATOM     20  C   UNL     1       4.429   3.126  11.755  0.00  0.00    +0.000 A 
ATOM     21  C   UNL     1       5.449   2.509  11.031  0.00  0.00    +0.000 A 
ATOM     22  C   UNL     1       6.768   2.597  11.472  0.00  0.00    +0.000 A 
ATOM     23  C   UNL     1       7.076   3.293  12.647  0.00  0.00    +0.000 A 
ENDBRANCH  17  18
ENDBRANCH  15  17
ENDBRANCH   1  15
TORSDOF 5
ENDMDL
MODEL 9
REMARK VINA RESULT:      -7.8      2.639      3.255
REMARK  Name = 
REMARK  5 active torsions:
REMARK  status: ('A' for Active; 'I' for Inactive)
REMARK    1  A    between atoms: C_2  and  O_3
REMARK    2  A    between atoms: C_2  and  C_17
REMARK    3  A    between atoms: O_3  and  C_4
REMARK    4  A    between atoms: C_13  and  C_14
REMARK    5  A    between atoms: C_14  and  O_16
REMARK                            x       y       z     vdW  Elec       q    Type
REMARK                         _______ _______ _______ _____ _____    ______ ____
ROOT
ATOM      1  C   UNL     1       4.029   5.020  17.510  0.00  0.00    +0.000 A 
ATOM      2  C   UNL     1       3.688   6.339  17.192  0.00  0.00    +0.000 A 
ATOM      3  C   UNL     1       2.950   7.125  18.090  0.00  0.00    +0.000 A 
ATOM      4  C   UNL     1       2.590   8.441  17.767  0.00  0.00    +0.000 A 
ATOM      5  C   UNL     1       1.840   9.213  18.654  0.00  0.00    +0.000 A 
ATOM      6  C   UNL     1       1.436   8.675  19.872  0.00  0.00    +0.000 A 
ATOM      7  C   UNL     1       1.793   7.369  20.212  0.00  0.00    +0.000 A 
ATOM      8  C   UNL     1       2.557   6.583  19.333  0.00  0.00    +0.000 A 
ATOM      9  C   UNL     1       2.952   5.276  19.664  0.00  0.00    +0.000 A 
ATOM     10  C   UNL     1       3.709   4.500  18.773  0.00  0.00    +0.000 A 
ENDROOT
BRANCH  10  11
ATOM     11  C   UNL     1       4.136   3.161  19.255  0.00  0.00    +0.000 C 
ATOM     12  O   UNL     1       3.354   2.309  19.628  0.00  0.00    +0.000 OA
BRANCH  11  13
ATOM     13  O   UNL     1       5.478   3.016  19.341  0.00  0.00    +0.000 OA
ATOM     14  H   UNL     1       5.970   3.853  19.242  0.00  0.00    +0.000 HD
ENDBRANCH  11  13
ENDBRANCH  10  11
BRANCH   1  15
ATOM     15  O   UNL     1       4.749   4.213  16.590  0.00  0.00    +0.000 OA
BRANCH  15  17
ATOM     16  O   UNL     1       6.970   4.651  17.188  0.00  0.00    +0.000 OA
ATOM     17  C   UNL     1       6.104   4.456  16.349  0.00  0.00    +0.000 C 
BRANCH  17  18
ATOM     18  C   UNL     1       6.402   4.434  14.890  0.00  0.00    +0.000 A 
ATOM     19  C   UNL     1       5.619   3.605  14.069  0.00  0.00    +0.000 A 
ATOM     20  C   UNL     1       5.885   3.507  12.703  0.00  0.00    +0.000 A 
ATOM     21  C   UNL     1       6.934   4.235  12.145  0.00  0.00    +0.000 A 
ATOM     22  C   UNL     1       7.709   5.069  12.950  0.00  0.00    +0.000 A 
ATOM     23  C   UNL     1       7.447   5.170  14.322  0.00  0.00    +0.000 A 
ENDBRANCH  17  18
ENDBRANCH  15  17
ENDBRANCH   1  15
TORSDOF 5
ENDMDL
