MODEL 1
REMARK VINA RESULT:      -8.1      0.000      0.000
REMARK  Name = 
REMARK  9 active torsions:
REMARK  status: ('A' for Active; 'I' for Inactive)
REMARK    1  A    between atoms: C_2  and  O_3
REMARK    2  A    between atoms: C_2  and  C_23
REMARK    3  A    between atoms: O_3  and  C_4
REMARK    4  A    between atoms: C_7  and  C_8
REMARK    5  A    between atoms: C_9  and  C_10
REMARK    6  A    between atoms: C_10  and  O_11
REMARK    7  A    between atoms: C_13  and  O_14
REMARK    8  A    between atoms: O_14  and  C_15
REMARK    9  A    between atoms: C_15  and  C_17
REMARK                            x       y       z     vdW  Elec       q    Type
REMARK                         _______ _______ _______ _____ _____    ______ ____
ROOT
ATOM      1  C   UNL     1       4.307   4.795  18.360  0.00  0.00    +0.000 C 
ATOM      2  C   UNL     1       5.657   4.930  19.077  0.00  0.00    +0.000 C 
ATOM      3  C   UNL     1       6.825   5.056  18.094  0.00  0.00    +0.000 C 
ATOM      4  C   UNL     1       6.635   6.151  17.022  0.00  0.00    +0.000 C 
ATOM      5  C   UNL     1       5.227   6.064  16.393  0.00  0.00    +0.000 C 
ATOM      6  C   UNL     1       4.086   6.002  17.425  0.00  0.00    +0.000 C 
ENDROOT
BRANCH   4   7
ATOM      7  C   UNL     1       6.991   7.579  17.400  0.00  0.00    +0.000 C 
ATOM      8  C   UNL     1       8.119   8.016  17.986  0.00  0.00    +0.000 C 
BRANCH   8   9
ATOM      9  C   UNL     1       8.464   9.461  18.169  0.00  0.00    +0.000 C 
BRANCH   9  10
ATOM     10  O   UNL     1       9.160   9.606  19.393  0.00  0.00    +0.000 OA
ATOM     11  H   UNL     1       9.509  10.512  19.395  0.00  0.00    +0.000 HD
ENDBRANCH   9  10
ENDBRANCH   8   9
ENDBRANCH   4   7
BRANCH   1  12
ATOM     12  O   UNL     1       4.290   3.605  17.520  0.00  0.00    +0.000 OA
BRANCH  12  14
ATOM     13  O   UNL     1       3.911   1.346  17.555  0.00  0.00    +0.000 OA
ATOM     14  C   UNL     1       3.751   2.464  18.014  0.00  0.00    +0.000 C 
BRANCH  14  15
ATOM     15  C   UNL     1       2.875   2.764  19.192  0.00  0.00    +0.000 A 
ATOM     16  C   UNL     1       1.618   3.342  18.960  0.00  0.00    +0.000 A 
ATOM     17  C   UNL     1       0.798   3.714  20.029  0.00  0.00    +0.000 A 
ATOM     18  C   UNL     1       1.218   3.495  21.342  0.00  0.00    +0.000 A 
ATOM     19  C   UNL     1       2.445   2.878  21.582  0.00  0.00    +0.000 A 
ATOM     20  C   UNL     1       3.271   2.511  20.513  0.00  0.00    +0.000 A 
ENDBRANCH  14  15
ENDBRANCH  12  14
ENDBRANCH   1  12
BRANCH   6  21
ATOM     21  O   UNL     1       4.012   7.231  18.185  0.00  0.00    +0.000 OA
BRANCH  21  22
ATOM     22  C   UNL     1       2.912   7.993  17.937  0.00  0.00    +0.000 C 
ATOM     23  O   UNL     1       2.651   8.527  16.869  0.00  0.00    +0.000 OA
BRANCH  22  24
ATOM     24  C   UNL     1       2.045   8.151  19.139  0.00  0.00    +0.000 A 
ATOM     25  C   UNL     1       1.263   9.314  19.229  0.00  0.00    +0.000 A 
ATOM     26  C   UNL     1       0.438   9.532  20.337  0.00  0.00    +0.000 A 
ATOM     27  C   UNL     1       0.393   8.593  21.364  0.00  0.00    +0.000 A 
ATOM     28  C   UNL     1       1.170   7.436  21.285  0.00  0.00    +0.000 A 
ATOM     29  C   UNL     1       1.994   7.210  20.174  0.00  0.00    +0.000 A 
ENDBRANCH  22  24
ENDBRANCH  21  22
ENDBRANCH   6  21
TORSDOF 9
ENDMDL
MODEL 2
REMARK VINA RESULT:      -7.9      2.858      5.448
REMARK  Name = 
REMARK  9 active torsions:
REMARK  status: ('A' for Active; 'I' for Inactive)
REMARK    1  A    between atoms: C_2  and  O_3
REMARK    2  A    between atoms: C_2  and  C_23
REMARK    3  A    between atoms: O_3  and  C_4
REMARK    4  A    between atoms: C_7  and  C_8
REMARK    5  A    between atoms: C_9  and  C_10
REMARK    6  A    between atoms: C_10  and  O_11
REMARK    7  A    between atoms: C_13  and  O_14
REMARK    8  A    between atoms: O_14  and  C_15
REMARK    9  A    between atoms: C_15  and  C_17
REMARK                            x       y       z     vdW  Elec       q    Type
REMARK                         _______ _______ _______ _____ _____    ______ ____
ROOT
ATOM      1  C   UNL     1       4.546   4.478  16.598  0.00  0.00    +0.000 C 
ATOM      2  C   UNL     1       4.365   5.703  17.505  0.00  0.00    +0.000 C 
ATOM      3  C   UNL     1       5.291   5.662  18.725  0.00  0.00    +0.000 C 
ATOM      4  C   UNL     1       6.777   5.418  18.384  0.00  0.00    +0.000 C 
ATOM      5  C   UNL     1       6.926   4.253  17.382  0.00  0.00    +0.000 C 
ATOM      6  C   UNL     1       6.018   4.375  16.145  0.00  0.00    +0.000 C 
ENDROOT
BRANCH   4   7
ATOM      7  C   UNL     1       7.613   6.619  17.973  0.00  0.00    +0.000 C 
ATOM      8  C   UNL     1       7.190   7.873  17.737  0.00  0.00    +0.000 C 
BRANCH   8   9
ATOM      9  C   UNL     1       8.101   9.036  17.503  0.00  0.00    +0.000 C 
BRANCH   9  10
ATOM     10  O   UNL     1       8.853   9.263  18.681  0.00  0.00    +0.000 OA
ATOM     11  H   UNL     1       8.570   8.583  19.314  0.00  0.00    +0.000 HD
ENDBRANCH   9  10
ENDBRANCH   8   9
ENDBRANCH   4   7
BRANCH   1  12
ATOM     12  O   UNL     1       4.244   3.253  17.324  0.00  0.00    +0.000 OA
BRANCH  12  14
ATOM     13  O   UNL     1       2.162   2.643  16.588  0.00  0.00    +0.000 OA
ATOM     14  C   UNL     1       2.948   2.893  17.486  0.00  0.00    +0.000 C 
BRANCH  14  15
ATOM     15  C   UNL     1       2.581   2.890  18.939  0.00  0.00    +0.000 A 
ATOM     16  C   UNL     1       1.282   3.273  19.301  0.00  0.00    +0.000 A 
ATOM     17  C   UNL     1       0.915   3.364  20.647  0.00  0.00    +0.000 A 
ATOM     18  C   UNL     1       1.841   3.055  21.646  0.00  0.00    +0.000 A 
ATOM     19  C   UNL     1       3.121   2.630  21.295  0.00  0.00    +0.000 A 
ATOM     20  C   UNL     1       3.492   2.544  19.948  0.00  0.00    +0.000 A 
ENDBRANCH  14  15
ENDBRANCH  12  14
ENDBRANCH   1  12
BRANCH   6  21
ATOM     21  O   UNL     1       6.389   5.522  15.344  0.00  0.00    +0.000 OA
BRANCH  21  22
ATOM     22  C   UNL     1       7.163   5.239  14.262  0.00  0.00    +0.000 C 
ATOM     23  O   UNL     1       8.272   5.703  14.047  0.00  0.00    +0.000 OA
BRANCH  22  24
ATOM     24  C   UNL     1       6.493   4.306  13.311  0.00  0.00    +0.000 A 
ATOM     25  C   UNL     1       7.311   3.501  12.503  0.00  0.00    +0.000 A 
ATOM     26  C   UNL     1       6.748   2.616  11.578  0.00  0.00    +0.000 A 
ATOM     27  C   UNL     1       5.364   2.532  11.453  0.00  0.00    +0.000 A 
ATOM     28  C   UNL     1       4.542   3.330  12.250  0.00  0.00    +0.000 A 
ATOM     29  C   UNL     1       5.102   4.216  13.181  0.00  0.00    +0.000 A 
ENDBRANCH  22  24
ENDBRANCH  21  22
ENDBRANCH   6  21
TORSDOF 9
ENDMDL
MODEL 3
REMARK VINA RESULT:      -7.9      2.571      5.863
REMARK  Name = 
REMARK  9 active torsions:
REMARK  status: ('A' for Active; 'I' for Inactive)
REMARK    1  A    between atoms: C_2  and  O_3
REMARK    2  A    between atoms: C_2  and  C_23
REMARK    3  A    between atoms: O_3  and  C_4
REMARK    4  A    between atoms: C_7  and  C_8
REMARK    5  A    between atoms: C_9  and  C_10
REMARK    6  A    between atoms: C_10  and  O_11
REMARK    7  A    between atoms: C_13  and  O_14
REMARK    8  A    between atoms: O_14  and  C_15
REMARK    9  A    between atoms: C_15  and  C_17
REMARK                            x       y       z     vdW  Elec       q    Type
REMARK                         _______ _______ _______ _____ _____    ______ ____
ROOT
ATOM      1  C   UNL     1       4.681   4.815  16.874  0.00  0.00    +0.000 C 
ATOM      2  C   UNL     1       3.703   3.632  16.882  0.00  0.00    +0.000 C 
ATOM      3  C   UNL     1       4.135   2.529  17.854  0.00  0.00    +0.000 C 
ATOM      4  C   UNL     1       4.439   3.029  19.283  0.00  0.00    +0.000 C 
ATOM      5  C   UNL     1       5.333   4.287  19.246  0.00  0.00    +0.000 C 
ATOM      6  C   UNL     1       4.821   5.389  18.299  0.00  0.00    +0.000 C 
ENDROOT
BRANCH   4   7
ATOM      7  C   UNL     1       3.266   3.205  20.233  0.00  0.00    +0.000 C 
ATOM      8  C   UNL     1       1.966   2.973  19.986  0.00  0.00    +0.000 C 
BRANCH   8   9
ATOM      9  C   UNL     1       0.893   3.008  21.028  0.00  0.00    +0.000 C 
BRANCH   9  10
ATOM     10  O   UNL     1       1.449   2.585  22.260  0.00  0.00    +0.000 OA
ATOM     11  H   UNL     1       0.706   2.241  22.783  0.00  0.00    +0.000 HD
ENDBRANCH   9  10
ENDBRANCH   8   9
ENDBRANCH   4   7
BRANCH   1  12
ATOM     12  O   UNL     1       6.009   4.380  16.465  0.00  0.00    +0.000 OA
BRANCH  12  14
ATOM     13  O   UNL     1       7.348   6.214  16.163  0.00  0.00    +0.000 OA
ATOM     14  C   UNL     1       6.778   5.224  15.736  0.00  0.00    +0.000 C 
BRANCH  14  15
ATOM     15  C   UNL     1       6.798   4.807  14.297  0.00  0.00    +0.000 A 
ATOM     16  C   UNL     1       5.917   3.798  13.881  0.00  0.00    +0.000 A 
ATOM     17  C   UNL     1       5.953   3.318  12.569  0.00  0.00    +0.000 A 
ATOM     18  C   UNL     1       6.859   3.855  11.653  0.00  0.00    +0.000 A 
ATOM     19  C   UNL     1       7.708   4.890  12.044  0.00  0.00    +0.000 A 
ATOM     20  C   UNL     1       7.677   5.368  13.359  0.00  0.00    +0.000 A 
ENDBRANCH  14  15
ENDBRANCH  12  14
ENDBRANCH   1  12
BRANCH   6  21
ATOM     21  O   UNL     1       3.557   5.920  18.764  0.00  0.00    +0.000 OA
BRANCH  21  22
ATOM     22  C   UNL     1       3.208   7.120  18.228  0.00  0.00    +0.000 C 
ATOM     23  O   UNL     1       3.650   7.583  17.187  0.00  0.00    +0.000 OA
BRANCH  22  24
ATOM     24  C   UNL     1       2.231   7.861  19.076  0.00  0.00    +0.000 A 
ATOM     25  C   UNL     1       1.656   9.024  18.541  0.00  0.00    +0.000 A 
ATOM     26  C   UNL     1       0.743   9.776  19.289  0.00  0.00    +0.000 A 
ATOM     27  C   UNL     1       0.403   9.371  20.576  0.00  0.00    +0.000 A 
ATOM     28  C   UNL     1       0.972   8.217  21.118  0.00  0.00    +0.000 A 
ATOM     29  C   UNL     1       1.884   7.459  20.371  0.00  0.00    +0.000 A 
ENDBRANCH  22  24
ENDBRANCH  21  22
ENDBRANCH   6  21
TORSDOF 9
ENDMDL
MODEL 4
REMARK VINA RESULT:      -7.9      1.894      6.259
REMARK  Name = 
REMARK  9 active torsions:
REMARK  status: ('A' for Active; 'I' for Inactive)
REMARK    1  A    between atoms: C_2  and  O_3
REMARK    2  A    between atoms: C_2  and  C_23
REMARK    3  A    between atoms: O_3  and  C_4
REMARK    4  A    between atoms: C_7  and  C_8
REMARK    5  A    between atoms: C_9  and  C_10
REMARK    6  A    between atoms: C_10  and  O_11
REMARK    7  A    between atoms: C_13  and  O_14
REMARK    8  A    between atoms: O_14  and  C_15
REMARK    9  A    between atoms: C_15  and  C_17
REMARK                            x       y       z     vdW  Elec       q    Type
REMARK                         _______ _______ _______ _____ _____    ______ ____
ROOT
ATOM      1  C   UNL     1       3.127   6.246  18.393  0.00  0.00    +0.000 C 
ATOM      2  C   UNL     1       3.457   5.858  19.842  0.00  0.00    +0.000 C 
ATOM      3  C   UNL     1       2.375   4.970  20.465  0.00  0.00    +0.000 C 
ATOM      4  C   UNL     1       2.000   3.738  19.614  0.00  0.00    +0.000 C 
ATOM      5  C   UNL     1       1.782   4.135  18.138  0.00  0.00    +0.000 C 
ATOM      6  C   UNL     1       2.928   4.974  17.542  0.00  0.00    +0.000 C 
ENDROOT
BRANCH   4   7
ATOM      7  C   UNL     1       2.877   2.502  19.737  0.00  0.00    +0.000 C 
ATOM      8  C   UNL     1       4.183   2.450  20.049  0.00  0.00    +0.000 C 
BRANCH   8   9
ATOM      9  C   UNL     1       4.932   1.183  20.317  0.00  0.00    +0.000 C 
BRANCH   9  10
ATOM     10  O   UNL     1       5.520   1.269  21.602  0.00  0.00    +0.000 OA
ATOM     11  H   UNL     1       6.374   1.712  21.475  0.00  0.00    +0.000 HD
ENDBRANCH   9  10
ENDBRANCH   8   9
ENDBRANCH   4   7
BRANCH   1  12
ATOM     12  O   UNL     1       1.876   6.989  18.334  0.00  0.00    +0.000 OA
BRANCH  12  14
ATOM     13  O   UNL     1       2.511   8.940  17.313  0.00  0.00    +0.000 OA
ATOM     14  C   UNL     1       1.923   8.336  18.195  0.00  0.00    +0.000 C 
BRANCH  14  15
ATOM     15  C   UNL     1       1.188   9.006  19.316  0.00  0.00    +0.000 A 
ATOM     16  C   UNL     1       1.315   8.479  20.609  0.00  0.00    +0.000 A 
ATOM     17  C   UNL     1       0.587   9.018  21.673  0.00  0.00    +0.000 A 
ATOM     18  C   UNL     1      -0.263  10.105  21.458  0.00  0.00    +0.000 A 
ATOM     19  C   UNL     1      -0.362  10.666  20.185  0.00  0.00    +0.000 A 
ATOM     20  C   UNL     1       0.362  10.123  19.118  0.00  0.00    +0.000 A 
ENDBRANCH  14  15
ENDBRANCH  12  14
ENDBRANCH   1  12
BRANCH   6  21
ATOM     21  O   UNL     1       4.151   4.204  17.479  0.00  0.00    +0.000 OA
BRANCH  21  22
ATOM     22  C   UNL     1       5.104   4.709  16.650  0.00  0.00    +0.000 C 
ATOM     23  O   UNL     1       5.141   4.550  15.439  0.00  0.00    +0.000 OA
BRANCH  22  24
ATOM     24  C   UNL     1       6.155   5.469  17.385  0.00  0.00    +0.000 A 
ATOM     25  C   UNL     1       6.538   6.716  16.867  0.00  0.00    +0.000 A 
ATOM     26  C   UNL     1       7.529   7.475  17.498  0.00  0.00    +0.000 A 
ATOM     27  C   UNL     1       8.146   6.990  18.648  0.00  0.00    +0.000 A 
ATOM     28  C   UNL     1       7.774   5.750  19.169  0.00  0.00    +0.000 A 
ATOM     29  C   UNL     1       6.778   4.988  18.542  0.00  0.00    +0.000 A 
ENDBRANCH  22  24
ENDBRANCH  21  22
ENDBRANCH   6  21
TORSDOF 9
ENDMDL
MODEL 5
REMARK VINA RESULT:      -7.9      0.379      1.334
REMARK  Name = 
REMARK  9 active torsions:
REMARK  status: ('A' for Active; 'I' for Inactive)
REMARK    1  A    between atoms: C_2  and  O_3
REMARK    2  A    between atoms: C_2  and  C_23
REMARK    3  A    between atoms: O_3  and  C_4
REMARK    4  A    between atoms: C_7  and  C_8
REMARK    5  A    between atoms: C_9  and  C_10
REMARK    6  A    between atoms: C_10  and  O_11
REMARK    7  A    between atoms: C_13  and  O_14
REMARK    8  A    between atoms: O_14  and  C_15
REMARK    9  A    between atoms: C_15  and  C_17
REMARK                            x       y       z     vdW  Elec       q    Type
REMARK                         _______ _______ _______ _____ _____    ______ ____
ROOT
ATOM      1  C   UNL     1       4.422   4.947  18.512  0.00  0.00    +0.000 C 
ATOM      2  C   UNL     1       5.758   5.166  19.238  0.00  0.00    +0.000 C 
ATOM      3  C   UNL     1       6.937   5.260  18.264  0.00  0.00    +0.000 C 
ATOM      4  C   UNL     1       6.734   6.278  17.122  0.00  0.00    +0.000 C 
ATOM      5  C   UNL     1       5.339   6.113  16.480  0.00  0.00    +0.000 C 
ATOM      6  C   UNL     1       4.184   6.085  17.498  0.00  0.00    +0.000 C 
ENDROOT
BRANCH   4   7
ATOM      7  C   UNL     1       7.047   7.737  17.411  0.00  0.00    +0.000 C 
ATOM      8  C   UNL     1       8.172   8.246  17.942  0.00  0.00    +0.000 C 
BRANCH   8   9
ATOM      9  C   UNL     1       8.467   9.710  18.037  0.00  0.00    +0.000 C 
BRANCH   9  10
ATOM     10  O   UNL     1       9.061   9.969  19.295  0.00  0.00    +0.000 OA
ATOM     11  H   UNL     1       9.459  10.852  19.225  0.00  0.00    +0.000 HD
ENDBRANCH   9  10
ENDBRANCH   8   9
ENDBRANCH   4   7
BRANCH   1  12
ATOM     12  O   UNL     1       4.450   3.706  17.751  0.00  0.00    +0.000 OA
BRANCH  12  14
ATOM     13  O   UNL     1       3.000   2.138  16.922  0.00  0.00    +0.000 OA
ATOM     14  C   UNL     1       3.380   2.877  17.814  0.00  0.00    +0.000 C 
BRANCH  14  15
ATOM     15  C   UNL     1       2.679   3.024  19.130  0.00  0.00    +0.000 A 
ATOM     16  C   UNL     1       3.307   2.529  20.282  0.00  0.00    +0.000 A 
ATOM     17  C   UNL     1       2.659   2.570  21.520  0.00  0.00    +0.000 A 
ATOM     18  C   UNL     1       1.381   3.123  21.622  0.00  0.00    +0.000 A 
ATOM     19  C   UNL     1       0.766   3.659  20.491  0.00  0.00    +0.000 A 
ATOM     20  C   UNL     1       1.411   3.614  19.250  0.00  0.00    +0.000 A 
ENDBRANCH  14  15
ENDBRANCH  12  14
ENDBRANCH   1  12
BRANCH   6  21
ATOM     21  O   UNL     1       4.066   7.359  18.176  0.00  0.00    +0.000 OA
BRANCH  21  22
ATOM     22  C   UNL     1       2.937   8.060  17.884  0.00  0.00    +0.000 C 
ATOM     23  O   UNL     1       2.654   8.516  16.786  0.00  0.00    +0.000 OA
BRANCH  22  24
ATOM     24  C   UNL     1       2.065   8.258  19.077  0.00  0.00    +0.000 A 
ATOM     25  C   UNL     1       2.057   7.249  20.052  0.00  0.00    +0.000 A 
ATOM     26  C   UNL     1       1.249   7.364  21.188  0.00  0.00    +0.000 A 
ATOM     27  C   UNL     1       0.442   8.486  21.355  0.00  0.00    +0.000 A 
ATOM     28  C   UNL     1       0.442   9.494  20.389  0.00  0.00    +0.000 A 
ATOM     29  C   UNL     1       1.252   9.385  19.251  0.00  0.00    +0.000 A 
ENDBRANCH  22  24
ENDBRANCH  21  22
ENDBRANCH   6  21
TORSDOF 9
ENDMDL
MODEL 6
REMARK VINA RESULT:      -7.8      2.593      5.935
REMARK  Name = 
REMARK  9 active torsions:
REMARK  status: ('A' for Active; 'I' for Inactive)
REMARK    1  A    between atoms: C_2  and  O_3
REMARK    2  A    between atoms: C_2  and  C_23
REMARK    3  A    between atoms: O_3  and  C_4
REMARK    4  A    between atoms: C_7  and  C_8
REMARK    5  A    between atoms: C_9  and  C_10
REMARK    6  A    between atoms: C_10  and  O_11
REMARK    7  A    between atoms: C_13  and  O_14
REMARK    8  A    between atoms: O_14  and  C_15
REMARK    9  A    between atoms: C_15  and  C_17
REMARK                            x       y       z     vdW  Elec       q    Type
REMARK                         _______ _______ _______ _____ _____    ______ ____
ROOT
ATOM      1  C   UNL     1       4.786   4.864  16.841  0.00  0.00    +0.000 C 
ATOM      2  C   UNL     1       3.844   3.652  16.836  0.00  0.00    +0.000 C 
ATOM      3  C   UNL     1       4.269   2.584  17.849  0.00  0.00    +0.000 C 
ATOM      4  C   UNL     1       4.500   3.122  19.277  0.00  0.00    +0.000 C 
ATOM      5  C   UNL     1       5.358   4.406  19.248  0.00  0.00    +0.000 C 
ATOM      6  C   UNL     1       4.851   5.471  18.257  0.00  0.00    +0.000 C 
ENDROOT
BRANCH   4   7
ATOM      7  C   UNL     1       3.286   3.282  20.177  0.00  0.00    +0.000 C 
ATOM      8  C   UNL     1       2.003   3.014  19.880  0.00  0.00    +0.000 C 
BRANCH   8   9
ATOM      9  C   UNL     1       0.888   3.036  20.877  0.00  0.00    +0.000 C 
BRANCH   9  10
ATOM     10  O   UNL     1       1.417   2.716  22.151  0.00  0.00    +0.000 OA
ATOM     11  H   UNL     1       2.381   2.698  22.042  0.00  0.00    +0.000 HD
ENDBRANCH   9  10
ENDBRANCH   8   9
ENDBRANCH   4   7
BRANCH   1  12
ATOM     12  O   UNL     1       6.141   4.461  16.494  0.00  0.00    +0.000 OA
BRANCH  12  14
ATOM     13  O   UNL     1       7.439   6.294  16.041  0.00  0.00    +0.000 OA
ATOM     14  C   UNL     1       6.878   5.268  15.694  0.00  0.00    +0.000 C 
BRANCH  14  15
ATOM     15  C   UNL     1       6.875   4.757  14.285  0.00  0.00    +0.000 A 
ATOM     16  C   UNL     1       7.729   5.362  13.352  0.00  0.00    +0.000 A 
ATOM     17  C   UNL     1       7.704   4.975  12.009  0.00  0.00    +0.000 A 
ATOM     18  C   UNL     1       6.837   3.965  11.588  0.00  0.00    +0.000 A 
ATOM     19  C   UNL     1       6.016   3.326  12.517  0.00  0.00    +0.000 A 
ATOM     20  C   UNL     1       6.035   3.716  13.861  0.00  0.00    +0.000 A 
ENDBRANCH  14  15
ENDBRANCH  12  14
ENDBRANCH   1  12
BRANCH   6  21
ATOM     21  O   UNL     1       3.555   5.973  18.660  0.00  0.00    +0.000 OA
BRANCH  21  22
ATOM     22  C   UNL     1       3.200   7.159  18.097  0.00  0.00    +0.000 C 
ATOM     23  O   UNL     1       3.613   7.586  17.030  0.00  0.00    +0.000 OA
BRANCH  22  24
ATOM     24  C   UNL     1       2.254   7.934  18.951  0.00  0.00    +0.000 A 
ATOM     25  C   UNL     1       1.992   7.446  20.240  0.00  0.00    +0.000 A 
ATOM     26  C   UNL     1       1.102   8.116  21.087  0.00  0.00    +0.000 A 
ATOM     27  C   UNL     1       0.467   9.275  20.650  0.00  0.00    +0.000 A 
ATOM     28  C   UNL     1       0.720   9.766  19.367  0.00  0.00    +0.000 A 
ATOM     29  C   UNL     1       1.613   9.101  18.517  0.00  0.00    +0.000 A 
ENDBRANCH  22  24
ENDBRANCH  21  22
ENDBRANCH   6  21
TORSDOF 9
ENDMDL
MODEL 7
REMARK VINA RESULT:      -7.7      2.981      5.608
REMARK  Name = 
REMARK  9 active torsions:
REMARK  status: ('A' for Active; 'I' for Inactive)
REMARK    1  A    between atoms: C_2  and  O_3
REMARK    2  A    between atoms: C_2  and  C_23
REMARK    3  A    between atoms: O_3  and  C_4
REMARK    4  A    between atoms: C_7  and  C_8
REMARK    5  A    between atoms: C_9  and  C_10
REMARK    6  A    between atoms: C_10  and  O_11
REMARK    7  A    between atoms: C_13  and  O_14
REMARK    8  A    between atoms: O_14  and  C_15
REMARK    9  A    between atoms: C_15  and  C_17
REMARK                            x       y       z     vdW  Elec       q    Type
REMARK                         _______ _______ _______ _____ _____    ______ ____
ROOT
ATOM      1  C   UNL     1       4.496   4.350  16.506  0.00  0.00    +0.000 C 
ATOM      2  C   UNL     1       4.290   5.649  17.298  0.00  0.00    +0.000 C 
ATOM      3  C   UNL     1       5.299   5.798  18.440  0.00  0.00    +0.000 C 
ATOM      4  C   UNL     1       6.771   5.618  18.012  0.00  0.00    +0.000 C 
ATOM      5  C   UNL     1       6.935   4.366  17.123  0.00  0.00    +0.000 C 
ATOM      6  C   UNL     1       5.936   4.296  15.953  0.00  0.00    +0.000 C 
ENDROOT
BRANCH   4   7
ATOM      7  C   UNL     1       7.486   6.821  17.419  0.00  0.00    +0.000 C 
ATOM      8  C   UNL     1       7.656   8.032  17.976  0.00  0.00    +0.000 C 
BRANCH   8   9
ATOM      9  C   UNL     1       8.520   9.109  17.398  0.00  0.00    +0.000 C 
BRANCH   9  10
ATOM     10  O   UNL     1       8.267  10.314  18.097  0.00  0.00    +0.000 OA
ATOM     11  H   UNL     1       9.126  10.758  18.182  0.00  0.00    +0.000 HD
ENDBRANCH   9  10
ENDBRANCH   8   9
ENDBRANCH   4   7
BRANCH   1  12
ATOM     12  O   UNL     1       4.337   3.191  17.373  0.00  0.00    +0.000 OA
BRANCH  12  14
ATOM     13  O   UNL     1       2.423   2.100  16.742  0.00  0.00    +0.000 OA
ATOM     14  C   UNL     1       3.093   2.691  17.573  0.00  0.00    +0.000 C 
BRANCH  14  15
ATOM     15  C   UNL     1       2.616   3.007  18.957  0.00  0.00    +0.000 A 
ATOM     16  C   UNL     1       3.335   2.494  20.046  0.00  0.00    +0.000 A 
ATOM     17  C   UNL     1       2.885   2.693  21.355  0.00  0.00    +0.000 A 
ATOM     18  C   UNL     1       1.719   3.424  21.589  0.00  0.00    +0.000 A 
ATOM     19  C   UNL     1       1.021   3.977  20.516  0.00  0.00    +0.000 A 
ATOM     20  C   UNL     1       1.467   3.773  19.205  0.00  0.00    +0.000 A 
ENDBRANCH  14  15
ENDBRANCH  12  14
ENDBRANCH   1  12
BRANCH   6  21
ATOM     21  O   UNL     1       6.165   5.374  15.016  0.00  0.00    +0.000 OA
BRANCH  21  22
ATOM     22  C   UNL     1       7.059   5.095  14.029  0.00  0.00    +0.000 C 
ATOM     23  O   UNL     1       8.171   5.590  13.924  0.00  0.00    +0.000 OA
BRANCH  22  24
ATOM     24  C   UNL     1       6.523   4.124  13.033  0.00  0.00    +0.000 A 
ATOM     25  C   UNL     1       5.131   4.062  12.868  0.00  0.00    +0.000 A 
ATOM     26  C   UNL     1       4.561   3.162  11.961  0.00  0.00    +0.000 A 
ATOM     27  C   UNL     1       5.379   2.315  11.218  0.00  0.00    +0.000 A 
ATOM     28  C   UNL     1       6.765   2.367  11.378  0.00  0.00    +0.000 A 
ATOM     29  C   UNL     1       7.340   3.271  12.282  0.00  0.00    +0.000 A 
ENDBRANCH  22  24
ENDBRANCH  21  22
ENDBRANCH   6  21
TORSDOF 9
ENDMDL
MODEL 8
REMARK VINA RESULT:      -7.7      0.852      1.390
REMARK  Name = 
REMARK  9 active torsions:
REMARK  status: ('A' for Active; 'I' for Inactive)
REMARK    1  A    between atoms: C_2  and  O_3
REMARK    2  A    between atoms: C_2  and  C_23
REMARK    3  A    between atoms: O_3  and  C_4
REMARK    4  A    between atoms: C_7  and  C_8
REMARK    5  A    between atoms: C_9  and  C_10
REMARK    6  A    between atoms: C_10  and  O_11
REMARK    7  A    between atoms: C_13  and  O_14
REMARK    8  A    between atoms: O_14  and  C_15
REMARK    9  A    between atoms: C_15  and  C_17
REMARK                            x       y       z     vdW  Elec       q    Type
REMARK                         _______ _______ _______ _____ _____    ______ ____
ROOT
ATOM      1  C   UNL     1       4.353   4.354  18.422  0.00  0.00    +0.000 C 
ATOM      2  C   UNL     1       5.761   4.563  18.997  0.00  0.00    +0.000 C 
ATOM      3  C   UNL     1       6.814   4.751  17.900  0.00  0.00    +0.000 C 
ATOM      4  C   UNL     1       6.455   5.833  16.859  0.00  0.00    +0.000 C 
ATOM      5  C   UNL     1       4.997   5.671  16.377  0.00  0.00    +0.000 C 
ATOM      6  C   UNL     1       3.973   5.547  17.521  0.00  0.00    +0.000 C 
ENDROOT
BRANCH   4   7
ATOM      7  C   UNL     1       6.771   7.279  17.205  0.00  0.00    +0.000 C 
ATOM      8  C   UNL     1       7.847   7.751  17.859  0.00  0.00    +0.000 C 
BRANCH   8   9
ATOM      9  C   UNL     1       8.166   9.205  18.010  0.00  0.00    +0.000 C 
BRANCH   9  10
ATOM     10  O   UNL     1       9.027   9.364  19.122  0.00  0.00    +0.000 OA
ATOM     11  H   UNL     1       8.770   8.677  19.759  0.00  0.00    +0.000 HD
ENDBRANCH   9  10
ENDBRANCH   8   9
ENDBRANCH   4   7
BRANCH   1  12
ATOM     12  O   UNL     1       4.314   3.165  17.582  0.00  0.00    +0.000 OA
BRANCH  12  14
ATOM     13  O   UNL     1       4.015   0.896  17.675  0.00  0.00    +0.000 OA
ATOM     14  C   UNL     1       3.800   2.021  18.094  0.00  0.00    +0.000 C 
BRANCH  14  15
ATOM     15  C   UNL     1       2.873   2.324  19.232  0.00  0.00    +0.000 A 
ATOM     16  C   UNL     1       1.538   2.641  18.940  0.00  0.00    +0.000 A 
ATOM     17  C   UNL     1       0.655   3.009  19.960  0.00  0.00    +0.000 A 
ATOM     18  C   UNL     1       1.094   3.047  21.285  0.00  0.00    +0.000 A 
ATOM     19  C   UNL     1       2.407   2.690  21.590  0.00  0.00    +0.000 A 
ATOM     20  C   UNL     1       3.294   2.327  20.570  0.00  0.00    +0.000 A 
ENDBRANCH  14  15
ENDBRANCH  12  14
ENDBRANCH   1  12
BRANCH   6  21
ATOM     21  O   UNL     1       3.911   6.771  18.290  0.00  0.00    +0.000 OA
BRANCH  21  22
ATOM     22  C   UNL     1       2.902   6.825  19.201  0.00  0.00    +0.000 C 
ATOM     23  O   UNL     1       2.612   5.934  19.986  0.00  0.00    +0.000 OA
BRANCH  22  24
ATOM     24  C   UNL     1       2.133   8.100  19.126  0.00  0.00    +0.000 A 
ATOM     25  C   UNL     1       2.217   8.841  17.936  0.00  0.00    +0.000 A 
ATOM     26  C   UNL     1       1.533  10.054  17.804  0.00  0.00    +0.000 A 
ATOM     27  C   UNL     1       0.766  10.536  18.860  0.00  0.00    +0.000 A 
ATOM     28  C   UNL     1       0.679   9.808  20.048  0.00  0.00    +0.000 A 
ATOM     29  C   UNL     1       1.359   8.590  20.184  0.00  0.00    +0.000 A 
ENDBRANCH  22  24
ENDBRANCH  21  22
ENDBRANCH   6  21
TORSDOF 9
ENDMDL
MODEL 9
REMARK VINA RESULT:      -7.6      0.915      1.393
REMARK  Name = 
REMARK  9 active torsions:
REMARK  status: ('A' for Active; 'I' for Inactive)
REMARK    1  A    between atoms: C_2  and  O_3
REMARK    2  A    between atoms: C_2  and  C_23
REMARK    3  A    between atoms: O_3  and  C_4
REMARK    4  A    between atoms: C_7  and  C_8
REMARK    5  A    between atoms: C_9  and  C_10
REMARK    6  A    between atoms: C_10  and  O_11
REMARK    7  A    between atoms: C_13  and  O_14
REMARK    8  A    between atoms: O_14  and  C_15
REMARK    9  A    between atoms: C_15  and  C_17
REMARK                            x       y       z     vdW  Elec       q    Type
REMARK                         _______ _______ _______ _____ _____    ______ ____
ROOT
ATOM      1  C   UNL     1       5.049   4.836  19.113  0.00  0.00    +0.000 C 
ATOM      2  C   UNL     1       6.412   5.309  19.639  0.00  0.00    +0.000 C 
ATOM      3  C   UNL     1       7.513   5.197  18.580  0.00  0.00    +0.000 C 
ATOM      4  C   UNL     1       7.160   5.857  17.229  0.00  0.00    +0.000 C 
ATOM      5  C   UNL     1       5.740   5.454  16.775  0.00  0.00    +0.000 C 
ATOM      6  C   UNL     1       4.662   5.645  17.858  0.00  0.00    +0.000 C 
ENDROOT
BRANCH   4   7
ATOM      7  C   UNL     1       7.387   7.354  17.095  0.00  0.00    +0.000 C 
ATOM      8  C   UNL     1       7.973   8.179  17.979  0.00  0.00    +0.000 C 
BRANCH   8   9
ATOM      9  C   UNL     1       8.310   9.609  17.698  0.00  0.00    +0.000 C 
BRANCH   9  10
ATOM     10  O   UNL     1       9.006  10.136  18.812  0.00  0.00    +0.000 OA
ATOM     11  H   UNL     1       8.392  10.752  19.243  0.00  0.00    +0.000 HD
ENDBRANCH   9  10
ENDBRANCH   8   9
ENDBRANCH   4   7
BRANCH   1  12
ATOM     12  O   UNL     1       5.114   3.439  18.709  0.00  0.00    +0.000 OA
BRANCH  12  14
ATOM     13  O   UNL     1       5.216   1.564  20.022  0.00  0.00    +0.000 OA
ATOM     14  C   UNL     1       4.598   2.495  19.533  0.00  0.00    +0.000 C 
BRANCH  14  15
ATOM     15  C   UNL     1       3.130   2.717  19.732  0.00  0.00    +0.000 A 
ATOM     16  C   UNL     1       2.285   2.647  18.615  0.00  0.00    +0.000 A 
ATOM     17  C   UNL     1       0.921   2.925  18.735  0.00  0.00    +0.000 A 
ATOM     18  C   UNL     1       0.382   3.259  19.979  0.00  0.00    +0.000 A 
ATOM     19  C   UNL     1       1.205   3.287  21.105  0.00  0.00    +0.000 A 
ATOM     20  C   UNL     1       2.573   3.015  20.985  0.00  0.00    +0.000 A 
ENDBRANCH  14  15
ENDBRANCH  12  14
ENDBRANCH   1  12
BRANCH   6  21
ATOM     21  O   UNL     1       4.499   7.046  18.182  0.00  0.00    +0.000 OA
BRANCH  21  22
ATOM     22  C   UNL     1       3.324   7.595  17.773  0.00  0.00    +0.000 C 
ATOM     23  O   UNL     1       3.037   7.868  16.617  0.00  0.00    +0.000 OA
BRANCH  22  24
ATOM     24  C   UNL     1       2.400   7.876  18.909  0.00  0.00    +0.000 A 
ATOM     25  C   UNL     1       2.242   6.876  19.881  0.00  0.00    +0.000 A 
ATOM     26  C   UNL     1       1.379   7.069  20.965  0.00  0.00    +0.000 A 
ATOM     27  C   UNL     1       0.667   8.259  21.082  0.00  0.00    +0.000 A 
ATOM     28  C   UNL     1       0.816   9.258  20.118  0.00  0.00    +0.000 A 
ATOM     29  C   UNL     1       1.683   9.071  19.033  0.00  0.00    +0.000 A 
ENDBRANCH  22  24
ENDBRANCH  21  22
ENDBRANCH   6  21
TORSDOF 9
ENDMDL
