MODEL 1
REMARK VINA RESULT:      -8.0      0.000      0.000
REMARK  Name = 
REMARK  11 active torsions:
REMARK  status: ('A' for Active; 'I' for Inactive)
REMARK    1  A    between atoms: C_1  and  O_2
REMARK    2  A    between atoms: O_2  and  C_3
REMARK    3  A    between atoms: C_8  and  C_9
REMARK    4  A    between atoms: C_12  and  C_13
REMARK    5  A    between atoms: C_13  and  O_14
REMARK    6  A    between atoms: O_14  and  C_15
REMARK    7  A    between atoms: C_19  and  C_20
REMARK    8  A    between atoms: C_20  and  C_21
REMARK    9  A    between atoms: C_20  and  C_24
REMARK   10  A    between atoms: C_24  and  C_26
REMARK   11  A    between atoms: C_26  and  O_28
REMARK                            x       y       z     vdW  Elec       q    Type
REMARK                         _______ _______ _______ _____ _____    ______ ____
ROOT
ATOM      1  O   UNL     1       0.775  10.146  21.071  0.00  0.00    +0.000 OA
ENDROOT
BRANCH   1   2
ATOM      2  C   UNL     1       0.141  10.985  20.206  0.00  0.00    +0.000 A 
ATOM      3  C   UNL     1       0.967  12.031  19.778  0.00  0.00    +0.000 A 
ATOM      4  C   UNL     1       0.492  13.012  18.919  0.00  0.00    +0.000 A 
ATOM      5  C   UNL     1      -0.816  12.940  18.463  0.00  0.00    +0.000 A 
ATOM      6  C   UNL     1      -1.657  11.864  18.821  0.00  0.00    +0.000 A 
ATOM      7  C   UNL     1      -1.168  10.888  19.717  0.00  0.00    +0.000 A 
BRANCH   6   8
ATOM      8  C   UNL     1      -2.970  11.748  18.045  0.00  0.00    +0.000 C 
BRANCH   8   9
ATOM      9  C   UNL     1      -3.101  10.387  17.364  0.00  0.00    +0.000 C 
ATOM     10  C   UNL     1      -1.967   9.657  16.679  0.00  0.00    +0.000 C 
ATOM     11  C   UNL     1      -3.084  10.228  15.855  0.00  0.00    +0.000 C 
ENDBRANCH   8   9
BRANCH   8  12
ATOM     12  C   UNL     1      -4.246  12.204  18.771  0.00  0.00    +0.000 C 
ATOM     13  F   UNL     1      -4.338  11.622  20.008  0.00  0.00    +0.000 F 
BRANCH  12  14
ATOM     14  C   UNL     1      -5.478  11.864  17.937  0.00  0.00    +0.000 C 
ATOM     15  O   UNL     1      -5.802  12.415  16.901  0.00  0.00    +0.000 OA
BRANCH  14  16
ATOM     16  O   UNL     1      -6.201  10.850  18.485  0.00  0.00    +0.000 OA
ATOM     17  H   UNL     1      -7.163  11.006  18.364  0.00  0.00    +0.000 HD
ENDBRANCH  14  16
ENDBRANCH  12  14
ENDBRANCH   8  12
ENDBRANCH   6   8
ENDBRANCH   1   2
BRANCH   1  18
ATOM     18  C   UNL     1       0.559   8.739  21.009  0.00  0.00    +0.000 C 
BRANCH  18  22
ATOM     19  C   UNL     1       2.999   6.385  18.143  0.00  0.00    +0.000 C 
ATOM     20  C   UNL     1       3.011   6.006  19.634  0.00  0.00    +0.000 C 
ATOM     21  C   UNL     1       1.835   6.612  20.409  0.00  0.00    +0.000 C 
ATOM     22  C   UNL     1       1.754   8.133  20.234  0.00  0.00    +0.000 C 
ATOM     23  C   UNL     1       1.705   8.492  18.737  0.00  0.00    +0.000 C 
ATOM     24  C   UNL     1       2.890   7.908  17.964  0.00  0.00    +0.000 C 
BRANCH  19  30
ATOM     25  C   UNL     1       6.517   5.972  16.620  0.00  0.00    +0.000 A 
ATOM     26  C   UNL     1       6.453   4.666  16.139  0.00  0.00    +0.000 A 
ATOM     27  C   UNL     1       5.274   3.936  16.275  0.00  0.00    +0.000 A 
ATOM     28  C   UNL     1       4.168   4.501  16.900  0.00  0.00    +0.000 A 
ATOM     29  F   UNL     1       3.056   3.762  17.022  0.00  0.00    +0.000 F 
ATOM     30  C   UNL     1       4.199   5.806  17.410  0.00  0.00    +0.000 A 
ATOM     31  C   UNL     1       5.389   6.535  17.239  0.00  0.00    +0.000 A 
BRANCH  25  33
ATOM     32  C   UNL     1       7.741   7.764  17.590  0.00  0.00    +0.000 C 
ATOM     33  O   UNL     1       7.607   6.796  16.556  0.00  0.00    +0.000 OA
ENDBRANCH  25  33
ENDBRANCH  19  30
ENDBRANCH  18  22
ENDBRANCH   1  18
TORSDOF 10
ENDMDL
MODEL 2
REMARK VINA RESULT:      -8.0      3.132     10.713
REMARK  Name = 
REMARK  11 active torsions:
REMARK  status: ('A' for Active; 'I' for Inactive)
REMARK    1  A    between atoms: C_1  and  O_2
REMARK    2  A    between atoms: O_2  and  C_3
REMARK    3  A    between atoms: C_8  and  C_9
REMARK    4  A    between atoms: C_12  and  C_13
REMARK    5  A    between atoms: C_13  and  O_14
REMARK    6  A    between atoms: O_14  and  C_15
REMARK    7  A    between atoms: C_19  and  C_20
REMARK    8  A    between atoms: C_20  and  C_21
REMARK    9  A    between atoms: C_20  and  C_24
REMARK   10  A    between atoms: C_24  and  C_26
REMARK   11  A    between atoms: C_26  and  O_28
REMARK                            x       y       z     vdW  Elec       q    Type
REMARK                         _______ _______ _______ _____ _____    ______ ____
ROOT
ATOM      1  O   UNL     1       1.227   7.709  20.908  0.00  0.00    +0.000 OA
ENDROOT
BRANCH   1   2
ATOM      2  C   UNL     1       2.012   7.454  19.825  0.00  0.00    +0.000 A 
ATOM      3  C   UNL     1       1.986   8.497  18.892  0.00  0.00    +0.000 A 
ATOM      4  C   UNL     1       2.695   8.410  17.702  0.00  0.00    +0.000 A 
ATOM      5  C   UNL     1       3.458   7.280  17.446  0.00  0.00    +0.000 A 
ATOM      6  C   UNL     1       3.561   6.239  18.394  0.00  0.00    +0.000 A 
ATOM      7  C   UNL     1       2.812   6.329  19.588  0.00  0.00    +0.000 A 
BRANCH   6   8
ATOM      8  C   UNL     1       4.637   5.186  18.123  0.00  0.00    +0.000 C 
BRANCH   8   9
ATOM      9  C   UNL     1       4.122   4.084  17.198  0.00  0.00    +0.000 C 
ATOM     10  C   UNL     1       2.707   3.549  17.206  0.00  0.00    +0.000 C 
ATOM     11  C   UNL     1       3.830   2.679  17.693  0.00  0.00    +0.000 C 
ENDBRANCH   8   9
BRANCH   8  12
ATOM     12  C   UNL     1       6.035   5.704  17.751  0.00  0.00    +0.000 C 
ATOM     13  F   UNL     1       6.344   5.386  16.455  0.00  0.00    +0.000 F 
BRANCH  12  14
ATOM     14  C   UNL     1       7.082   5.124  18.699  0.00  0.00    +0.000 C 
ATOM     15  O   UNL     1       7.195   5.401  19.879  0.00  0.00    +0.000 OA
BRANCH  14  16
ATOM     16  O   UNL     1       7.902   4.238  18.072  0.00  0.00    +0.000 OA
ATOM     17  H   UNL     1       7.789   3.337  18.447  0.00  0.00    +0.000 HD
ENDBRANCH  14  16
ENDBRANCH  12  14
ENDBRANCH   8  12
ENDBRANCH   6   8
ENDBRANCH   1   2
BRANCH   1  18
ATOM     18  C   UNL     1       1.523   8.794  21.781  0.00  0.00    +0.000 C 
BRANCH  18  22
ATOM     19  C   UNL     1      -1.274  12.137  22.627  0.00  0.00    +0.000 C 
ATOM     20  C   UNL     1      -1.482  10.783  23.327  0.00  0.00    +0.000 C 
ATOM     21  C   UNL     1      -0.237   9.888  23.270  0.00  0.00    +0.000 C 
ATOM     22  C   UNL     1       0.260   9.689  21.834  0.00  0.00    +0.000 C 
ATOM     23  C   UNL     1       0.499  11.053  21.162  0.00  0.00    +0.000 C 
ATOM     24  C   UNL     1      -0.748  11.940  21.196  0.00  0.00    +0.000 C 
BRANCH  19  30
ATOM     25  C   UNL     1      -4.946  13.228  23.062  0.00  0.00    +0.000 A 
ATOM     26  C   UNL     1      -4.851  14.599  22.830  0.00  0.00    +0.000 A 
ATOM     27  C   UNL     1      -3.619  15.161  22.503  0.00  0.00    +0.000 A 
ATOM     28  C   UNL     1      -2.484  14.363  22.422  0.00  0.00    +0.000 A 
ATOM     29  F   UNL     1      -1.314  14.944  22.115  0.00  0.00    +0.000 F 
ATOM     30  C   UNL     1      -2.537  12.984  22.663  0.00  0.00    +0.000 A 
ATOM     31  C   UNL     1      -3.794  12.432  22.965  0.00  0.00    +0.000 A 
BRANCH  25  33
ATOM     32  C   UNL     1      -7.204  12.717  22.526  0.00  0.00    +0.000 C 
ATOM     33  O   UNL     1      -6.087  12.551  23.392  0.00  0.00    +0.000 OA
ENDBRANCH  25  33
ENDBRANCH  19  30
ENDBRANCH  18  22
ENDBRANCH   1  18
TORSDOF 10
ENDMDL
MODEL 3
REMARK VINA RESULT:      -7.9      1.471      2.324
REMARK  Name = 
REMARK  11 active torsions:
REMARK  status: ('A' for Active; 'I' for Inactive)
REMARK    1  A    between atoms: C_1  and  O_2
REMARK    2  A    between atoms: O_2  and  C_3
REMARK    3  A    between atoms: C_8  and  C_9
REMARK    4  A    between atoms: C_12  and  C_13
REMARK    5  A    between atoms: C_13  and  O_14
REMARK    6  A    between atoms: O_14  and  C_15
REMARK    7  A    between atoms: C_19  and  C_20
REMARK    8  A    between atoms: C_20  and  C_21
REMARK    9  A    between atoms: C_20  and  C_24
REMARK   10  A    between atoms: C_24  and  C_26
REMARK   11  A    between atoms: C_26  and  O_28
REMARK                            x       y       z     vdW  Elec       q    Type
REMARK                         _______ _______ _______ _____ _____    ______ ____
ROOT
ATOM      1  O   UNL     1       1.019   8.852  21.784  0.00  0.00    +0.000 OA
ENDROOT
BRANCH   1   2
ATOM      2  C   UNL     1       0.166   9.850  21.425  0.00  0.00    +0.000 A 
ATOM      3  C   UNL     1      -0.115  10.719  22.486  0.00  0.00    +0.000 A 
ATOM      4  C   UNL     1      -0.993  11.781  22.326  0.00  0.00    +0.000 A 
ATOM      5  C   UNL     1      -1.584  11.995  21.090  0.00  0.00    +0.000 A 
ATOM      6  C   UNL     1      -1.273  11.179  19.980  0.00  0.00    +0.000 A 
ATOM      7  C   UNL     1      -0.398  10.085  20.164  0.00  0.00    +0.000 A 
BRANCH   6   8
ATOM      8  C   UNL     1      -1.767  11.675  18.620  0.00  0.00    +0.000 C 
BRANCH   8   9
ATOM      9  C   UNL     1      -0.824  12.722  18.029  0.00  0.00    +0.000 C 
ATOM     10  C   UNL     1       0.570  13.008  18.541  0.00  0.00    +0.000 C 
ATOM     11  C   UNL     1      -0.514  14.028  18.737  0.00  0.00    +0.000 C 
ENDBRANCH   8   9
BRANCH   8  12
ATOM     12  C   UNL     1      -2.214  10.604  17.613  0.00  0.00    +0.000 C 
ATOM     13  F   UNL     1      -1.131   9.981  17.051  0.00  0.00    +0.000 F 
BRANCH  12  14
ATOM     14  C   UNL     1      -3.083  11.231  16.526  0.00  0.00    +0.000 C 
ATOM     15  O   UNL     1      -2.986  11.010  15.332  0.00  0.00    +0.000 OA
BRANCH  14  16
ATOM     16  O   UNL     1      -4.005  12.088  17.041  0.00  0.00    +0.000 OA
ATOM     17  H   UNL     1      -4.681  12.316  16.365  0.00  0.00    +0.000 HD
ENDBRANCH  14  16
ENDBRANCH  12  14
ENDBRANCH   8  12
ENDBRANCH   6   8
ENDBRANCH   1   2
BRANCH   1  18
ATOM     18  C   UNL     1       0.802   7.515  21.345  0.00  0.00    +0.000 C 
BRANCH  18  22
ATOM     19  C   UNL     1       3.318   5.831  18.097  0.00  0.00    +0.000 C 
ATOM     20  C   UNL     1       3.392   5.217  19.506  0.00  0.00    +0.000 C 
ATOM     21  C   UNL     1       2.199   5.606  20.386  0.00  0.00    +0.000 C 
ATOM     22  C   UNL     1       2.014   7.126  20.463  0.00  0.00    +0.000 C 
ATOM     23  C   UNL     1       1.903   7.719  19.047  0.00  0.00    +0.000 C 
ATOM     24  C   UNL     1       3.105   7.352  18.172  0.00  0.00    +0.000 C 
BRANCH  19  30
ATOM     25  C   UNL     1       6.818   5.911  16.483  0.00  0.00    +0.000 A 
ATOM     26  C   UNL     1       6.826   4.702  15.790  0.00  0.00    +0.000 A 
ATOM     27  C   UNL     1       5.698   3.883  15.816  0.00  0.00    +0.000 A 
ATOM     28  C   UNL     1       4.574   4.261  16.542  0.00  0.00    +0.000 A 
ATOM     29  F   UNL     1       3.514   3.441  16.551  0.00  0.00    +0.000 F 
ATOM     30  C   UNL     1       4.535   5.463  17.262  0.00  0.00    +0.000 A 
ATOM     31  C   UNL     1       5.672   6.287  17.201  0.00  0.00    +0.000 A 
BRANCH  25  33
ATOM     32  C   UNL     1       7.759   7.826  17.529  0.00  0.00    +0.000 C 
ATOM     33  O   UNL     1       7.852   6.804  16.543  0.00  0.00    +0.000 OA
ENDBRANCH  25  33
ENDBRANCH  19  30
ENDBRANCH  18  22
ENDBRANCH   1  18
TORSDOF 10
ENDMDL
MODEL 4
REMARK VINA RESULT:      -7.9      3.335     10.571
REMARK  Name = 
REMARK  11 active torsions:
REMARK  status: ('A' for Active; 'I' for Inactive)
REMARK    1  A    between atoms: C_1  and  O_2
REMARK    2  A    between atoms: O_2  and  C_3
REMARK    3  A    between atoms: C_8  and  C_9
REMARK    4  A    between atoms: C_12  and  C_13
REMARK    5  A    between atoms: C_13  and  O_14
REMARK    6  A    between atoms: O_14  and  C_15
REMARK    7  A    between atoms: C_19  and  C_20
REMARK    8  A    between atoms: C_20  and  C_21
REMARK    9  A    between atoms: C_20  and  C_24
REMARK   10  A    between atoms: C_24  and  C_26
REMARK   11  A    between atoms: C_26  and  O_28
REMARK                            x       y       z     vdW  Elec       q    Type
REMARK                         _______ _______ _______ _____ _____    ______ ____
ROOT
ATOM      1  O   UNL     1       1.677   7.255  18.618  0.00  0.00    +0.000 OA
ENDROOT
BRANCH   1   2
ATOM      2  C   UNL     1       2.536   6.279  18.211  0.00  0.00    +0.000 A 
ATOM      3  C   UNL     1       1.882   5.070  17.948  0.00  0.00    +0.000 A 
ATOM      4  C   UNL     1       2.591   3.945  17.554  0.00  0.00    +0.000 A 
ATOM      5  C   UNL     1       3.967   4.028  17.400  0.00  0.00    +0.000 A 
ATOM      6  C   UNL     1       4.652   5.248  17.592  0.00  0.00    +0.000 A 
ATOM      7  C   UNL     1       3.920   6.378  18.019  0.00  0.00    +0.000 A 
BRANCH   6   8
ATOM      8  C   UNL     1       6.109   5.283  17.129  0.00  0.00    +0.000 C 
BRANCH   8   9
ATOM      9  C   UNL     1       6.213   5.514  15.622  0.00  0.00    +0.000 C 
ATOM     10  C   UNL     1       5.403   4.773  14.582  0.00  0.00    +0.000 C 
ATOM     11  C   UNL     1       6.878   4.517  14.691  0.00  0.00    +0.000 C 
ENDBRANCH   8   9
BRANCH   8  12
ATOM     12  C   UNL     1       7.079   6.141  17.957  0.00  0.00    +0.000 C 
ATOM     13  F   UNL     1       7.903   6.870  17.140  0.00  0.00    +0.000 F 
BRANCH  12  14
ATOM     14  C   UNL     1       7.906   5.257  18.885  0.00  0.00    +0.000 C 
ATOM     15  O   UNL     1       8.515   4.257  18.549  0.00  0.00    +0.000 OA
BRANCH  14  16
ATOM     16  O   UNL     1       7.897   5.713  20.167  0.00  0.00    +0.000 OA
ATOM     17  H   UNL     1       7.114   5.371  20.650  0.00  0.00    +0.000 HD
ENDBRANCH  14  16
ENDBRANCH  12  14
ENDBRANCH   8  12
ENDBRANCH   6   8
ENDBRANCH   1   2
BRANCH   1  18
ATOM     18  C   UNL     1       1.919   8.620  18.291  0.00  0.00    +0.000 C 
BRANCH  18  22
ATOM     19  C   UNL     1       0.353  11.534  21.252  0.00  0.00    +0.000 C 
ATOM     20  C   UNL     1       0.228  10.027  21.536  0.00  0.00    +0.000 C 
ATOM     21  C   UNL     1       1.159   9.179  20.662  0.00  0.00    +0.000 C 
ATOM     22  C   UNL     1       0.969   9.470  19.169  0.00  0.00    +0.000 C 
ATOM     23  C   UNL     1       1.136  10.976  18.897  0.00  0.00    +0.000 C 
ATOM     24  C   UNL     1       0.190  11.825  19.751  0.00  0.00    +0.000 C 
BRANCH  19  30
ATOM     25  C   UNL     1      -2.634  12.515  23.483  0.00  0.00    +0.000 A 
ATOM     26  C   UNL     1      -2.334  13.845  23.769  0.00  0.00    +0.000 A 
ATOM     27  C   UNL     1      -1.196  14.431  23.219  0.00  0.00    +0.000 A 
ATOM     28  C   UNL     1      -0.352  13.690  22.400  0.00  0.00    +0.000 A 
ATOM     29  F   UNL     1       0.739  14.286  21.899  0.00  0.00    +0.000 F 
ATOM     30  C   UNL     1      -0.613  12.345  22.102  0.00  0.00    +0.000 A 
ATOM     31  C   UNL     1      -1.780  11.780  22.645  0.00  0.00    +0.000 A 
BRANCH  25  33
ATOM     32  C   UNL     1      -4.761  12.582  24.541  0.00  0.00    +0.000 C 
ATOM     33  O   UNL     1      -3.712  11.819  23.956  0.00  0.00    +0.000 OA
ENDBRANCH  25  33
ENDBRANCH  19  30
ENDBRANCH  18  22
ENDBRANCH   1  18
TORSDOF 10
ENDMDL
MODEL 5
REMARK VINA RESULT:      -7.9      1.475      2.068
REMARK  Name = 
REMARK  11 active torsions:
REMARK  status: ('A' for Active; 'I' for Inactive)
REMARK    1  A    between atoms: C_1  and  O_2
REMARK    2  A    between atoms: O_2  and  C_3
REMARK    3  A    between atoms: C_8  and  C_9
REMARK    4  A    between atoms: C_12  and  C_13
REMARK    5  A    between atoms: C_13  and  O_14
REMARK    6  A    between atoms: O_14  and  C_15
REMARK    7  A    between atoms: C_19  and  C_20
REMARK    8  A    between atoms: C_20  and  C_21
REMARK    9  A    between atoms: C_20  and  C_24
REMARK   10  A    between atoms: C_24  and  C_26
REMARK   11  A    between atoms: C_26  and  O_28
REMARK                            x       y       z     vdW  Elec       q    Type
REMARK                         _______ _______ _______ _____ _____    ______ ____
ROOT
ATOM      1  O   UNL     1       0.656  10.447  20.809  0.00  0.00    +0.000 OA
ENDROOT
BRANCH   1   2
ATOM      2  C   UNL     1      -0.235  10.965  19.920  0.00  0.00    +0.000 A 
ATOM      3  C   UNL     1       0.142  12.235  19.468  0.00  0.00    +0.000 A 
ATOM      4  C   UNL     1      -0.657  12.945  18.582  0.00  0.00    +0.000 A 
ATOM      5  C   UNL     1      -1.835  12.375  18.123  0.00  0.00    +0.000 A 
ATOM      6  C   UNL     1      -2.213  11.069  18.506  0.00  0.00    +0.000 A 
ATOM      7  C   UNL     1      -1.404  10.370  19.429  0.00  0.00    +0.000 A 
BRANCH   6   8
ATOM      8  C   UNL     1      -3.375  10.450  17.728  0.00  0.00    +0.000 C 
BRANCH   8   9
ATOM      9  C   UNL     1      -4.494  11.462  17.492  0.00  0.00    +0.000 C 
ATOM     10  C   UNL     1      -5.271  12.155  18.589  0.00  0.00    +0.000 C 
ATOM     11  C   UNL     1      -5.956  11.129  17.733  0.00  0.00    +0.000 C 
ENDBRANCH   8   9
BRANCH   8  12
ATOM     12  C   UNL     1      -3.014   9.623  16.483  0.00  0.00    +0.000 C 
ATOM     13  F   UNL     1      -1.679   9.312  16.476  0.00  0.00    +0.000 F 
BRANCH  12  14
ATOM     14  C   UNL     1      -3.382  10.389  15.216  0.00  0.00    +0.000 C 
ATOM     15  O   UNL     1      -4.245  10.063  14.421  0.00  0.00    +0.000 OA
BRANCH  14  16
ATOM     16  O   UNL     1      -2.625  11.509  15.058  0.00  0.00    +0.000 OA
ATOM     17  H   UNL     1      -3.190  12.312  15.071  0.00  0.00    +0.000 HD
ENDBRANCH  14  16
ENDBRANCH  12  14
ENDBRANCH   8  12
ENDBRANCH   6   8
ENDBRANCH   1   2
BRANCH   1  18
ATOM     18  C   UNL     1       0.615   9.066  21.160  0.00  0.00    +0.000 C 
BRANCH  18  22
ATOM     19  C   UNL     1       2.839   6.548  18.258  0.00  0.00    +0.000 C 
ATOM     20  C   UNL     1       2.812   6.145  19.742  0.00  0.00    +0.000 C 
ATOM     21  C   UNL     1       1.694   6.842  20.526  0.00  0.00    +0.000 C 
ATOM     22  C   UNL     1       1.752   8.367  20.376  0.00  0.00    +0.000 C 
ATOM     23  C   UNL     1       1.739   8.753  18.885  0.00  0.00    +0.000 C 
ATOM     24  C   UNL     1       2.869   8.078  18.104  0.00  0.00    +0.000 C 
BRANCH  19  30
ATOM     25  C   UNL     1       6.293   5.867  16.685  0.00  0.00    +0.000 A 
ATOM     26  C   UNL     1       6.132   4.559  16.232  0.00  0.00    +0.000 A 
ATOM     27  C   UNL     1       4.908   3.914  16.402  0.00  0.00    +0.000 A 
ATOM     28  C   UNL     1       3.855   4.565  17.034  0.00  0.00    +0.000 A 
ATOM     29  F   UNL     1       2.697   3.906  17.189  0.00  0.00    +0.000 F 
ATOM     30  C   UNL     1       3.984   5.874  17.516  0.00  0.00    +0.000 A 
ATOM     31  C   UNL     1       5.217   6.517  17.311  0.00  0.00    +0.000 A 
BRANCH  25  33
ATOM     32  C   UNL     1       7.509   7.782  17.393  0.00  0.00    +0.000 C 
ATOM     33  O   UNL     1       7.435   6.613  16.585  0.00  0.00    +0.000 OA
ENDBRANCH  25  33
ENDBRANCH  19  30
ENDBRANCH  18  22
ENDBRANCH   1  18
TORSDOF 10
ENDMDL
MODEL 6
REMARK VINA RESULT:      -7.8      2.526     10.320
REMARK  Name = 
REMARK  11 active torsions:
REMARK  status: ('A' for Active; 'I' for Inactive)
REMARK    1  A    between atoms: C_1  and  O_2
REMARK    2  A    between atoms: O_2  and  C_3
REMARK    3  A    between atoms: C_8  and  C_9
REMARK    4  A    between atoms: C_12  and  C_13
REMARK    5  A    between atoms: C_13  and  O_14
REMARK    6  A    between atoms: O_14  and  C_15
REMARK    7  A    between atoms: C_19  and  C_20
REMARK    8  A    between atoms: C_20  and  C_21
REMARK    9  A    between atoms: C_20  and  C_24
REMARK   10  A    between atoms: C_24  and  C_26
REMARK   11  A    between atoms: C_26  and  O_28
REMARK                            x       y       z     vdW  Elec       q    Type
REMARK                         _______ _______ _______ _____ _____    ______ ____
ROOT
ATOM      1  O   UNL     1       1.498   9.261  19.458  0.00  0.00    +0.000 OA
ENDROOT
BRANCH   1   2
ATOM      2  C   UNL     1       1.879   7.958  19.560  0.00  0.00    +0.000 A 
ATOM      3  C   UNL     1       1.366   7.342  20.708  0.00  0.00    +0.000 A 
ATOM      4  C   UNL     1       1.671   6.022  21.007  0.00  0.00    +0.000 A 
ATOM      5  C   UNL     1       2.478   5.298  20.143  0.00  0.00    +0.000 A 
ATOM      6  C   UNL     1       2.957   5.865  18.942  0.00  0.00    +0.000 A 
ATOM      7  C   UNL     1       2.662   7.218  18.664  0.00  0.00    +0.000 A 
BRANCH   6   8
ATOM      8  C   UNL     1       3.599   4.896  17.948  0.00  0.00    +0.000 C 
BRANCH   8   9
ATOM      9  C   UNL     1       4.936   4.368  18.464  0.00  0.00    +0.000 C 
ATOM     10  C   UNL     1       5.979   5.210  19.167  0.00  0.00    +0.000 C 
ATOM     11  C   UNL     1       6.255   4.691  17.785  0.00  0.00    +0.000 C 
ENDBRANCH   8   9
BRANCH   8  12
ATOM     12  C   UNL     1       2.689   3.808  17.356  0.00  0.00    +0.000 C 
ATOM     13  F   UNL     1       1.377   4.202  17.383  0.00  0.00    +0.000 F 
BRANCH  12  14
ATOM     14  C   UNL     1       2.862   2.500  18.123  0.00  0.00    +0.000 C 
ATOM     15  O   UNL     1       2.172   2.135  19.059  0.00  0.00    +0.000 OA
BRANCH  14  16
ATOM     16  O   UNL     1       3.896   1.758  17.642  0.00  0.00    +0.000 OA
ATOM     17  H   UNL     1       3.619   1.257  16.844  0.00  0.00    +0.000 HD
ENDBRANCH  14  16
ENDBRANCH  12  14
ENDBRANCH   8  12
ENDBRANCH   6   8
ENDBRANCH   1   2
BRANCH   1  18
ATOM     18  C   UNL     1       0.910   9.756  18.259  0.00  0.00    +0.000 C 
BRANCH  18  22
ATOM     19  C   UNL     1      -3.179  11.483  18.188  0.00  0.00    +0.000 C 
ATOM     20  C   UNL     1      -2.257  11.775  19.384  0.00  0.00    +0.000 C 
ATOM     21  C   UNL     1      -0.783  11.479  19.082  0.00  0.00    +0.000 C 
ATOM     22  C   UNL     1      -0.578  10.048  18.572  0.00  0.00    +0.000 C 
ATOM     23  C   UNL     1      -1.480   9.786  17.352  0.00  0.00    +0.000 C 
ATOM     24  C   UNL     1      -2.956  10.057  17.657  0.00  0.00    +0.000 C 
BRANCH  19  30
ATOM     25  C   UNL     1      -6.462  11.914  20.164  0.00  0.00    +0.000 A 
ATOM     26  C   UNL     1      -7.328  12.345  19.160  0.00  0.00    +0.000 A 
ATOM     27  C   UNL     1      -6.866  12.463  17.852  0.00  0.00    +0.000 A 
ATOM     28  C   UNL     1      -5.542  12.167  17.546  0.00  0.00    +0.000 A 
ATOM     29  F   UNL     1      -5.133  12.304  16.277  0.00  0.00    +0.000 F 
ATOM     30  C   UNL     1      -4.638  11.745  18.530  0.00  0.00    +0.000 A 
ATOM     31  C   UNL     1      -5.131  11.607  19.840  0.00  0.00    +0.000 A 
BRANCH  25  33
ATOM     32  C   UNL     1      -7.846  12.560  21.985  0.00  0.00    +0.000 C 
ATOM     33  O   UNL     1      -6.782  11.757  21.484  0.00  0.00    +0.000 OA
ENDBRANCH  25  33
ENDBRANCH  19  30
ENDBRANCH  18  22
ENDBRANCH   1  18
TORSDOF 10
ENDMDL
MODEL 7
REMARK VINA RESULT:      -7.8      1.979     10.380
REMARK  Name = 
REMARK  11 active torsions:
REMARK  status: ('A' for Active; 'I' for Inactive)
REMARK    1  A    between atoms: C_1  and  O_2
REMARK    2  A    between atoms: O_2  and  C_3
REMARK    3  A    between atoms: C_8  and  C_9
REMARK    4  A    between atoms: C_12  and  C_13
REMARK    5  A    between atoms: C_13  and  O_14
REMARK    6  A    between atoms: O_14  and  C_15
REMARK    7  A    between atoms: C_19  and  C_20
REMARK    8  A    between atoms: C_20  and  C_21
REMARK    9  A    between atoms: C_20  and  C_24
REMARK   10  A    between atoms: C_24  and  C_26
REMARK   11  A    between atoms: C_26  and  O_28
REMARK                            x       y       z     vdW  Elec       q    Type
REMARK                         _______ _______ _______ _____ _____    ______ ____
ROOT
ATOM      1  O   UNL     1       1.476   9.378  19.337  0.00  0.00    +0.000 OA
ENDROOT
BRANCH   1   2
ATOM      2  C   UNL     1       1.872   8.088  19.514  0.00  0.00    +0.000 A 
ATOM      3  C   UNL     1       1.332   7.520  20.675  0.00  0.00    +0.000 A 
ATOM      4  C   UNL     1       1.647   6.221  21.048  0.00  0.00    +0.000 A 
ATOM      5  C   UNL     1       2.491   5.469  20.245  0.00  0.00    +0.000 A 
ATOM      6  C   UNL     1       3.000   5.985  19.034  0.00  0.00    +0.000 A 
ATOM      7  C   UNL     1       2.694   7.318  18.680  0.00  0.00    +0.000 A 
BRANCH   6   8
ATOM      8  C   UNL     1       3.687   4.979  18.109  0.00  0.00    +0.000 C 
BRANCH   8   9
ATOM      9  C   UNL     1       2.669   4.149  17.328  0.00  0.00    +0.000 C 
ATOM     10  C   UNL     1       1.335   3.692  17.875  0.00  0.00    +0.000 C 
ATOM     11  C   UNL     1       2.418   2.682  17.625  0.00  0.00    +0.000 C 
ENDBRANCH   8   9
BRANCH   8  12
ATOM     12  C   UNL     1       4.846   5.508  17.248  0.00  0.00    +0.000 C 
ATOM     13  F   UNL     1       4.808   4.964  15.991  0.00  0.00    +0.000 F 
BRANCH  12  14
ATOM     14  C   UNL     1       6.183   5.198  17.915  0.00  0.00    +0.000 C 
ATOM     15  O   UNL     1       6.357   4.378  18.798  0.00  0.00    +0.000 OA
BRANCH  14  16
ATOM     16  O   UNL     1       7.194   5.954  17.407  0.00  0.00    +0.000 OA
ATOM     17  H   UNL     1       7.313   5.774  16.449  0.00  0.00    +0.000 HD
ENDBRANCH  14  16
ENDBRANCH  12  14
ENDBRANCH   8  12
ENDBRANCH   6   8
ENDBRANCH   1   2
BRANCH   1  18
ATOM     18  C   UNL     1       0.838   9.784  18.129  0.00  0.00    +0.000 C 
BRANCH  18  22
ATOM     19  C   UNL     1      -3.234  11.553  18.137  0.00  0.00    +0.000 C 
ATOM     20  C   UNL     1      -2.269  11.872  19.293  0.00  0.00    +0.000 C 
ATOM     21  C   UNL     1      -0.809  11.550  18.953  0.00  0.00    +0.000 C 
ATOM     22  C   UNL     1      -0.636  10.102  18.482  0.00  0.00    +0.000 C 
ATOM     23  C   UNL     1      -1.580   9.812  17.301  0.00  0.00    +0.000 C 
ATOM     24  C   UNL     1      -3.042  10.110  17.644  0.00  0.00    +0.000 C 
BRANCH  19  30
ATOM     25  C   UNL     1      -6.383  12.414  20.188  0.00  0.00    +0.000 A 
ATOM     26  C   UNL     1      -7.349  12.484  19.186  0.00  0.00    +0.000 A 
ATOM     27  C   UNL     1      -6.994  12.223  17.864  0.00  0.00    +0.000 A 
ATOM     28  C   UNL     1      -5.679  11.908  17.541  0.00  0.00    +0.000 A 
ATOM     29  F   UNL     1      -5.375  11.674  16.256  0.00  0.00    +0.000 F 
ATOM     30  C   UNL     1      -4.678  11.842  18.519  0.00  0.00    +0.000 A 
ATOM     31  C   UNL     1      -5.061  12.082  19.850  0.00  0.00    +0.000 A 
BRANCH  25  33
ATOM     32  C   UNL     1      -7.686  11.966  22.124  0.00  0.00    +0.000 C 
ATOM     33  O   UNL     1      -6.593  12.648  21.519  0.00  0.00    +0.000 OA
ENDBRANCH  25  33
ENDBRANCH  19  30
ENDBRANCH  18  22
ENDBRANCH   1  18
TORSDOF 10
ENDMDL
MODEL 8
REMARK VINA RESULT:      -7.7      2.174      3.343
REMARK  Name = 
REMARK  11 active torsions:
REMARK  status: ('A' for Active; 'I' for Inactive)
REMARK    1  A    between atoms: C_1  and  O_2
REMARK    2  A    between atoms: O_2  and  C_3
REMARK    3  A    between atoms: C_8  and  C_9
REMARK    4  A    between atoms: C_12  and  C_13
REMARK    5  A    between atoms: C_13  and  O_14
REMARK    6  A    between atoms: O_14  and  C_15
REMARK    7  A    between atoms: C_19  and  C_20
REMARK    8  A    between atoms: C_20  and  C_21
REMARK    9  A    between atoms: C_20  and  C_24
REMARK   10  A    between atoms: C_24  and  C_26
REMARK   11  A    between atoms: C_26  and  O_28
REMARK                            x       y       z     vdW  Elec       q    Type
REMARK                         _______ _______ _______ _____ _____    ______ ____
ROOT
ATOM      1  O   UNL     1      -0.377  10.941  19.539  0.00  0.00    +0.000 OA
ENDROOT
BRANCH   1   2
ATOM      2  C   UNL     1      -1.588  11.030  18.923  0.00  0.00    +0.000 A 
ATOM      3  C   UNL     1      -1.648  10.262  17.754  0.00  0.00    +0.000 A 
ATOM      4  C   UNL     1      -2.790  10.250  16.965  0.00  0.00    +0.000 A 
ATOM      5  C   UNL     1      -3.893  10.994  17.354  0.00  0.00    +0.000 A 
ATOM      6  C   UNL     1      -3.892  11.726  18.561  0.00  0.00    +0.000 A 
ATOM      7  C   UNL     1      -2.714  11.752  19.340  0.00  0.00    +0.000 A 
BRANCH   6   8
ATOM      8  C   UNL     1      -5.244  12.276  19.017  0.00  0.00    +0.000 C 
BRANCH   8   9
ATOM      9  C   UNL     1      -6.259  12.286  17.875  0.00  0.00    +0.000 C 
ATOM     10  C   UNL     1      -6.423  13.417  16.883  0.00  0.00    +0.000 C 
ATOM     11  C   UNL     1      -7.500  13.161  17.898  0.00  0.00    +0.000 C 
ENDBRANCH   8   9
BRANCH   8  12
ATOM     12  C   UNL     1      -5.805  11.728  20.339  0.00  0.00    +0.000 C 
ATOM     13  F   UNL     1      -6.993  11.077  20.132  0.00  0.00    +0.000 F 
BRANCH  12  14
ATOM     14  C   UNL     1      -5.995  12.862  21.342  0.00  0.00    +0.000 C 
ATOM     15  O   UNL     1      -6.075  14.045  21.063  0.00  0.00    +0.000 OA
BRANCH  14  16
ATOM     16  O   UNL     1      -6.071  12.405  22.622  0.00  0.00    +0.000 OA
ATOM     17  H   UNL     1      -6.190  11.430  22.634  0.00  0.00    +0.000 HD
ENDBRANCH  14  16
ENDBRANCH  12  14
ENDBRANCH   8  12
ENDBRANCH   6   8
ENDBRANCH   1   2
BRANCH   1  18
ATOM     18  C   UNL     1       0.830  11.078  18.795  0.00  0.00    +0.000 C 
BRANCH  18  22
ATOM     19  C   UNL     1       1.992   6.800  19.038  0.00  0.00    +0.000 C 
ATOM     20  C   UNL     1       1.852   7.620  20.333  0.00  0.00    +0.000 C 
ATOM     21  C   UNL     1       1.058   8.916  20.131  0.00  0.00    +0.000 C 
ATOM     22  C   UNL     1       1.640   9.775  19.003  0.00  0.00    +0.000 C 
ATOM     23  C   UNL     1       1.738   8.951  17.705  0.00  0.00    +0.000 C 
ATOM     24  C   UNL     1       2.549   7.667  17.897  0.00  0.00    +0.000 C 
BRANCH  19  30
ATOM     25  C   UNL     1       4.949   4.329  19.152  0.00  0.00    +0.000 A 
ATOM     26  C   UNL     1       4.363   3.233  19.782  0.00  0.00    +0.000 A 
ATOM     27  C   UNL     1       3.017   3.278  20.136  0.00  0.00    +0.000 A 
ATOM     28  C   UNL     1       2.261   4.416  19.878  0.00  0.00    +0.000 A 
ATOM     29  F   UNL     1       0.971   4.425  20.245  0.00  0.00    +0.000 F 
ATOM     30  C   UNL     1       2.819   5.543  19.259  0.00  0.00    +0.000 A 
ATOM     31  C   UNL     1       4.172   5.468  18.885  0.00  0.00    +0.000 A 
BRANCH  25  33
ATOM     32  C   UNL     1       6.917   5.654  19.004  0.00  0.00    +0.000 C 
ATOM     33  O   UNL     1       6.255   4.419  18.754  0.00  0.00    +0.000 OA
ENDBRANCH  25  33
ENDBRANCH  19  30
ENDBRANCH  18  22
ENDBRANCH   1  18
TORSDOF 10
ENDMDL
MODEL 9
REMARK VINA RESULT:      -7.6      2.383     10.215
REMARK  Name = 
REMARK  11 active torsions:
REMARK  status: ('A' for Active; 'I' for Inactive)
REMARK    1  A    between atoms: C_1  and  O_2
REMARK    2  A    between atoms: O_2  and  C_3
REMARK    3  A    between atoms: C_8  and  C_9
REMARK    4  A    between atoms: C_12  and  C_13
REMARK    5  A    between atoms: C_13  and  O_14
REMARK    6  A    between atoms: O_14  and  C_15
REMARK    7  A    between atoms: C_19  and  C_20
REMARK    8  A    between atoms: C_20  and  C_21
REMARK    9  A    between atoms: C_20  and  C_24
REMARK   10  A    between atoms: C_24  and  C_26
REMARK   11  A    between atoms: C_26  and  O_28
REMARK                            x       y       z     vdW  Elec       q    Type
REMARK                         _______ _______ _______ _____ _____    ______ ____
ROOT
ATOM      1  O   UNL     1       1.424   9.663  18.569  0.00  0.00    +0.000 OA
ENDROOT
BRANCH   1   2
ATOM      2  C   UNL     1       1.885   8.431  18.920  0.00  0.00    +0.000 A 
ATOM      3  C   UNL     1       1.453   8.044  20.194  0.00  0.00    +0.000 A 
ATOM      4  C   UNL     1       1.847   6.832  20.745  0.00  0.00    +0.000 A 
ATOM      5  C   UNL     1       2.664   5.986  20.011  0.00  0.00    +0.000 A 
ATOM      6  C   UNL     1       3.065   6.314  18.697  0.00  0.00    +0.000 A 
ATOM      7  C   UNL     1       2.678   7.562  18.160  0.00  0.00    +0.000 A 
BRANCH   6   8
ATOM      8  C   UNL     1       3.727   5.192  17.895  0.00  0.00    +0.000 C 
BRANCH   8   9
ATOM      9  C   UNL     1       4.994   5.678  17.193  0.00  0.00    +0.000 C 
ATOM     10  C   UNL     1       5.011   6.534  15.946  0.00  0.00    +0.000 C 
ATOM     11  C   UNL     1       5.460   5.103  15.868  0.00  0.00    +0.000 C 
ENDBRANCH   8   9
BRANCH   8  12
ATOM     12  C   UNL     1       3.889   3.838  18.602  0.00  0.00    +0.000 C 
ATOM     13  F   UNL     1       5.214   3.536  18.778  0.00  0.00    +0.000 F 
BRANCH  12  14
ATOM     14  C   UNL     1       3.202   2.737  17.799  0.00  0.00    +0.000 C 
ATOM     15  O   UNL     1       3.437   1.545  17.892  0.00  0.00    +0.000 OA
BRANCH  14  16
ATOM     16  O   UNL     1       2.271   3.236  16.942  0.00  0.00    +0.000 OA
ATOM     17  H   UNL     1       2.703   3.649  16.163  0.00  0.00    +0.000 HD
ENDBRANCH  14  16
ENDBRANCH  12  14
ENDBRANCH   8  12
ENDBRANCH   6   8
ENDBRANCH   1   2
BRANCH   1  18
ATOM     18  C   UNL     1       1.095  10.628  19.565  0.00  0.00    +0.000 C 
BRANCH  18  22
ATOM     19  C   UNL     1      -3.052  11.894  18.615  0.00  0.00    +0.000 C 
ATOM     20  C   UNL     1      -2.418  12.324  19.950  0.00  0.00    +0.000 C 
ATOM     21  C   UNL     1      -0.892  12.181  19.954  0.00  0.00    +0.000 C 
ATOM     22  C   UNL     1      -0.447  10.765  19.570  0.00  0.00    +0.000 C 
ATOM     23  C   UNL     1      -1.059  10.367  18.214  0.00  0.00    +0.000 C 
ATOM     24  C   UNL     1      -2.586  10.485  18.214  0.00  0.00    +0.000 C 
BRANCH  19  30
ATOM     25  C   UNL     1      -6.667  12.289  19.896  0.00  0.00    +0.000 A 
ATOM     26  C   UNL     1      -7.378  12.323  18.698  0.00  0.00    +0.000 A 
ATOM     27  C   UNL     1      -6.701  12.186  17.488  0.00  0.00    +0.000 A 
ATOM     28  C   UNL     1      -5.319  12.030  17.472  0.00  0.00    +0.000 A 
ATOM     29  F   UNL     1      -4.702  11.913  16.287  0.00  0.00    +0.000 F 
ATOM     30  C   UNL     1      -4.569  12.006  18.656  0.00  0.00    +0.000 A 
ATOM     31  C   UNL     1      -5.274  12.119  19.867  0.00  0.00    +0.000 A 
BRANCH  25  33
ATOM     32  C   UNL     1      -6.301  12.720  22.205  0.00  0.00    +0.000 C 
ATOM     33  O   UNL     1      -7.204  12.414  21.148  0.00  0.00    +0.000 OA
ENDBRANCH  25  33
ENDBRANCH  19  30
ENDBRANCH  18  22
ENDBRANCH   1  18
TORSDOF 10
ENDMDL
