MODEL 1
REMARK VINA RESULT:      -6.7      0.000      0.000
REMARK  Name = 
REMARK  13 active torsions:
REMARK  status: ('A' for Active; 'I' for Inactive)
REMARK    1  A    between atoms: C_1  and  O_2
REMARK    2  A    between atoms: O_2  and  C_3
REMARK    3  A    between atoms: C_6  and  C_7
REMARK    4  A    between atoms: C_7  and  C_8
REMARK    5  A    between atoms: C_8  and  N_9
REMARK    6  A    between atoms: N_12  and  N_13
REMARK    7  A    between atoms: N_13  and  S_14
REMARK    8  A    between atoms: S_14  and  C_15
REMARK    9  A    between atoms: C_19  and  C_20
REMARK   10  A    between atoms: C_23  and  O_24
REMARK   11  A    between atoms: O_24  and  C_25
REMARK   12  A    between atoms: C_25  and  C_26
REMARK   13  A    between atoms: C_25  and  C_27
REMARK                            x       y       z     vdW  Elec       q    Type
REMARK                         _______ _______ _______ _____ _____    ______ ____
ROOT
ATOM      1  N   UNL     1      -0.253  10.780  18.857  0.00  0.00    +0.000 N 
ATOM      2  C   UNL     1      -1.508  10.543  18.278  0.00  0.00    +0.000 C 
ATOM      3  O   UNL     1      -1.975   9.488  17.880  0.00  0.00    +0.000 OA
ATOM      4  N   UNL     1      -2.131  11.787  18.136  0.00  0.00    +0.000 N 
ATOM      5  C   UNL     1      -1.268  12.872  18.524  0.00  0.00    +0.000 C 
ATOM      6  C   UNL     1      -0.253  12.134  19.424  0.00  0.00    +0.000 C 
ENDROOT
BRANCH   6   7
ATOM      7  C   UNL     1       1.110  12.773  19.499  0.00  0.00    +0.000 A 
ATOM      8  C   UNL     1       1.805  13.108  18.328  0.00  0.00    +0.000 A 
ATOM      9  C   UNL     1       3.040  13.762  18.399  0.00  0.00    +0.000 A 
ATOM     10  C   UNL     1       3.589  14.113  19.634  0.00  0.00    +0.000 A 
ATOM     11  C   UNL     1       2.905  13.777  20.798  0.00  0.00    +0.000 A 
ATOM     12  C   UNL     1       1.689  13.094  20.734  0.00  0.00    +0.000 A 
BRANCH  10  13
ATOM     13  O   UNL     1       4.813  14.719  19.586  0.00  0.00    +0.000 OA
BRANCH  13  14
ATOM     14  C   UNL     1       5.139  15.470  18.408  0.00  0.00    +0.000 C 
ATOM     15  C   UNL     1       5.366  16.945  18.741  0.00  0.00    +0.000 C 
ATOM     16  C   UNL     1       6.444  14.884  17.868  0.00  0.00    +0.000 C 
ENDBRANCH  13  14
ENDBRANCH  10  13
ENDBRANCH   6   7
BRANCH   4  17
ATOM     17  N   UNL     1      -3.272  11.930  17.266  0.00  0.00    +0.000 NA
ATOM     18  H   UNL     1      -3.214  12.744  16.639  0.00  0.00    +0.000 HD
BRANCH  17  19
ATOM     19  S   UNL     1      -4.845  11.737  17.857  0.00  0.00    +0.000 S 
ATOM     20  C   UNL     1      -4.727  12.499  19.468  0.00  0.00    +0.000 C 
ATOM     21  O   UNL     1      -5.696  12.575  17.041  0.00  0.00    +0.000 OA
ATOM     22  O   UNL     1      -5.109  10.326  18.038  0.00  0.00    +0.000 OA
ENDBRANCH  17  19
ENDBRANCH   4  17
BRANCH   1  23
ATOM     23  C   UNL     1       0.669   9.721  19.269  0.00  0.00    +0.000 C 
BRANCH  23  24
ATOM     24  C   UNL     1       1.604   9.302  18.127  0.00  0.00    +0.000 C 
BRANCH  24  28
ATOM     25  C   UNL     1       3.798   5.661  18.851  0.00  0.00    +0.000 A 
ATOM     26  C   UNL     1       2.860   6.124  19.774  0.00  0.00    +0.000 A 
ATOM     27  C   UNL     1       2.168   7.309  19.546  0.00  0.00    +0.000 A 
ATOM     28  C   UNL     1       2.415   8.063  18.393  0.00  0.00    +0.000 A 
ATOM     29  C   UNL     1       3.374   7.610  17.477  0.00  0.00    +0.000 A 
ATOM     30  C   UNL     1       4.065   6.416  17.712  0.00  0.00    +0.000 A 
BRANCH  25  32
ATOM     31  C   UNL     1       4.069   3.370  18.362  0.00  0.00    +0.000 C 
ATOM     32  O   UNL     1       4.405   4.481  19.182  0.00  0.00    +0.000 OA
ENDBRANCH  25  32
ENDBRANCH  24  28
ENDBRANCH  23  24
ENDBRANCH   1  23
TORSDOF 9
ENDMDL
MODEL 2
REMARK VINA RESULT:      -6.6      0.487      1.316
REMARK  Name = 
REMARK  13 active torsions:
REMARK  status: ('A' for Active; 'I' for Inactive)
REMARK    1  A    between atoms: C_1  and  O_2
REMARK    2  A    between atoms: O_2  and  C_3
REMARK    3  A    between atoms: C_6  and  C_7
REMARK    4  A    between atoms: C_7  and  C_8
REMARK    5  A    between atoms: C_8  and  N_9
REMARK    6  A    between atoms: N_12  and  N_13
REMARK    7  A    between atoms: N_13  and  S_14
REMARK    8  A    between atoms: S_14  and  C_15
REMARK    9  A    between atoms: C_19  and  C_20
REMARK   10  A    between atoms: C_23  and  O_24
REMARK   11  A    between atoms: O_24  and  C_25
REMARK   12  A    between atoms: C_25  and  C_26
REMARK   13  A    between atoms: C_25  and  C_27
REMARK                            x       y       z     vdW  Elec       q    Type
REMARK                         _______ _______ _______ _____ _____    ______ ____
ROOT
ATOM      1  N   UNL     1       0.273  11.008  18.747  0.00  0.00    +0.000 N 
ATOM      2  C   UNL     1      -0.956  10.656  18.169  0.00  0.00    +0.000 C 
ATOM      3  O   UNL     1      -1.329   9.560  17.783  0.00  0.00    +0.000 OA
ATOM      4  N   UNL     1      -1.685  11.839  18.014  0.00  0.00    +0.000 N 
ATOM      5  C   UNL     1      -0.920  12.999  18.390  0.00  0.00    +0.000 C 
ATOM      6  C   UNL     1       0.154  12.363  19.298  0.00  0.00    +0.000 C 
ENDROOT
BRANCH   6   7
ATOM      7  C   UNL     1       1.457  13.119  19.366  0.00  0.00    +0.000 A 
ATOM      8  C   UNL     1       2.033  13.436  20.605  0.00  0.00    +0.000 A 
ATOM      9  C   UNL     1       3.274  14.079  20.665  0.00  0.00    +0.000 A 
ATOM     10  C   UNL     1       3.971  14.392  19.496  0.00  0.00    +0.000 A 
ATOM     11  C   UNL     1       3.399  14.085  18.265  0.00  0.00    +0.000 A 
ATOM     12  C   UNL     1       2.145  13.475  18.199  0.00  0.00    +0.000 A 
BRANCH  10  13
ATOM     13  O   UNL     1       5.157  15.046  19.672  0.00  0.00    +0.000 OA
BRANCH  13  14
ATOM     14  C   UNL     1       5.728  15.710  18.536  0.00  0.00    +0.000 C 
ATOM     15  C   UNL     1       6.265  17.090  18.917  0.00  0.00    +0.000 C 
ATOM     16  C   UNL     1       6.898  14.841  18.070  0.00  0.00    +0.000 C 
ENDBRANCH  13  14
ENDBRANCH  10  13
ENDBRANCH   6   7
BRANCH   4  17
ATOM     17  N   UNL     1      -2.833  11.872  17.143  0.00  0.00    +0.000 NA
ATOM     18  H   UNL     1      -2.857  12.693  16.522  0.00  0.00    +0.000 HD
BRANCH  17  19
ATOM     19  S   UNL     1      -4.379  11.515  17.729  0.00  0.00    +0.000 S 
ATOM     20  C   UNL     1      -4.347  12.286  19.339  0.00  0.00    +0.000 C 
ATOM     21  O   UNL     1      -5.310  12.259  16.909  0.00  0.00    +0.000 OA
ATOM     22  O   UNL     1      -4.495  10.084  17.909  0.00  0.00    +0.000 OA
ENDBRANCH  17  19
ENDBRANCH   4  17
BRANCH   1  23
ATOM     23  C   UNL     1       1.283  10.037  19.170  0.00  0.00    +0.000 C 
BRANCH  23  24
ATOM     24  C   UNL     1       1.937   9.334  17.973  0.00  0.00    +0.000 C 
BRANCH  24  28
ATOM     25  C   UNL     1       3.794   5.553  18.892  0.00  0.00    +0.000 A 
ATOM     26  C   UNL     1       4.120   6.241  17.723  0.00  0.00    +0.000 A 
ATOM     27  C   UNL     1       3.504   7.451  17.420  0.00  0.00    +0.000 A 
ATOM     28  C   UNL     1       2.537   7.989  18.278  0.00  0.00    +0.000 A 
ATOM     29  C   UNL     1       2.194   7.286  19.441  0.00  0.00    +0.000 A 
ATOM     30  C   UNL     1       2.819   6.069  19.740  0.00  0.00    +0.000 A 
BRANCH  25  32
ATOM     31  C   UNL     1       4.327   3.414  18.052  0.00  0.00    +0.000 C 
ATOM     32  O   UNL     1       4.473   4.382  19.083  0.00  0.00    +0.000 OA
ENDBRANCH  25  32
ENDBRANCH  24  28
ENDBRANCH  23  24
ENDBRANCH   1  23
TORSDOF 9
ENDMDL
MODEL 3
REMARK VINA RESULT:      -6.6      4.259      8.200
REMARK  Name = 
REMARK  13 active torsions:
REMARK  status: ('A' for Active; 'I' for Inactive)
REMARK    1  A    between atoms: C_1  and  O_2
REMARK    2  A    between atoms: O_2  and  C_3
REMARK    3  A    between atoms: C_6  and  C_7
REMARK    4  A    between atoms: C_7  and  C_8
REMARK    5  A    between atoms: C_8  and  N_9
REMARK    6  A    between atoms: N_12  and  N_13
REMARK    7  A    between atoms: N_13  and  S_14
REMARK    8  A    between atoms: S_14  and  C_15
REMARK    9  A    between atoms: C_19  and  C_20
REMARK   10  A    between atoms: C_23  and  O_24
REMARK   11  A    between atoms: O_24  and  C_25
REMARK   12  A    between atoms: C_25  and  C_26
REMARK   13  A    between atoms: C_25  and  C_27
REMARK                            x       y       z     vdW  Elec       q    Type
REMARK                         _______ _______ _______ _____ _____    ______ ____
ROOT
ATOM      1  N   UNL     1       2.178   7.262  19.138  0.00  0.00    +0.000 N 
ATOM      2  C   UNL     1       2.517   6.033  18.553  0.00  0.00    +0.000 C 
ATOM      3  O   UNL     1       2.847   5.804  17.401  0.00  0.00    +0.000 OA
ATOM      4  N   UNL     1       2.315   5.050  19.528  0.00  0.00    +0.000 N 
ATOM      5  C   UNL     1       1.748   5.594  20.734  0.00  0.00    +0.000 C 
ATOM      6  C   UNL     1       2.128   7.083  20.594  0.00  0.00    +0.000 C 
ENDROOT
BRANCH   6   7
ATOM      7  C   UNL     1       1.205   8.042  21.303  0.00  0.00    +0.000 A 
ATOM      8  C   UNL     1       1.724   9.118  22.038  0.00  0.00    +0.000 A 
ATOM      9  C   UNL     1       0.866  10.045  22.638  0.00  0.00    +0.000 A 
ATOM     10  C   UNL     1      -0.518   9.930  22.496  0.00  0.00    +0.000 A 
ATOM     11  C   UNL     1      -1.037   8.860  21.773  0.00  0.00    +0.000 A 
ATOM     12  C   UNL     1      -0.186   7.912  21.201  0.00  0.00    +0.000 A 
BRANCH  10  13
ATOM     13  O   UNL     1      -1.260  10.872  23.151  0.00  0.00    +0.000 OA
BRANCH  13  14
ATOM     14  C   UNL     1      -1.636  12.049  22.423  0.00  0.00    +0.000 C 
ATOM     15  C   UNL     1      -3.149  12.262  22.464  0.00  0.00    +0.000 C 
ATOM     16  C   UNL     1      -0.957  13.227  23.123  0.00  0.00    +0.000 C 
ENDBRANCH  13  14
ENDBRANCH  10  13
ENDBRANCH   6   7
BRANCH   4  17
ATOM     17  N   UNL     1       2.238   3.661  19.149  0.00  0.00    +0.000 NA
ATOM     18  H   UNL     1       1.310   3.242  19.301  0.00  0.00    +0.000 HD
BRANCH  17  19
ATOM     19  S   UNL     1       3.464   2.576  19.572  0.00  0.00    +0.000 S 
ATOM     20  C   UNL     1       4.933   3.524  19.210  0.00  0.00    +0.000 C 
ATOM     21  O   UNL     1       3.394   2.415  21.008  0.00  0.00    +0.000 OA
ATOM     22  O   UNL     1       3.419   1.442  18.673  0.00  0.00    +0.000 OA
ENDBRANCH  17  19
ENDBRANCH   4  17
BRANCH   1  23
ATOM     23  C   UNL     1       2.354   8.556  18.477  0.00  0.00    +0.000 C 
BRANCH  23  24
ATOM     24  C   UNL     1       1.077   9.006  17.755  0.00  0.00    +0.000 C 
BRANCH  24  28
ATOM     25  C   UNL     1      -0.640  12.706  19.152  0.00  0.00    +0.000 A 
ATOM     26  C   UNL     1       0.733  12.477  19.246  0.00  0.00    +0.000 A 
ATOM     27  C   UNL     1       1.281  11.275  18.812  0.00  0.00    +0.000 A 
ATOM     28  C   UNL     1       0.459  10.270  18.288  0.00  0.00    +0.000 A 
ATOM     29  C   UNL     1      -0.923  10.491  18.215  0.00  0.00    +0.000 A 
ATOM     30  C   UNL     1      -1.467  11.705  18.651  0.00  0.00    +0.000 A 
BRANCH  25  32
ATOM     31  C   UNL     1      -0.021  14.858  19.896  0.00  0.00    +0.000 C 
ATOM     32  O   UNL     1      -1.056  13.929  19.601  0.00  0.00    +0.000 OA
ENDBRANCH  25  32
ENDBRANCH  24  28
ENDBRANCH  23  24
ENDBRANCH   1  23
TORSDOF 9
ENDMDL
MODEL 4
REMARK VINA RESULT:      -6.5      4.053      7.569
REMARK  Name = 
REMARK  13 active torsions:
REMARK  status: ('A' for Active; 'I' for Inactive)
REMARK    1  A    between atoms: C_1  and  O_2
REMARK    2  A    between atoms: O_2  and  C_3
REMARK    3  A    between atoms: C_6  and  C_7
REMARK    4  A    between atoms: C_7  and  C_8
REMARK    5  A    between atoms: C_8  and  N_9
REMARK    6  A    between atoms: N_12  and  N_13
REMARK    7  A    between atoms: N_13  and  S_14
REMARK    8  A    between atoms: S_14  and  C_15
REMARK    9  A    between atoms: C_19  and  C_20
REMARK   10  A    between atoms: C_23  and  O_24
REMARK   11  A    between atoms: O_24  and  C_25
REMARK   12  A    between atoms: C_25  and  C_26
REMARK   13  A    between atoms: C_25  and  C_27
REMARK                            x       y       z     vdW  Elec       q    Type
REMARK                         _______ _______ _______ _____ _____    ______ ____
ROOT
ATOM      1  N   UNL     1       2.057   7.675  19.394  0.00  0.00    +0.000 N 
ATOM      2  C   UNL     1       3.040   6.681  19.275  0.00  0.00    +0.000 C 
ATOM      3  O   UNL     1       3.359   5.826  20.085  0.00  0.00    +0.000 OA
ATOM      4  N   UNL     1       3.690   6.898  18.057  0.00  0.00    +0.000 N 
ATOM      5  C   UNL     1       3.222   8.089  17.398  0.00  0.00    +0.000 C 
ATOM      6  C   UNL     1       1.847   8.278  18.073  0.00  0.00    +0.000 C 
ENDROOT
BRANCH   6   7
ATOM      7  C   UNL     1       1.352   9.702  18.115  0.00  0.00    +0.000 A 
ATOM      8  C   UNL     1      -0.023   9.978  18.139  0.00  0.00    +0.000 A 
ATOM      9  C   UNL     1      -0.479  11.296  18.246  0.00  0.00    +0.000 A 
ATOM     10  C   UNL     1       0.424  12.355  18.357  0.00  0.00    +0.000 A 
ATOM     11  C   UNL     1       1.789  12.085  18.327  0.00  0.00    +0.000 A 
ATOM     12  C   UNL     1       2.250  10.775  18.186  0.00  0.00    +0.000 A 
BRANCH  10  13
ATOM     13  O   UNL     1      -0.132  13.601  18.424  0.00  0.00    +0.000 OA
BRANCH  13  14
ATOM     14  C   UNL     1       0.376  14.505  19.415  0.00  0.00    +0.000 C 
ATOM     15  C   UNL     1       1.242  15.592  18.777  0.00  0.00    +0.000 C 
ATOM     16  C   UNL     1      -0.841  15.166  20.063  0.00  0.00    +0.000 C 
ENDBRANCH  13  14
ENDBRANCH  10  13
ENDBRANCH   6   7
BRANCH   4  17
ATOM     17  N   UNL     1       4.964   6.274  17.796  0.00  0.00    +0.000 NA
ATOM     18  H   UNL     1       5.769   6.890  17.970  0.00  0.00    +0.000 HD
BRANCH  17  19
ATOM     19  S   UNL     1       5.207   5.345  16.403  0.00  0.00    +0.000 S 
ATOM     20  C   UNL     1       6.816   4.635  16.713  0.00  0.00    +0.000 C 
ATOM     21  O   UNL     1       4.241   4.270  16.452  0.00  0.00    +0.000 OA
ATOM     22  O   UNL     1       5.309   6.229  15.261  0.00  0.00    +0.000 OA
ENDBRANCH  17  19
ENDBRANCH   4  17
BRANCH   1  23
ATOM     23  C   UNL     1       1.083   7.732  20.485  0.00  0.00    +0.000 C 
BRANCH  23  24
ATOM     24  C   UNL     1       1.589   8.582  21.658  0.00  0.00    +0.000 C 
BRANCH  24  28
ATOM     25  C   UNL     1      -1.159  11.712  22.773  0.00  0.00    +0.000 A 
ATOM     26  C   UNL     1      -0.084  11.977  21.925  0.00  0.00    +0.000 A 
ATOM     27  C   UNL     1       0.812  10.969  21.583  0.00  0.00    +0.000 A 
ATOM     28  C   UNL     1       0.655   9.677  22.098  0.00  0.00    +0.000 A 
ATOM     29  C   UNL     1      -0.412   9.417  22.969  0.00  0.00    +0.000 A 
ATOM     30  C   UNL     1      -1.310  10.435  23.307  0.00  0.00    +0.000 A 
BRANCH  25  32
ATOM     31  C   UNL     1      -1.327  13.935  23.543  0.00  0.00    +0.000 C 
ATOM     32  O   UNL     1      -1.974  12.780  23.026  0.00  0.00    +0.000 OA
ENDBRANCH  25  32
ENDBRANCH  24  28
ENDBRANCH  23  24
ENDBRANCH   1  23
TORSDOF 9
ENDMDL
MODEL 5
REMARK VINA RESULT:      -6.4      3.819      7.442
REMARK  Name = 
REMARK  13 active torsions:
REMARK  status: ('A' for Active; 'I' for Inactive)
REMARK    1  A    between atoms: C_1  and  O_2
REMARK    2  A    between atoms: O_2  and  C_3
REMARK    3  A    between atoms: C_6  and  C_7
REMARK    4  A    between atoms: C_7  and  C_8
REMARK    5  A    between atoms: C_8  and  N_9
REMARK    6  A    between atoms: N_12  and  N_13
REMARK    7  A    between atoms: N_13  and  S_14
REMARK    8  A    between atoms: S_14  and  C_15
REMARK    9  A    between atoms: C_19  and  C_20
REMARK   10  A    between atoms: C_23  and  O_24
REMARK   11  A    between atoms: O_24  and  C_25
REMARK   12  A    between atoms: C_25  and  C_26
REMARK   13  A    between atoms: C_25  and  C_27
REMARK                            x       y       z     vdW  Elec       q    Type
REMARK                         _______ _______ _______ _____ _____    ______ ____
ROOT
ATOM      1  N   UNL     1       0.826   8.995  20.066  0.00  0.00    +0.000 N 
ATOM      2  C   UNL     1       1.606   7.828  20.052  0.00  0.00    +0.000 C 
ATOM      3  O   UNL     1       1.748   6.998  20.935  0.00  0.00    +0.000 OA
ATOM      4  N   UNL     1       2.300   7.819  18.839  0.00  0.00    +0.000 N 
ATOM      5  C   UNL     1       2.073   9.018  18.076  0.00  0.00    +0.000 C 
ATOM      6  C   UNL     1       0.750   9.516  18.696  0.00  0.00    +0.000 C 
ENDROOT
BRANCH   6   7
ATOM      7  C   UNL     1       0.532  11.006  18.613  0.00  0.00    +0.000 A 
ATOM      8  C   UNL     1      -0.754  11.527  18.407  0.00  0.00    +0.000 A 
ATOM      9  C   UNL     1      -0.964  12.910  18.398  0.00  0.00    +0.000 A 
ATOM     10  C   UNL     1       0.095  13.792  18.617  0.00  0.00    +0.000 A 
ATOM     11  C   UNL     1       1.373  13.279  18.814  0.00  0.00    +0.000 A 
ATOM     12  C   UNL     1       1.595  11.901  18.790  0.00  0.00    +0.000 A 
BRANCH  10  13
ATOM     13  O   UNL     1      -0.220  15.121  18.554  0.00  0.00    +0.000 OA
BRANCH  13  14
ATOM     14  C   UNL     1       0.640  16.042  19.239  0.00  0.00    +0.000 C 
ATOM     15  C   UNL     1       1.230  17.068  18.271  0.00  0.00    +0.000 C 
ATOM     16  C   UNL     1      -0.235  16.777  20.256  0.00  0.00    +0.000 C 
ENDBRANCH  13  14
ENDBRANCH  10  13
ENDBRANCH   6   7
BRANCH   4  17
ATOM     17  N   UNL     1       3.437   6.949  18.663  0.00  0.00    +0.000 NA
ATOM     18  H   UNL     1       4.268   7.425  18.286  0.00  0.00    +0.000 HD
BRANCH  17  19
ATOM     19  S   UNL     1       3.258   5.415  17.974  0.00  0.00    +0.000 S 
ATOM     20  C   UNL     1       3.880   4.356  19.270  0.00  0.00    +0.000 C 
ATOM     21  O   UNL     1       1.836   5.177  17.863  0.00  0.00    +0.000 OA
ATOM     22  O   UNL     1       4.141   5.307  16.832  0.00  0.00    +0.000 OA
ENDBRANCH  17  19
ENDBRANCH   4  17
BRANCH   1  23
ATOM     23  C   UNL     1      -0.133   9.323  21.121  0.00  0.00    +0.000 C 
BRANCH  23  24
ATOM     24  C   UNL     1       0.397  10.422  22.053  0.00  0.00    +0.000 C 
BRANCH  24  28
ATOM     25  C   UNL     1      -2.388  13.529  23.140  0.00  0.00    +0.000 A 
ATOM     26  C   UNL     1      -2.646  12.197  23.461  0.00  0.00    +0.000 A 
ATOM     27  C   UNL     1      -1.755  11.194  23.092  0.00  0.00    +0.000 A 
ATOM     28  C   UNL     1      -0.592  11.508  22.378  0.00  0.00    +0.000 A 
ATOM     29  C   UNL     1      -0.344  12.844  22.035  0.00  0.00    +0.000 A 
ATOM     30  C   UNL     1      -1.244  13.848  22.412  0.00  0.00    +0.000 A 
BRANCH  25  32
ATOM     31  C   UNL     1      -3.182  14.881  24.903  0.00  0.00    +0.000 C 
ATOM     32  O   UNL     1      -3.332  14.422  23.565  0.00  0.00    +0.000 OA
ENDBRANCH  25  32
ENDBRANCH  24  28
ENDBRANCH  23  24
ENDBRANCH   1  23
TORSDOF 9
ENDMDL
MODEL 6
REMARK VINA RESULT:      -6.4      3.295      7.993
REMARK  Name = 
REMARK  13 active torsions:
REMARK  status: ('A' for Active; 'I' for Inactive)
REMARK    1  A    between atoms: C_1  and  O_2
REMARK    2  A    between atoms: O_2  and  C_3
REMARK    3  A    between atoms: C_6  and  C_7
REMARK    4  A    between atoms: C_7  and  C_8
REMARK    5  A    between atoms: C_8  and  N_9
REMARK    6  A    between atoms: N_12  and  N_13
REMARK    7  A    between atoms: N_13  and  S_14
REMARK    8  A    between atoms: S_14  and  C_15
REMARK    9  A    between atoms: C_19  and  C_20
REMARK   10  A    between atoms: C_23  and  O_24
REMARK   11  A    between atoms: O_24  and  C_25
REMARK   12  A    between atoms: C_25  and  C_26
REMARK   13  A    between atoms: C_25  and  C_27
REMARK                            x       y       z     vdW  Elec       q    Type
REMARK                         _______ _______ _______ _____ _____    ______ ____
ROOT
ATOM      1  N   UNL     1      -0.133  11.107  19.935  0.00  0.00    +0.000 N 
ATOM      2  C   UNL     1      -1.065  11.933  19.290  0.00  0.00    +0.000 C 
ATOM      3  O   UNL     1      -1.805  12.772  19.778  0.00  0.00    +0.000 OA
ATOM      4  N   UNL     1      -1.077  11.556  17.943  0.00  0.00    +0.000 N 
ATOM      5  C   UNL     1      -0.234  10.416  17.693  0.00  0.00    +0.000 C 
ATOM      6  C   UNL     1       0.709  10.473  18.914  0.00  0.00    +0.000 C 
ENDROOT
BRANCH   6   7
ATOM      7  C   UNL     1       1.290   9.145  19.329  0.00  0.00    +0.000 A 
ATOM      8  C   UNL     1       1.012   8.611  20.595  0.00  0.00    +0.000 A 
ATOM      9  C   UNL     1       1.496   7.348  20.953  0.00  0.00    +0.000 A 
ATOM     10  C   UNL     1       2.243   6.590  20.049  0.00  0.00    +0.000 A 
ATOM     11  C   UNL     1       2.526   7.120  18.794  0.00  0.00    +0.000 A 
ATOM     12  C   UNL     1       2.074   8.394  18.444  0.00  0.00    +0.000 A 
BRANCH  10  13
ATOM     13  O   UNL     1       2.691   5.386  20.515  0.00  0.00    +0.000 OA
BRANCH  13  14
ATOM     14  C   UNL     1       2.318   4.208  19.788  0.00  0.00    +0.000 C 
ATOM     15  C   UNL     1       3.404   3.136  19.882  0.00  0.00    +0.000 C 
ATOM     16  C   UNL     1       1.046   3.675  20.449  0.00  0.00    +0.000 C 
ENDBRANCH  13  14
ENDBRANCH  10  13
ENDBRANCH   6   7
BRANCH   4  17
ATOM     17  N   UNL     1      -2.163  11.965  17.087  0.00  0.00    +0.000 NA
ATOM     18  H   UNL     1      -2.495  12.922  17.271  0.00  0.00    +0.000 HD
BRANCH  17  19
ATOM     19  S   UNL     1      -3.461  10.927  16.773  0.00  0.00    +0.000 S 
ATOM     20  C   UNL     1      -3.121  10.413  15.098  0.00  0.00    +0.000 C 
ATOM     21  O   UNL     1      -3.280   9.774  17.627  0.00  0.00    +0.000 OA
ATOM     22  O   UNL     1      -4.688  11.695  16.776  0.00  0.00    +0.000 OA
ENDBRANCH  17  19
ENDBRANCH   4  17
BRANCH   1  23
ATOM     23  C   UNL     1       0.254  11.256  21.339  0.00  0.00    +0.000 C 
BRANCH  23  24
ATOM     24  C   UNL     1      -0.885  10.864  22.290  0.00  0.00    +0.000 C 
BRANCH  24  28
ATOM     25  C   UNL     1      -2.834  14.242  24.130  0.00  0.00    +0.000 A 
ATOM     26  C   UNL     1      -1.522  14.341  23.669  0.00  0.00    +0.000 A 
ATOM     27  C   UNL     1      -0.889  13.243  23.094  0.00  0.00    +0.000 A 
ATOM     28  C   UNL     1      -1.558  12.018  22.982  0.00  0.00    +0.000 A 
ATOM     29  C   UNL     1      -2.869  11.913  23.466  0.00  0.00    +0.000 A 
ATOM     30  C   UNL     1      -3.499  13.022  24.042  0.00  0.00    +0.000 A 
BRANCH  25  32
ATOM     31  C   UNL     1      -2.975  16.593  24.008  0.00  0.00    +0.000 C 
ATOM     32  O   UNL     1      -3.349  15.390  24.666  0.00  0.00    +0.000 OA
ENDBRANCH  25  32
ENDBRANCH  24  28
ENDBRANCH  23  24
ENDBRANCH   1  23
TORSDOF 9
ENDMDL
MODEL 7
REMARK VINA RESULT:      -6.4      3.761      7.471
REMARK  Name = 
REMARK  13 active torsions:
REMARK  status: ('A' for Active; 'I' for Inactive)
REMARK    1  A    between atoms: C_1  and  O_2
REMARK    2  A    between atoms: O_2  and  C_3
REMARK    3  A    between atoms: C_6  and  C_7
REMARK    4  A    between atoms: C_7  and  C_8
REMARK    5  A    between atoms: C_8  and  N_9
REMARK    6  A    between atoms: N_12  and  N_13
REMARK    7  A    between atoms: N_13  and  S_14
REMARK    8  A    between atoms: S_14  and  C_15
REMARK    9  A    between atoms: C_19  and  C_20
REMARK   10  A    between atoms: C_23  and  O_24
REMARK   11  A    between atoms: O_24  and  C_25
REMARK   12  A    between atoms: C_25  and  C_26
REMARK   13  A    between atoms: C_25  and  C_27
REMARK                            x       y       z     vdW  Elec       q    Type
REMARK                         _______ _______ _______ _____ _____    ______ ____
ROOT
ATOM      1  N   UNL     1       0.823   9.050  20.053  0.00  0.00    +0.000 N 
ATOM      2  C   UNL     1       1.596   7.879  20.026  0.00  0.00    +0.000 C 
ATOM      3  O   UNL     1       1.740   7.043  20.904  0.00  0.00    +0.000 OA
ATOM      4  N   UNL     1       2.280   7.873  18.807  0.00  0.00    +0.000 N 
ATOM      5  C   UNL     1       2.054   9.077  18.053  0.00  0.00    +0.000 C 
ATOM      6  C   UNL     1       0.739   9.580  18.686  0.00  0.00    +0.000 C 
ENDROOT
BRANCH   6   7
ATOM      7  C   UNL     1       0.529  11.071  18.613  0.00  0.00    +0.000 A 
ATOM      8  C   UNL     1      -0.760  11.602  18.462  0.00  0.00    +0.000 A 
ATOM      9  C   UNL     1      -0.960  12.986  18.462  0.00  0.00    +0.000 A 
ATOM     10  C   UNL     1       0.114  13.861  18.638  0.00  0.00    +0.000 A 
ATOM     11  C   UNL     1       1.395  13.337  18.781  0.00  0.00    +0.000 A 
ATOM     12  C   UNL     1       1.605  11.957  18.747  0.00  0.00    +0.000 A 
BRANCH  10  13
ATOM     13  O   UNL     1      -0.193  15.192  18.589  0.00  0.00    +0.000 OA
BRANCH  13  14
ATOM     14  C   UNL     1       0.832  16.126  18.955  0.00  0.00    +0.000 C 
ATOM     15  C   UNL     1       0.819  17.345  18.033  0.00  0.00    +0.000 C 
ATOM     16  C   UNL     1       0.512  16.584  20.378  0.00  0.00    +0.000 C 
ENDBRANCH  13  14
ENDBRANCH  10  13
ENDBRANCH   6   7
BRANCH   4  17
ATOM     17  N   UNL     1       3.410   6.997  18.617  0.00  0.00    +0.000 NA
ATOM     18  H   UNL     1       4.134   7.385  17.997  0.00  0.00    +0.000 HD
BRANCH  17  19
ATOM     19  S   UNL     1       3.190   5.345  18.325  0.00  0.00    +0.000 S 
ATOM     20  C   UNL     1       4.372   5.044  17.021  0.00  0.00    +0.000 C 
ATOM     21  O   UNL     1       3.659   4.653  19.505  0.00  0.00    +0.000 OA
ATOM     22  O   UNL     1       1.860   5.136  17.794  0.00  0.00    +0.000 OA
ENDBRANCH  17  19
ENDBRANCH   4  17
BRANCH   1  23
ATOM     23  C   UNL     1      -0.125   9.378  21.118  0.00  0.00    +0.000 C 
BRANCH  23  24
ATOM     24  C   UNL     1       0.422  10.462  22.056  0.00  0.00    +0.000 C 
BRANCH  24  28
ATOM     25  C   UNL     1      -2.423  13.589  22.902  0.00  0.00    +0.000 A 
ATOM     26  C   UNL     1      -1.203  13.882  22.292  0.00  0.00    +0.000 A 
ATOM     27  C   UNL     1      -0.279  12.873  22.039  0.00  0.00    +0.000 A 
ATOM     28  C   UNL     1      -0.555  11.551  22.406  0.00  0.00    +0.000 A 
ATOM     29  C   UNL     1      -1.772  11.261  23.039  0.00  0.00    +0.000 A 
ATOM     30  C   UNL     1      -2.697  12.280  23.289  0.00  0.00    +0.000 A 
BRANCH  25  32
ATOM     31  C   UNL     1      -4.274  14.484  24.058  0.00  0.00    +0.000 C 
ATOM     32  O   UNL     1      -3.249  14.662  23.089  0.00  0.00    +0.000 OA
ENDBRANCH  25  32
ENDBRANCH  24  28
ENDBRANCH  23  24
ENDBRANCH   1  23
TORSDOF 9
ENDMDL
MODEL 8
REMARK VINA RESULT:      -6.4      2.990      8.196
REMARK  Name = 
REMARK  13 active torsions:
REMARK  status: ('A' for Active; 'I' for Inactive)
REMARK    1  A    between atoms: C_1  and  O_2
REMARK    2  A    between atoms: O_2  and  C_3
REMARK    3  A    between atoms: C_6  and  C_7
REMARK    4  A    between atoms: C_7  and  C_8
REMARK    5  A    between atoms: C_8  and  N_9
REMARK    6  A    between atoms: N_12  and  N_13
REMARK    7  A    between atoms: N_13  and  S_14
REMARK    8  A    between atoms: S_14  and  C_15
REMARK    9  A    between atoms: C_19  and  C_20
REMARK   10  A    between atoms: C_23  and  O_24
REMARK   11  A    between atoms: O_24  and  C_25
REMARK   12  A    between atoms: C_25  and  C_26
REMARK   13  A    between atoms: C_25  and  C_27
REMARK                            x       y       z     vdW  Elec       q    Type
REMARK                         _______ _______ _______ _____ _____    ______ ____
ROOT
ATOM      1  N   UNL     1      -0.113  11.199  18.694  0.00  0.00    +0.000 N 
ATOM      2  C   UNL     1      -0.213  12.583  18.901  0.00  0.00    +0.000 C 
ATOM      3  O   UNL     1      -0.811  13.410  18.232  0.00  0.00    +0.000 OA
ATOM      4  N   UNL     1       0.598  12.890  19.998  0.00  0.00    +0.000 N 
ATOM      5  C   UNL     1       1.324  11.741  20.472  0.00  0.00    +0.000 C 
ATOM      6  C   UNL     1       0.465  10.593  19.900  0.00  0.00    +0.000 C 
ENDROOT
BRANCH   6   7
ATOM      7  C   UNL     1       1.211   9.307  19.648  0.00  0.00    +0.000 A 
ATOM      8  C   UNL     1       1.277   8.316  20.638  0.00  0.00    +0.000 A 
ATOM      9  C   UNL     1       1.913   7.097  20.379  0.00  0.00    +0.000 A 
ATOM     10  C   UNL     1       2.469   6.837  19.124  0.00  0.00    +0.000 A 
ATOM     11  C   UNL     1       2.411   7.821  18.142  0.00  0.00    +0.000 A 
ATOM     12  C   UNL     1       1.808   9.052  18.407  0.00  0.00    +0.000 A 
BRANCH  10  13
ATOM     13  O   UNL     1       3.091   5.627  18.993  0.00  0.00    +0.000 OA
BRANCH  13  14
ATOM     14  C   UNL     1       3.019   4.976  17.717  0.00  0.00    +0.000 C 
ATOM     15  C   UNL     1       4.235   4.077  17.488  0.00  0.00    +0.000 C 
ATOM     16  C   UNL     1       1.764   4.102  17.748  0.00  0.00    +0.000 C 
ENDBRANCH  13  14
ENDBRANCH  10  13
ENDBRANCH   6   7
BRANCH   4  17
ATOM     17  N   UNL     1       0.986  14.255  20.251  0.00  0.00    +0.000 NA
ATOM     18  H   UNL     1       1.739  14.592  19.635  0.00  0.00    +0.000 HD
BRANCH  17  19
ATOM     19  S   UNL     1       1.203  14.818  21.831  0.00  0.00    +0.000 S 
ATOM     20  C   UNL     1       0.941  16.573  21.633  0.00  0.00    +0.000 C 
ATOM     21  O   UNL     1       0.100  14.298  22.608  0.00  0.00    +0.000 OA
ATOM     22  O   UNL     1       2.581  14.603  22.220  0.00  0.00    +0.000 OA
ENDBRANCH  17  19
ENDBRANCH   4  17
BRANCH   1  23
ATOM     23  C   UNL     1      -0.898  10.463  17.703  0.00  0.00    +0.000 C 
BRANCH  23  24
ATOM     24  C   UNL     1      -2.238   9.984  18.279  0.00  0.00    +0.000 C 
BRANCH  24  28
ATOM     25  C   UNL     1      -5.689  12.424  17.428  0.00  0.00    +0.000 A 
ATOM     26  C   UNL     1      -5.022  11.751  16.404  0.00  0.00    +0.000 A 
ATOM     27  C   UNL     1      -3.898  10.981  16.679  0.00  0.00    +0.000 A 
ATOM     28  C   UNL     1      -3.410  10.881  17.988  0.00  0.00    +0.000 A 
ATOM     29  C   UNL     1      -4.066  11.576  19.013  0.00  0.00    +0.000 A 
ATOM     30  C   UNL     1      -5.199  12.348  18.728  0.00  0.00    +0.000 A 
BRANCH  25  32
ATOM     31  C   UNL     1      -7.732  13.423  18.055  0.00  0.00    +0.000 C 
ATOM     32  O   UNL     1      -6.785  13.140  17.033  0.00  0.00    +0.000 OA
ENDBRANCH  25  32
ENDBRANCH  24  28
ENDBRANCH  23  24
ENDBRANCH   1  23
TORSDOF 9
ENDMDL
MODEL 9
REMARK VINA RESULT:      -6.4      1.572      7.296
REMARK  Name = 
REMARK  13 active torsions:
REMARK  status: ('A' for Active; 'I' for Inactive)
REMARK    1  A    between atoms: C_1  and  O_2
REMARK    2  A    between atoms: O_2  and  C_3
REMARK    3  A    between atoms: C_6  and  C_7
REMARK    4  A    between atoms: C_7  and  C_8
REMARK    5  A    between atoms: C_8  and  N_9
REMARK    6  A    between atoms: N_12  and  N_13
REMARK    7  A    between atoms: N_13  and  S_14
REMARK    8  A    between atoms: S_14  and  C_15
REMARK    9  A    between atoms: C_19  and  C_20
REMARK   10  A    between atoms: C_23  and  O_24
REMARK   11  A    between atoms: O_24  and  C_25
REMARK   12  A    between atoms: C_25  and  C_26
REMARK   13  A    between atoms: C_25  and  C_27
REMARK                            x       y       z     vdW  Elec       q    Type
REMARK                         _______ _______ _______ _____ _____    ______ ____
ROOT
ATOM      1  N   UNL     1       0.478  11.749  18.932  0.00  0.00    +0.000 N 
ATOM      2  C   UNL     1      -0.690  12.516  18.810  0.00  0.00    +0.000 C 
ATOM      3  O   UNL     1      -0.883  13.669  19.159  0.00  0.00    +0.000 OA
ATOM      4  N   UNL     1      -1.674  11.675  18.281  0.00  0.00    +0.000 N 
ATOM      5  C   UNL     1      -1.209  10.320  18.139  0.00  0.00    +0.000 C 
ATOM      6  C   UNL     1       0.320  10.534  18.124  0.00  0.00    +0.000 C 
ENDROOT
BRANCH   6   7
ATOM      7  C   UNL     1       1.129   9.359  18.611  0.00  0.00    +0.000 A 
ATOM      8  C   UNL     1       1.031   8.929  19.942  0.00  0.00    +0.000 A 
ATOM      9  C   UNL     1       1.732   7.798  20.375  0.00  0.00    +0.000 A 
ATOM     10  C   UNL     1       2.518   7.064  19.485  0.00  0.00    +0.000 A 
ATOM     11  C   UNL     1       2.623   7.492  18.164  0.00  0.00    +0.000 A 
ATOM     12  C   UNL     1       1.954   8.640  17.736  0.00  0.00    +0.000 A 
BRANCH  10  13
ATOM     13  O   UNL     1       3.182   5.998  20.023  0.00  0.00    +0.000 OA
BRANCH  13  14
ATOM     14  C   UNL     1       3.835   5.095  19.120  0.00  0.00    +0.000 C 
ATOM     15  C   UNL     1       5.356   5.211  19.231  0.00  0.00    +0.000 C 
ATOM     16  C   UNL     1       3.420   3.685  19.541  0.00  0.00    +0.000 C 
ENDBRANCH  13  14
ENDBRANCH  10  13
ENDBRANCH   6   7
BRANCH   4  17
ATOM     17  N   UNL     1      -3.064  12.051  18.358  0.00  0.00    +0.000 NA
ATOM     18  H   UNL     1      -3.422  12.118  19.321  0.00  0.00    +0.000 HD
BRANCH  17  19
ATOM     19  S   UNL     1      -4.213  11.345  17.337  0.00  0.00    +0.000 S 
ATOM     20  C   UNL     1      -3.280  11.128  15.831  0.00  0.00    +0.000 C 
ATOM     21  O   UNL     1      -4.485  10.029  17.874  0.00  0.00    +0.000 OA
ATOM     22  O   UNL     1      -5.271  12.301  17.087  0.00  0.00    +0.000 OA
ENDBRANCH  17  19
ENDBRANCH   4  17
BRANCH   1  23
ATOM     23  C   UNL     1       1.771  12.293  19.348  0.00  0.00    +0.000 C 
BRANCH  23  24
ATOM     24  C   UNL     1       2.440  13.097  18.225  0.00  0.00    +0.000 C 
BRANCH  24  28
ATOM     25  C   UNL     1       4.410  16.715  19.500  0.00  0.00    +0.000 A 
ATOM     26  C   UNL     1       4.174  16.471  18.147  0.00  0.00    +0.000 A 
ATOM     27  C   UNL     1       3.556  15.294  17.738  0.00  0.00    +0.000 A 
ATOM     28  C   UNL     1       3.175  14.329  18.678  0.00  0.00    +0.000 A 
ATOM     29  C   UNL     1       3.432  14.565  20.036  0.00  0.00    +0.000 A 
ATOM     30  C   UNL     1       4.053  15.752  20.440  0.00  0.00    +0.000 A 
BRANCH  25  32
ATOM     31  C   UNL     1       6.390  17.834  20.126  0.00  0.00    +0.000 C 
ATOM     32  O   UNL     1       5.014  17.910  19.777  0.00  0.00    +0.000 OA
ENDBRANCH  25  32
ENDBRANCH  24  28
ENDBRANCH  23  24
ENDBRANCH   1  23
TORSDOF 9
ENDMDL
