MODEL 1
REMARK VINA RESULT:      -7.5      0.000      0.000
REMARK  Name = 
REMARK  10 active torsions:
REMARK  status: ('A' for Active; 'I' for Inactive)
REMARK    1  A    between atoms: C_1  and  C_2
REMARK    2  A    between atoms: C_5  and  N_6
REMARK    3  A    between atoms: N_9  and  CA_10
REMARK    4  A    between atoms: CA_10  and  CB_11
REMARK    5  A    between atoms: CA_10  and  C_15
REMARK    6  A    between atoms: CB_11  and  CG_12
REMARK    7  A    between atoms: CG_12  and  CD1_13
REMARK    8  A    between atoms: CG_12  and  CD2_14
REMARK    9  A    between atoms: C_15  and  OXT_17
REMARK   10  A    between atoms: C_19  and  C_20
REMARK                            x       y       z     vdW  Elec       q    Type
REMARK                         _______ _______ _______ _____ _____    ______ ____
ROOT
ATOM      1  N   UNK A   0       3.717   4.267  16.304  0.00  0.00    +0.000 N 
ATOM      2  C   UNK A   0       5.017   4.056  15.897  0.00  0.00    +0.000 C 
ATOM      3  O   UNK A   0       5.912   3.510  16.532  0.00  0.00    +0.000 OA
ATOM      4  N   LEU A   1       5.236   4.472  14.608  0.00  0.00    +0.000 N 
ATOM      5  H   UNK A   0       3.088   4.656  15.619  0.00  0.00    +0.000 HD
ATOM      6  H   LEU A   1       4.620   5.149  14.172  0.00  0.00    +0.000 HD
ENDROOT
BRANCH   1  11
ATOM      7  C   UNK A   0       1.346   2.744  21.317  0.00  0.00    +0.000 C 
ATOM      8  C   UNK A   0       1.967   3.172  20.013  0.00  0.00    +0.000 A 
ATOM      9  C   UNK A   0       2.328   2.190  19.087  0.00  0.00    +0.000 A 
ATOM     10  C   UNK A   0       2.911   2.534  17.867  0.00  0.00    +0.000 A 
ATOM     11  C   UNK A   0       3.147   3.868  17.538  0.00  0.00    +0.000 A 
ATOM     12  C   UNK A   0       2.794   4.855  18.467  0.00  0.00    +0.000 A 
ATOM     13  C   UNK A   0       2.205   4.523  19.707  0.00  0.00    +0.000 A 
ATOM     14  C   UNK A   0       1.851   5.608  20.688  0.00  0.00    +0.000 C 
ENDBRANCH   1  11
BRANCH   4  15
ATOM     15  CA  LEU A   1       6.491   4.168  13.923  0.00  0.00    +0.000 C 
BRANCH  15  16
ATOM     16  C   LEU A   1       7.511   5.278  14.191  0.00  0.00    +0.000 C 
ATOM     17  O   LEU A   1       8.328   5.665  13.362  0.00  0.00    +0.000 OA
BRANCH  16  18
ATOM     18  OXT LEU A   1       7.438   5.816  15.434  0.00  0.00    +0.000 OA
ATOM     19  HXT LEU A   1       7.223   5.183  16.143  0.00  0.00    +0.000 HD
ENDBRANCH  16  18
ENDBRANCH  15  16
BRANCH  15  20
ATOM     20  CB  LEU A   1       6.283   3.918  12.416  0.00  0.00    +0.000 C 
BRANCH  20  21
ATOM     21  CG  LEU A   1       5.474   2.656  12.036  0.00  0.00    +0.000 C 
ATOM     22  CD1 LEU A   1       4.234   3.054  11.228  0.00  0.00    +0.000 C 
ATOM     23  CD2 LEU A   1       6.274   1.636  11.225  0.00  0.00    +0.000 C 
ENDBRANCH  20  21
ENDBRANCH  15  20
ENDBRANCH   4  15
TORSDOF 6
ENDMDL
MODEL 2
REMARK VINA RESULT:      -7.3      0.795      1.392
REMARK  Name = 
REMARK  10 active torsions:
REMARK  status: ('A' for Active; 'I' for Inactive)
REMARK    1  A    between atoms: C_1  and  C_2
REMARK    2  A    between atoms: C_5  and  N_6
REMARK    3  A    between atoms: N_9  and  CA_10
REMARK    4  A    between atoms: CA_10  and  CB_11
REMARK    5  A    between atoms: CA_10  and  C_15
REMARK    6  A    between atoms: CB_11  and  CG_12
REMARK    7  A    between atoms: CG_12  and  CD1_13
REMARK    8  A    between atoms: CG_12  and  CD2_14
REMARK    9  A    between atoms: C_15  and  OXT_17
REMARK   10  A    between atoms: C_19  and  C_20
REMARK                            x       y       z     vdW  Elec       q    Type
REMARK                         _______ _______ _______ _____ _____    ______ ____
ROOT
ATOM      1  N   UNK A   0       3.975   4.411  16.178  0.00  0.00    +0.000 N 
ATOM      2  C   UNK A   0       5.261   4.197  15.730  0.00  0.00    +0.000 C 
ATOM      3  O   UNK A   0       6.205   3.758  16.376  0.00  0.00    +0.000 OA
ATOM      4  N   LEU A   1       5.402   4.469  14.394  0.00  0.00    +0.000 N 
ATOM      5  H   UNK A   0       3.298   4.698  15.487  0.00  0.00    +0.000 HD
ATOM      6  H   LEU A   1       4.740   5.070  13.916  0.00  0.00    +0.000 HD
ENDROOT
BRANCH   1  11
ATOM      7  C   UNK A   0       1.930   3.212  21.417  0.00  0.00    +0.000 C 
ATOM      8  C   UNK A   0       2.442   3.510  20.033  0.00  0.00    +0.000 A 
ATOM      9  C   UNK A   0       3.564   4.331  19.895  0.00  0.00    +0.000 A 
ATOM     10  C   UNK A   0       4.074   4.642  18.634  0.00  0.00    +0.000 A 
ATOM     11  C   UNK A   0       3.480   4.140  17.477  0.00  0.00    +0.000 A 
ATOM     12  C   UNK A   0       2.351   3.323  17.611  0.00  0.00    +0.000 A 
ATOM     13  C   UNK A   0       1.820   3.000  18.880  0.00  0.00    +0.000 A 
ATOM     14  C   UNK A   0       0.596   2.131  18.986  0.00  0.00    +0.000 C 
ENDBRANCH   1  11
BRANCH   4  15
ATOM     15  CA  LEU A   1       6.633   4.129  13.683  0.00  0.00    +0.000 C 
BRANCH  15  16
ATOM     16  C   LEU A   1       7.637   5.278  13.805  0.00  0.00    +0.000 C 
ATOM     17  O   LEU A   1       8.257   5.743  12.854  0.00  0.00    +0.000 OA
BRANCH  16  18
ATOM     18  OXT LEU A   1       7.787   5.758  15.064  0.00  0.00    +0.000 OA
ATOM     19  HXT LEU A   1       7.178   5.379  15.724  0.00  0.00    +0.000 HD
ENDBRANCH  16  18
ENDBRANCH  15  16
BRANCH  15  20
ATOM     20  CB  LEU A   1       6.367   3.740  12.215  0.00  0.00    +0.000 C 
BRANCH  20  21
ATOM     21  CG  LEU A   1       5.359   2.590  11.983  0.00  0.00    +0.000 C 
ATOM     22  CD1 LEU A   1       4.154   3.105  11.188  0.00  0.00    +0.000 C 
ATOM     23  CD2 LEU A   1       5.954   1.394  11.240  0.00  0.00    +0.000 C 
ENDBRANCH  20  21
ENDBRANCH  15  20
ENDBRANCH   4  15
TORSDOF 6
ENDMDL
MODEL 3
REMARK VINA RESULT:      -7.2      5.799      8.153
REMARK  Name = 
REMARK  10 active torsions:
REMARK  status: ('A' for Active; 'I' for Inactive)
REMARK    1  A    between atoms: C_1  and  C_2
REMARK    2  A    between atoms: C_5  and  N_6
REMARK    3  A    between atoms: N_9  and  CA_10
REMARK    4  A    between atoms: CA_10  and  CB_11
REMARK    5  A    between atoms: CA_10  and  C_15
REMARK    6  A    between atoms: CB_11  and  CG_12
REMARK    7  A    between atoms: CG_12  and  CD1_13
REMARK    8  A    between atoms: CG_12  and  CD2_14
REMARK    9  A    between atoms: C_15  and  OXT_17
REMARK   10  A    between atoms: C_19  and  C_20
REMARK                            x       y       z     vdW  Elec       q    Type
REMARK                         _______ _______ _______ _____ _____    ______ ____
ROOT
ATOM      1  N   UNK A   0       7.992   9.148  17.576  0.00  0.00    +0.000 N 
ATOM      2  C   UNK A   0       7.808   7.802  17.811  0.00  0.00    +0.000 C 
ATOM      3  O   UNK A   0       8.369   7.114  18.656  0.00  0.00    +0.000 OA
ATOM      4  N   LEU A   1       6.830   7.260  17.016  0.00  0.00    +0.000 N 
ATOM      5  H   UNK A   0       7.381   9.574  16.896  0.00  0.00    +0.000 HD
ATOM      6  H   LEU A   1       6.554   7.717  16.154  0.00  0.00    +0.000 HD
ENDROOT
BRANCH   1  11
ATOM      7  C   UNK A   0      11.487  12.745  20.389  0.00  0.00    +0.000 C 
ATOM      8  C   UNK A   0      10.583  11.813  19.625  0.00  0.00    +0.000 A 
ATOM      9  C   UNK A   0       9.777  10.924  20.341  0.00  0.00    +0.000 A 
ATOM     10  C   UNK A   0       8.926  10.037  19.681  0.00  0.00    +0.000 A 
ATOM     11  C   UNK A   0       8.855  10.016  18.289  0.00  0.00    +0.000 A 
ATOM     12  C   UNK A   0       9.666  10.900  17.568  0.00  0.00    +0.000 A 
ATOM     13  C   UNK A   0      10.535  11.803  18.220  0.00  0.00    +0.000 A 
ATOM     14  C   UNK A   0      11.404  12.729  17.414  0.00  0.00    +0.000 C 
ENDBRANCH   1  11
BRANCH   4  15
ATOM     15  CA  LEU A   1       6.351   5.897  17.236  0.00  0.00    +0.000 C 
BRANCH  15  16
ATOM     16  C   LEU A   1       7.299   4.899  16.567  0.00  0.00    +0.000 C 
ATOM     17  O   LEU A   1       7.386   4.753  15.352  0.00  0.00    +0.000 OA
BRANCH  16  18
ATOM     18  OXT LEU A   1       8.055   4.180  17.433  0.00  0.00    +0.000 OA
ATOM     19  HXT LEU A   1       7.601   3.916  18.254  0.00  0.00    +0.000 HD
ENDBRANCH  16  18
ENDBRANCH  15  16
BRANCH  15  20
ATOM     20  CB  LEU A   1       4.891   5.714  16.775  0.00  0.00    +0.000 C 
BRANCH  20  21
ATOM     21  CG  LEU A   1       3.935   5.036  17.783  0.00  0.00    +0.000 C 
ATOM     22  CD1 LEU A   1       2.797   5.995  18.151  0.00  0.00    +0.000 C 
ATOM     23  CD2 LEU A   1       3.321   3.734  17.266  0.00  0.00    +0.000 C 
ENDBRANCH  20  21
ENDBRANCH  15  20
ENDBRANCH   4  15
TORSDOF 6
ENDMDL
MODEL 4
REMARK VINA RESULT:      -7.2      2.013      3.057
REMARK  Name = 
REMARK  10 active torsions:
REMARK  status: ('A' for Active; 'I' for Inactive)
REMARK    1  A    between atoms: C_1  and  C_2
REMARK    2  A    between atoms: C_5  and  N_6
REMARK    3  A    between atoms: N_9  and  CA_10
REMARK    4  A    between atoms: CA_10  and  CB_11
REMARK    5  A    between atoms: CA_10  and  C_15
REMARK    6  A    between atoms: CB_11  and  CG_12
REMARK    7  A    between atoms: CG_12  and  CD1_13
REMARK    8  A    between atoms: CG_12  and  CD2_14
REMARK    9  A    between atoms: C_15  and  OXT_17
REMARK   10  A    between atoms: C_19  and  C_20
REMARK                            x       y       z     vdW  Elec       q    Type
REMARK                         _______ _______ _______ _____ _____    ______ ____
ROOT
ATOM      1  N   UNK A   0       3.661   4.736  17.951  0.00  0.00    +0.000 N 
ATOM      2  C   UNK A   0       4.493   4.935  16.870  0.00  0.00    +0.000 C 
ATOM      3  O   UNK A   0       4.797   6.006  16.359  0.00  0.00    +0.000 OA
ATOM      4  N   LEU A   1       5.049   3.767  16.415  0.00  0.00    +0.000 N 
ATOM      5  H   UNK A   0       3.588   3.790  18.296  0.00  0.00    +0.000 HD
ATOM      6  H   LEU A   1       4.622   2.873  16.630  0.00  0.00    +0.000 HD
ENDROOT
BRANCH   1  11
ATOM      7  C   UNK A   0       0.966   8.852  20.928  0.00  0.00    +0.000 C 
ATOM      8  C   UNK A   0       1.675   7.794  20.125  0.00  0.00    +0.000 A 
ATOM      9  C   UNK A   0       1.937   6.559  20.724  0.00  0.00    +0.000 A 
ATOM     10  C   UNK A   0       2.595   5.547  20.025  0.00  0.00    +0.000 A 
ATOM     11  C   UNK A   0       3.008   5.740  18.707  0.00  0.00    +0.000 A 
ATOM     12  C   UNK A   0       2.755   6.979  18.106  0.00  0.00    +0.000 A 
ATOM     13  C   UNK A   0       2.092   8.014  18.800  0.00  0.00    +0.000 A 
ATOM     14  C   UNK A   0       1.849   9.338  18.128  0.00  0.00    +0.000 C 
ENDBRANCH   1  11
BRANCH   4  15
ATOM     15  CA  LEU A   1       6.101   3.780  15.401  0.00  0.00    +0.000 C 
BRANCH  15  16
ATOM     16  C   LEU A   1       7.293   4.601  15.900  0.00  0.00    +0.000 C 
ATOM     17  O   LEU A   1       7.954   4.307  16.892  0.00  0.00    +0.000 OA
BRANCH  16  18
ATOM     18  OXT LEU A   1       7.575   5.693  15.148  0.00  0.00    +0.000 OA
ATOM     19  HXT LEU A   1       6.810   6.265  14.951  0.00  0.00    +0.000 HD
ENDBRANCH  16  18
ENDBRANCH  15  16
BRANCH  15  20
ATOM     20  CB  LEU A   1       5.585   4.272  14.034  0.00  0.00    +0.000 C 
BRANCH  20  21
ATOM     21  CG  LEU A   1       5.981   3.420  12.806  0.00  0.00    +0.000 C 
ATOM     22  CD1 LEU A   1       4.788   3.295  11.851  0.00  0.00    +0.000 C 
ATOM     23  CD2 LEU A   1       7.168   3.984  12.025  0.00  0.00    +0.000 C 
ENDBRANCH  20  21
ENDBRANCH  15  20
ENDBRANCH   4  15
TORSDOF 6
ENDMDL
MODEL 5
REMARK VINA RESULT:      -7.1      3.479      5.863
REMARK  Name = 
REMARK  10 active torsions:
REMARK  status: ('A' for Active; 'I' for Inactive)
REMARK    1  A    between atoms: C_1  and  C_2
REMARK    2  A    between atoms: C_5  and  N_6
REMARK    3  A    between atoms: N_9  and  CA_10
REMARK    4  A    between atoms: CA_10  and  CB_11
REMARK    5  A    between atoms: CA_10  and  C_15
REMARK    6  A    between atoms: CB_11  and  CG_12
REMARK    7  A    between atoms: CG_12  and  CD1_13
REMARK    8  A    between atoms: CG_12  and  CD2_14
REMARK    9  A    between atoms: C_15  and  OXT_17
REMARK   10  A    between atoms: C_19  and  C_20
REMARK                            x       y       z     vdW  Elec       q    Type
REMARK                         _______ _______ _______ _____ _____    ______ ____
ROOT
ATOM      1  N   UNK A   0       2.683   6.654  20.063  0.00  0.00    +0.000 N 
ATOM      2  C   UNK A   0       2.700   5.683  19.084  0.00  0.00    +0.000 C 
ATOM      3  O   UNK A   0       1.983   5.620  18.092  0.00  0.00    +0.000 OA
ATOM      4  N   LEU A   1       3.695   4.760  19.280  0.00  0.00    +0.000 N 
ATOM      5  H   UNK A   0       3.403   6.597  20.767  0.00  0.00    +0.000 HD
ATOM      6  H   LEU A   1       4.107   4.631  20.197  0.00  0.00    +0.000 HD
ENDROOT
BRANCH   1  11
ATOM      7  C   UNK A   0      -0.705  11.292  20.330  0.00  0.00    +0.000 C 
ATOM      8  C   UNK A   0       0.173  10.070  20.288  0.00  0.00    +0.000 A 
ATOM      9  C   UNK A   0       0.877   9.789  19.114  0.00  0.00    +0.000 A 
ATOM     10  C   UNK A   0       1.700   8.666  19.023  0.00  0.00    +0.000 A 
ATOM     11  C   UNK A   0       1.844   7.794  20.102  0.00  0.00    +0.000 A 
ATOM     12  C   UNK A   0       1.134   8.069  21.277  0.00  0.00    +0.000 A 
ATOM     13  C   UNK A   0       0.295   9.200  21.386  0.00  0.00    +0.000 A 
ATOM     14  C   UNK A   0      -0.464   9.456  22.659  0.00  0.00    +0.000 C 
ENDBRANCH   1  11
BRANCH   4  15
ATOM     15  CA  LEU A   1       4.004   3.759  18.260  0.00  0.00    +0.000 C 
BRANCH  15  16
ATOM     16  C   LEU A   1       4.091   2.373  18.903  0.00  0.00    +0.000 C 
ATOM     17  O   LEU A   1       3.355   1.438  18.605  0.00  0.00    +0.000 OA
BRANCH  16  18
ATOM     18  OXT LEU A   1       5.065   2.250  19.838  0.00  0.00    +0.000 OA
ATOM     19  HXT LEU A   1       4.790   1.809  20.663  0.00  0.00    +0.000 HD
ENDBRANCH  16  18
ENDBRANCH  15  16
BRANCH  15  20
ATOM     20  CB  LEU A   1       5.276   4.115  17.464  0.00  0.00    +0.000 C 
BRANCH  20  21
ATOM     21  CG  LEU A   1       5.059   4.637  16.025  0.00  0.00    +0.000 C 
ATOM     22  CD1 LEU A   1       5.182   6.165  16.000  0.00  0.00    +0.000 C 
ATOM     23  CD2 LEU A   1       6.040   4.056  15.007  0.00  0.00    +0.000 C 
ENDBRANCH  20  21
ENDBRANCH  15  20
ENDBRANCH   4  15
TORSDOF 6
ENDMDL
MODEL 6
REMARK VINA RESULT:      -7.0      4.084      6.111
REMARK  Name = 
REMARK  10 active torsions:
REMARK  status: ('A' for Active; 'I' for Inactive)
REMARK    1  A    between atoms: C_1  and  C_2
REMARK    2  A    between atoms: C_5  and  N_6
REMARK    3  A    between atoms: N_9  and  CA_10
REMARK    4  A    between atoms: CA_10  and  CB_11
REMARK    5  A    between atoms: CA_10  and  C_15
REMARK    6  A    between atoms: CB_11  and  CG_12
REMARK    7  A    between atoms: CG_12  and  CD1_13
REMARK    8  A    between atoms: CG_12  and  CD2_14
REMARK    9  A    between atoms: C_15  and  OXT_17
REMARK   10  A    between atoms: C_19  and  C_20
REMARK                            x       y       z     vdW  Elec       q    Type
REMARK                         _______ _______ _______ _____ _____    ______ ____
ROOT
ATOM      1  N   UNK A   0       2.741   6.657  19.930  0.00  0.00    +0.000 N 
ATOM      2  C   UNK A   0       2.685   5.649  18.990  0.00  0.00    +0.000 C 
ATOM      3  O   UNK A   0       1.877   5.534  18.076  0.00  0.00    +0.000 OA
ATOM      4  N   LEU A   1       3.715   4.754  19.121  0.00  0.00    +0.000 N 
ATOM      5  H   UNK A   0       3.527   6.641  20.562  0.00  0.00    +0.000 HD
ATOM      6  H   LEU A   1       4.218   4.669  19.998  0.00  0.00    +0.000 HD
ENDROOT
BRANCH   1  11
ATOM      7  C   UNK A   0      -0.721  11.228  20.360  0.00  0.00    +0.000 C 
ATOM      8  C   UNK A   0       0.177  10.022  20.276  0.00  0.00    +0.000 A 
ATOM      9  C   UNK A   0       0.869   9.782  19.086  0.00  0.00    +0.000 A 
ATOM     10  C   UNK A   0       1.709   8.676  18.955  0.00  0.00    +0.000 A 
ATOM     11  C   UNK A   0       1.883   7.781  20.009  0.00  0.00    +0.000 A 
ATOM     12  C   UNK A   0       1.185   8.014  21.201  0.00  0.00    +0.000 A 
ATOM     13  C   UNK A   0       0.329   9.127  21.349  0.00  0.00    +0.000 A 
ATOM     14  C   UNK A   0      -0.416   9.339  22.639  0.00  0.00    +0.000 C 
ENDBRANCH   1  11
BRANCH   4  15
ATOM     15  CA  LEU A   1       3.947   3.721  18.113  0.00  0.00    +0.000 C 
BRANCH  15  16
ATOM     16  C   LEU A   1       4.128   2.362  18.794  0.00  0.00    +0.000 C 
ATOM     17  O   LEU A   1       3.454   1.372  18.526  0.00  0.00    +0.000 OA
BRANCH  16  18
ATOM     18  OXT LEU A   1       5.110   2.331  19.728  0.00  0.00    +0.000 OA
ATOM     19  HXT LEU A   1       5.978   2.652  19.423  0.00  0.00    +0.000 HD
ENDBRANCH  16  18
ENDBRANCH  15  16
BRANCH  15  20
ATOM     20  CB  LEU A   1       5.128   4.071  17.185  0.00  0.00    +0.000 C 
BRANCH  20  21
ATOM     21  CG  LEU A   1       6.103   5.156  17.696  0.00  0.00    +0.000 C 
ATOM     22  CD1 LEU A   1       7.545   4.641  17.620  0.00  0.00    +0.000 C 
ATOM     23  CD2 LEU A   1       6.017   6.472  16.921  0.00  0.00    +0.000 C 
ENDBRANCH  20  21
ENDBRANCH  15  20
ENDBRANCH   4  15
TORSDOF 6
ENDMDL
MODEL 7
REMARK VINA RESULT:      -6.9      4.232      6.733
REMARK  Name = 
REMARK  10 active torsions:
REMARK  status: ('A' for Active; 'I' for Inactive)
REMARK    1  A    between atoms: C_1  and  C_2
REMARK    2  A    between atoms: C_5  and  N_6
REMARK    3  A    between atoms: N_9  and  CA_10
REMARK    4  A    between atoms: CA_10  and  CB_11
REMARK    5  A    between atoms: CA_10  and  C_15
REMARK    6  A    between atoms: CB_11  and  CG_12
REMARK    7  A    between atoms: CG_12  and  CD1_13
REMARK    8  A    between atoms: CG_12  and  CD2_14
REMARK    9  A    between atoms: C_15  and  OXT_17
REMARK   10  A    between atoms: C_19  and  C_20
REMARK                            x       y       z     vdW  Elec       q    Type
REMARK                         _______ _______ _______ _____ _____    ______ ____
ROOT
ATOM      1  N   UNK A   0       2.065   7.281  20.734  0.00  0.00    +0.000 N 
ATOM      2  C   UNK A   0       2.622   6.618  19.661  0.00  0.00    +0.000 C 
ATOM      3  O   UNK A   0       2.503   6.899  18.475  0.00  0.00    +0.000 OA
ATOM      4  N   LEU A   1       3.433   5.583  20.050  0.00  0.00    +0.000 N 
ATOM      5  H   UNK A   0       2.337   6.963  21.651  0.00  0.00    +0.000 HD
ATOM      6  H   LEU A   1       3.337   5.168  20.970  0.00  0.00    +0.000 HD
ENDROOT
BRANCH   1  11
ATOM      7  C   UNK A   0      -1.187  12.022  20.609  0.00  0.00    +0.000 C 
ATOM      8  C   UNK A   0      -0.345  10.775  20.671  0.00  0.00    +0.000 A 
ATOM      9  C   UNK A   0       0.326  10.361  19.517  0.00  0.00    +0.000 A 
ATOM     10  C   UNK A   0       1.115   9.211  19.521  0.00  0.00    +0.000 A 
ATOM     11  C   UNK A   0       1.258   8.444  20.677  0.00  0.00    +0.000 A 
ATOM     12  C   UNK A   0       0.581   8.852  21.833  0.00  0.00    +0.000 A 
ATOM     13  C   UNK A   0      -0.223  10.013  21.846  0.00  0.00    +0.000 A 
ATOM     14  C   UNK A   0      -0.948  10.414  23.102  0.00  0.00    +0.000 C 
ENDBRANCH   1  11
BRANCH   4  15
ATOM     15  CA  LEU A   1       4.265   4.874  19.080  0.00  0.00    +0.000 C 
BRANCH  15  16
ATOM     16  C   LEU A   1       4.085   3.363  19.248  0.00  0.00    +0.000 C 
ATOM     17  O   LEU A   1       3.009   2.788  19.122  0.00  0.00    +0.000 OA
BRANCH  16  18
ATOM     18  OXT LEU A   1       5.226   2.694  19.544  0.00  0.00    +0.000 OA
ATOM     19  HXT LEU A   1       5.319   2.432  20.479  0.00  0.00    +0.000 HD
ENDBRANCH  16  18
ENDBRANCH  15  16
BRANCH  15  20
ATOM     20  CB  LEU A   1       5.745   5.299  19.163  0.00  0.00    +0.000 C 
BRANCH  20  21
ATOM     21  CG  LEU A   1       6.414   5.714  17.833  0.00  0.00    +0.000 C 
ATOM     22  CD1 LEU A   1       7.432   4.650  17.406  0.00  0.00    +0.000 C 
ATOM     23  CD2 LEU A   1       5.423   5.924  16.687  0.00  0.00    +0.000 C 
ENDBRANCH  20  21
ENDBRANCH  15  20
ENDBRANCH   4  15
TORSDOF 6
ENDMDL
MODEL 8
REMARK VINA RESULT:      -6.8      3.300      5.647
REMARK  Name = 
REMARK  10 active torsions:
REMARK  status: ('A' for Active; 'I' for Inactive)
REMARK    1  A    between atoms: C_1  and  C_2
REMARK    2  A    between atoms: C_5  and  N_6
REMARK    3  A    between atoms: N_9  and  CA_10
REMARK    4  A    between atoms: CA_10  and  CB_11
REMARK    5  A    between atoms: CA_10  and  C_15
REMARK    6  A    between atoms: CB_11  and  CG_12
REMARK    7  A    between atoms: CG_12  and  CD1_13
REMARK    8  A    between atoms: CG_12  and  CD2_14
REMARK    9  A    between atoms: C_15  and  OXT_17
REMARK   10  A    between atoms: C_19  and  C_20
REMARK                            x       y       z     vdW  Elec       q    Type
REMARK                         _______ _______ _______ _____ _____    ______ ____
ROOT
ATOM      1  N   UNK A   0       2.913   6.472  19.236  0.00  0.00    +0.000 N 
ATOM      2  C   UNK A   0       2.640   5.425  18.382  0.00  0.00    +0.000 C 
ATOM      3  O   UNK A   0       1.648   5.285  17.677  0.00  0.00    +0.000 OA
ATOM      4  N   LEU A   1       3.666   4.517  18.322  0.00  0.00    +0.000 N 
ATOM      5  H   UNK A   0       3.820   6.469  19.677  0.00  0.00    +0.000 HD
ATOM      6  H   LEU A   1       4.351   4.462  19.067  0.00  0.00    +0.000 HD
ENDROOT
BRANCH   1  11
ATOM      7  C   UNK A   0      -0.343  11.109  20.218  0.00  0.00    +0.000 C 
ATOM      8  C   UNK A   0       0.502   9.884  19.989  0.00  0.00    +0.000 A 
ATOM      9  C   UNK A   0       1.109   9.710  18.742  0.00  0.00    +0.000 A 
ATOM     10  C   UNK A   0       1.898   8.590  18.478  0.00  0.00    +0.000 A 
ATOM     11  C   UNK A   0       2.104   7.615  19.452  0.00  0.00    +0.000 A 
ATOM     12  C   UNK A   0       1.492   7.781  20.700  0.00  0.00    +0.000 A 
ATOM     13  C   UNK A   0       0.689   8.908  20.983  0.00  0.00    +0.000 A 
ATOM     14  C   UNK A   0       0.034   9.048  22.331  0.00  0.00    +0.000 C 
ENDBRANCH   1  11
BRANCH   4  15
ATOM     15  CA  LEU A   1       3.659   3.437  17.338  0.00  0.00    +0.000 C 
BRANCH  15  16
ATOM     16  C   LEU A   1       3.079   2.167  17.965  0.00  0.00    +0.000 C 
ATOM     17  O   LEU A   1       3.761   1.311  18.520  0.00  0.00    +0.000 OA
BRANCH  16  18
ATOM     18  OXT LEU A   1       1.731   2.059  17.867  0.00  0.00    +0.000 OA
ATOM     19  HXT LEU A   1       1.406   1.171  17.633  0.00  0.00    +0.000 HD
ENDBRANCH  16  18
ENDBRANCH  15  16
BRANCH  15  20
ATOM     20  CB  LEU A   1       5.053   3.201  16.723  0.00  0.00    +0.000 C 
BRANCH  20  21
ATOM     21  CG  LEU A   1       5.690   4.403  15.989  0.00  0.00    +0.000 C 
ATOM     22  CD1 LEU A   1       7.094   4.671  16.545  0.00  0.00    +0.000 C 
ATOM     23  CD2 LEU A   1       5.798   4.211  14.476  0.00  0.00    +0.000 C 
ENDBRANCH  20  21
ENDBRANCH  15  20
ENDBRANCH   4  15
TORSDOF 6
ENDMDL
MODEL 9
REMARK VINA RESULT:      -6.7      5.988      8.206
REMARK  Name = 
REMARK  10 active torsions:
REMARK  status: ('A' for Active; 'I' for Inactive)
REMARK    1  A    between atoms: C_1  and  C_2
REMARK    2  A    between atoms: C_5  and  N_6
REMARK    3  A    between atoms: N_9  and  CA_10
REMARK    4  A    between atoms: CA_10  and  CB_11
REMARK    5  A    between atoms: CA_10  and  C_15
REMARK    6  A    between atoms: CB_11  and  CG_12
REMARK    7  A    between atoms: CG_12  and  CD1_13
REMARK    8  A    between atoms: CG_12  and  CD2_14
REMARK    9  A    between atoms: C_15  and  OXT_17
REMARK   10  A    between atoms: C_19  and  C_20
REMARK                            x       y       z     vdW  Elec       q    Type
REMARK                         _______ _______ _______ _____ _____    ______ ____
ROOT
ATOM      1  N   UNK A   0       8.112   9.337  17.552  0.00  0.00    +0.000 N 
ATOM      2  C   UNK A   0       7.877   8.022  17.892  0.00  0.00    +0.000 C 
ATOM      3  O   UNK A   0       8.417   7.382  18.786  0.00  0.00    +0.000 OA
ATOM      4  N   LEU A   1       6.873   7.459  17.147  0.00  0.00    +0.000 N 
ATOM      5  H   UNK A   0       7.514   9.733  16.842  0.00  0.00    +0.000 HD
ATOM      6  H   LEU A   1       6.608   7.857  16.252  0.00  0.00    +0.000 HD
ENDROOT
BRANCH   1  11
ATOM      7  C   UNK A   0      11.757  12.883  20.236  0.00  0.00    +0.000 C 
ATOM      8  C   UNK A   0      10.785  11.953  19.559  0.00  0.00    +0.000 A 
ATOM      9  C   UNK A   0      10.976  11.651  18.208  0.00  0.00    +0.000 A 
ATOM     10  C   UNK A   0      10.101  10.799  17.533  0.00  0.00    +0.000 A 
ATOM     11  C   UNK A   0       9.014  10.224  18.190  0.00  0.00    +0.000 A 
ATOM     12  C   UNK A   0       8.815  10.530  19.541  0.00  0.00    +0.000 A 
ATOM     13  C   UNK A   0       9.690  11.392  20.239  0.00  0.00    +0.000 A 
ATOM     14  C   UNK A   0       9.438  11.712  21.688  0.00  0.00    +0.000 C 
ENDBRANCH   1  11
BRANCH   4  15
ATOM     15  CA  LEU A   1       6.342   6.138  17.475  0.00  0.00    +0.000 C 
BRANCH  15  16
ATOM     16  C   LEU A   1       7.309   5.055  16.990  0.00  0.00    +0.000 C 
ATOM     17  O   LEU A   1       7.583   4.868  15.809  0.00  0.00    +0.000 OA
BRANCH  16  18
ATOM     18  OXT LEU A   1       7.854   4.307  17.981  0.00  0.00    +0.000 OA
ATOM     19  HXT LEU A   1       7.938   4.761  18.840  0.00  0.00    +0.000 HD
ENDBRANCH  16  18
ENDBRANCH  15  16
BRANCH  15  20
ATOM     20  CB  LEU A   1       4.914   5.934  16.930  0.00  0.00    +0.000 C 
BRANCH  20  21
ATOM     21  CG  LEU A   1       3.924   5.198  17.862  0.00  0.00    +0.000 C 
ATOM     22  CD1 LEU A   1       3.775   3.739  17.418  0.00  0.00    +0.000 C 
ATOM     23  CD2 LEU A   1       4.338   5.216  19.334  0.00  0.00    +0.000 C 
ENDBRANCH  20  21
ENDBRANCH  15  20
ENDBRANCH   4  15
TORSDOF 6
ENDMDL
