MODEL 1
REMARK VINA RESULT:      -7.8      0.000      0.000
REMARK  Name = 
REMARK  8 active torsions:
REMARK  status: ('A' for Active; 'I' for Inactive)
REMARK    1  A    between atoms: C_1  and  N_2
REMARK    2  A    between atoms: N_2  and  C_3
REMARK    3  A    between atoms: N_2  and  S_19
REMARK    4  A    between atoms: C_6  and  C_7
REMARK    5  A    between atoms: C_7  and  O_8
REMARK    6  A    between atoms: C_7  and  C_9
REMARK    7  A    between atoms: C_7  and  C_13
REMARK    8  A    between atoms: S_19  and  C_22
REMARK                            x       y       z     vdW  Elec       q    Type
REMARK                         _______ _______ _______ _____ _____    ______ ____
ROOT
ATOM      1  C   UNL     1       2.633   6.849  18.655  0.00  0.00    +0.000 A 
ATOM      2  C   UNL     1       2.279   7.979  17.930  0.00  0.00    +0.000 A 
ATOM      3  C   UNL     1       1.596   9.036  18.550  0.00  0.00    +0.000 A 
ATOM      4  C   UNL     1       1.230   8.977  19.913  0.00  0.00    +0.000 A 
ATOM      5  C   UNL     1       1.641   7.839  20.635  0.00  0.00    +0.000 A 
ATOM      6  C   UNL     1       2.332   6.787  20.013  0.00  0.00    +0.000 A 
ENDROOT
BRANCH   1   8
ATOM      7  C   UNL     1       4.373   6.073  17.035  0.00  0.00    +0.000 C 
ATOM      8  N   UNL     1       3.292   5.772  17.977  0.00  0.00    +0.000 N 
BRANCH   8   9
ATOM      9  S   UNL     1       2.468   4.304  17.791  0.00  0.00    +0.000 S 
ATOM     10  O   UNL     1       1.143   4.579  17.278  0.00  0.00    +0.000 OA
ATOM     11  O   UNL     1       3.343   3.359  17.113  0.00  0.00    +0.000 OA
BRANCH   9  12
ATOM     12  C   UNL     1       2.188   3.540  19.386  0.00  0.00    +0.000 A 
ATOM     13  C   UNL     1       1.043   3.420  20.153  0.00  0.00    +0.000 A 
ATOM     14  C   UNL     1       1.295   2.817  21.418  0.00  0.00    +0.000 A 
ATOM     15  C   UNL     1       2.620   2.467  21.564  0.00  0.00    +0.000 A 
ATOM     16  S   UNL     1       3.545   2.877  20.186  0.00  0.00    +0.000 S 
ENDBRANCH   9  12
ENDBRANCH   8   9
ENDBRANCH   1   8
BRANCH   4  17
ATOM     17  C   UNL     1       0.360  10.081  20.574  0.00  0.00    +0.000 C 
BRANCH  17  18
ATOM     18  C   UNL     1      -0.775  10.560  19.621  0.00  0.00    +0.000 C 
ATOM     19  F   UNL     1      -0.300  11.265  18.562  0.00  0.00    +0.000 F 
ATOM     20  F   UNL     1      -1.581   9.617  19.107  0.00  0.00    +0.000 F 
ATOM     21  F   UNL     1      -1.585  11.435  20.286  0.00  0.00    +0.000 F 
ENDBRANCH  17  18
BRANCH  17  22
ATOM     22  C   UNL     1      -0.247   9.651  21.941  0.00  0.00    +0.000 C 
ATOM     23  F   UNL     1       0.699   9.514  22.903  0.00  0.00    +0.000 F 
ATOM     24  F   UNL     1      -1.117  10.585  22.412  0.00  0.00    +0.000 F 
ATOM     25  F   UNL     1      -0.931   8.490  21.935  0.00  0.00    +0.000 F 
ENDBRANCH  17  22
BRANCH  17  26
ATOM     26  O   UNL     1       1.279  11.215  20.812  0.00  0.00    +0.000 OA
ATOM     27  H   UNL     1       0.849  12.016  20.454  0.00  0.00    +0.000 HD
ENDBRANCH  17  26
ENDBRANCH   4  17
TORSDOF 7
ENDMDL
MODEL 2
REMARK VINA RESULT:      -7.8      1.413      2.131
REMARK  Name = 
REMARK  8 active torsions:
REMARK  status: ('A' for Active; 'I' for Inactive)
REMARK    1  A    between atoms: C_1  and  N_2
REMARK    2  A    between atoms: N_2  and  C_3
REMARK    3  A    between atoms: N_2  and  S_19
REMARK    4  A    between atoms: C_6  and  C_7
REMARK    5  A    between atoms: C_7  and  O_8
REMARK    6  A    between atoms: C_7  and  C_9
REMARK    7  A    between atoms: C_7  and  C_13
REMARK    8  A    between atoms: S_19  and  C_22
REMARK                            x       y       z     vdW  Elec       q    Type
REMARK                         _______ _______ _______ _____ _____    ______ ____
ROOT
ATOM      1  C   UNL     1       2.526   7.215  18.612  0.00  0.00    +0.000 A 
ATOM      2  C   UNL     1       2.219   8.214  17.699  0.00  0.00    +0.000 A 
ATOM      3  C   UNL     1       1.464   9.328  18.093  0.00  0.00    +0.000 A 
ATOM      4  C   UNL     1       0.976   9.459  19.412  0.00  0.00    +0.000 A 
ATOM      5  C   UNL     1       1.341   8.452  20.329  0.00  0.00    +0.000 A 
ATOM      6  C   UNL     1       2.104   7.343  19.933  0.00  0.00    +0.000 A 
ENDROOT
BRANCH   1   8
ATOM      7  C   UNL     1       4.529   6.269  17.449  0.00  0.00    +0.000 C 
ATOM      8  N   UNL     1       3.264   6.071  18.162  0.00  0.00    +0.000 N 
BRANCH   8   9
ATOM      9  S   UNL     1       2.434   4.617  17.908  0.00  0.00    +0.000 S 
ATOM     10  O   UNL     1       1.099   4.922  17.438  0.00  0.00    +0.000 OA
ATOM     11  O   UNL     1       3.292   3.712  17.157  0.00  0.00    +0.000 OA
BRANCH   9  12
ATOM     12  C   UNL     1       2.184   3.762  19.460  0.00  0.00    +0.000 A 
ATOM     13  C   UNL     1       1.092   3.707  20.308  0.00  0.00    +0.000 A 
ATOM     14  C   UNL     1       1.364   2.979  21.501  0.00  0.00    +0.000 A 
ATOM     15  C   UNL     1       2.647   2.475  21.513  0.00  0.00    +0.000 A 
ATOM     16  S   UNL     1       3.510   2.892  20.097  0.00  0.00    +0.000 S 
ENDBRANCH   9  12
ENDBRANCH   8   9
ENDBRANCH   1   8
BRANCH   4  17
ATOM     17  C   UNL     1       0.030  10.619  19.823  0.00  0.00    +0.000 C 
BRANCH  17  18
ATOM     18  C   UNL     1       0.797  11.972  19.925  0.00  0.00    +0.000 C 
ATOM     19  F   UNL     1       1.706  11.977  20.934  0.00  0.00    +0.000 F 
ATOM     20  F   UNL     1       1.456  12.385  18.830  0.00  0.00    +0.000 F 
ATOM     21  F   UNL     1      -0.081  12.967  20.242  0.00  0.00    +0.000 F 
ENDBRANCH  17  18
BRANCH  17  22
ATOM     22  C   UNL     1      -1.196  10.780  18.879  0.00  0.00    +0.000 C 
ATOM     23  F   UNL     1      -1.679   9.584  18.457  0.00  0.00    +0.000 F 
ATOM     24  F   UNL     1      -2.232  11.392  19.513  0.00  0.00    +0.000 F 
ATOM     25  F   UNL     1      -0.980  11.500  17.761  0.00  0.00    +0.000 F 
ENDBRANCH  17  22
BRANCH  17  26
ATOM     26  O   UNL     1      -0.466  10.263  21.170  0.00  0.00    +0.000 OA
ATOM     27  H   UNL     1      -1.216   9.647  21.049  0.00  0.00    +0.000 HD
ENDBRANCH  17  26
ENDBRANCH   4  17
TORSDOF 7
ENDMDL
MODEL 3
REMARK VINA RESULT:      -7.8      1.137      1.522
REMARK  Name = 
REMARK  8 active torsions:
REMARK  status: ('A' for Active; 'I' for Inactive)
REMARK    1  A    between atoms: C_1  and  N_2
REMARK    2  A    between atoms: N_2  and  C_3
REMARK    3  A    between atoms: N_2  and  S_19
REMARK    4  A    between atoms: C_6  and  C_7
REMARK    5  A    between atoms: C_7  and  O_8
REMARK    6  A    between atoms: C_7  and  C_9
REMARK    7  A    between atoms: C_7  and  C_13
REMARK    8  A    between atoms: S_19  and  C_22
REMARK                            x       y       z     vdW  Elec       q    Type
REMARK                         _______ _______ _______ _____ _____    ______ ____
ROOT
ATOM      1  C   UNL     1       2.845   7.057  18.562  0.00  0.00    +0.000 A 
ATOM      2  C   UNL     1       2.839   8.021  17.563  0.00  0.00    +0.000 A 
ATOM      3  C   UNL     1       2.099   9.202  17.722  0.00  0.00    +0.000 A 
ATOM      4  C   UNL     1       1.326   9.438  18.880  0.00  0.00    +0.000 A 
ATOM      5  C   UNL     1       1.386   8.463  19.896  0.00  0.00    +0.000 A 
ATOM      6  C   UNL     1       2.135   7.286  19.738  0.00  0.00    +0.000 A 
ENDROOT
BRANCH   1   8
ATOM      7  C   UNL     1       4.965   5.919  17.879  0.00  0.00    +0.000 C 
ATOM      8  N   UNL     1       3.578   5.844  18.346  0.00  0.00    +0.000 N 
BRANCH   8   9
ATOM      9  S   UNL     1       2.718   4.417  18.042  0.00  0.00    +0.000 S 
ATOM     10  O   UNL     1       1.437   4.764  17.465  0.00  0.00    +0.000 OA
ATOM     11  O   UNL     1       3.599   3.473  17.371  0.00  0.00    +0.000 OA
BRANCH   9  12
ATOM     12  C   UNL     1       2.316   3.592  19.579  0.00  0.00    +0.000 A 
ATOM     13  C   UNL     1       1.167   3.603  20.348  0.00  0.00    +0.000 A 
ATOM     14  C   UNL     1       1.316   2.873  21.562  0.00  0.00    +0.000 A 
ATOM     15  C   UNL     1       2.566   2.302  21.666  0.00  0.00    +0.000 A 
ATOM     16  S   UNL     1       3.546   2.659  20.311  0.00  0.00    +0.000 S 
ENDBRANCH   9  12
ENDBRANCH   8   9
ENDBRANCH   1   8
BRANCH   4  17
ATOM     17  C   UNL     1       0.401  10.679  19.007  0.00  0.00    +0.000 C 
BRANCH  17  18
ATOM     18  C   UNL     1      -0.972  10.440  18.310  0.00  0.00    +0.000 C 
ATOM     19  F   UNL     1      -1.603  11.601  17.997  0.00  0.00    +0.000 F 
ATOM     20  F   UNL     1      -0.968   9.705  17.186  0.00  0.00    +0.000 F 
ATOM     21  F   UNL     1      -1.816   9.808  19.177  0.00  0.00    +0.000 F 
ENDBRANCH  17  18
BRANCH  17  22
ATOM     22  C   UNL     1       0.172  11.129  20.479  0.00  0.00    +0.000 C 
ATOM     23  F   UNL     1      -0.333  10.133  21.249  0.00  0.00    +0.000 F 
ATOM     24  F   UNL     1       1.341  11.495  21.072  0.00  0.00    +0.000 F 
ATOM     25  F   UNL     1      -0.661  12.175  20.645  0.00  0.00    +0.000 F 
ENDBRANCH  17  22
BRANCH  17  26
ATOM     26  O   UNL     1       1.103  11.767  18.294  0.00  0.00    +0.000 OA
ATOM     27  H   UNL     1       1.514  11.374  17.499  0.00  0.00    +0.000 HD
ENDBRANCH  17  26
ENDBRANCH   4  17
TORSDOF 7
ENDMDL
MODEL 4
REMARK VINA RESULT:      -7.8      0.346      1.271
REMARK  Name = 
REMARK  8 active torsions:
REMARK  status: ('A' for Active; 'I' for Inactive)
REMARK    1  A    between atoms: C_1  and  N_2
REMARK    2  A    between atoms: N_2  and  C_3
REMARK    3  A    between atoms: N_2  and  S_19
REMARK    4  A    between atoms: C_6  and  C_7
REMARK    5  A    between atoms: C_7  and  O_8
REMARK    6  A    between atoms: C_7  and  C_9
REMARK    7  A    between atoms: C_7  and  C_13
REMARK    8  A    between atoms: S_19  and  C_22
REMARK                            x       y       z     vdW  Elec       q    Type
REMARK                         _______ _______ _______ _____ _____    ______ ____
ROOT
ATOM      1  C   UNL     1       2.529   6.932  18.660  0.00  0.00    +0.000 A 
ATOM      2  C   UNL     1       2.169   6.827  19.996  0.00  0.00    +0.000 A 
ATOM      3  C   UNL     1       1.475   7.869  20.629  0.00  0.00    +0.000 A 
ATOM      4  C   UNL     1       1.141   9.056  19.941  0.00  0.00    +0.000 A 
ATOM      5  C   UNL     1       1.479   9.118  18.574  0.00  0.00    +0.000 A 
ATOM      6  C   UNL     1       2.166   8.069  17.942  0.00  0.00    +0.000 A 
ENDROOT
BRANCH   1   8
ATOM      7  C   UNL     1       4.423   6.185  17.207  0.00  0.00    +0.000 C 
ATOM      8  N   UNL     1       3.275   5.866  18.059  0.00  0.00    +0.000 N 
BRANCH   8   9
ATOM      9  S   UNL     1       2.513   4.370  17.829  0.00  0.00    +0.000 S 
ATOM     10  O   UNL     1       1.189   4.603  17.293  0.00  0.00    +0.000 OA
ATOM     11  O   UNL     1       3.437   3.473  17.153  0.00  0.00    +0.000 OA
BRANCH   9  12
ATOM     12  C   UNL     1       2.230   3.567  19.404  0.00  0.00    +0.000 A 
ATOM     13  C   UNL     1       1.085   3.430  20.167  0.00  0.00    +0.000 A 
ATOM     14  C   UNL     1       1.335   2.793  21.416  0.00  0.00    +0.000 A 
ATOM     15  C   UNL     1       2.659   2.436  21.553  0.00  0.00    +0.000 A 
ATOM     16  S   UNL     1       3.585   2.879  20.186  0.00  0.00    +0.000 S 
ENDBRANCH   9  12
ENDBRANCH   8   9
ENDBRANCH   1   8
BRANCH   4  17
ATOM     17  C   UNL     1       0.491  10.266  20.666  0.00  0.00    +0.000 C 
BRANCH  17  18
ATOM     18  C   UNL     1      -0.758  10.789  19.895  0.00  0.00    +0.000 C 
ATOM     19  F   UNL     1      -0.436  11.699  18.941  0.00  0.00    +0.000 F 
ATOM     20  F   UNL     1      -1.529   9.872  19.287  0.00  0.00    +0.000 F 
ATOM     21  F   UNL     1      -1.573  11.462  20.758  0.00  0.00    +0.000 F 
ENDBRANCH  17  18
BRANCH  17  22
ATOM     22  C   UNL     1       0.110   9.968  22.145  0.00  0.00    +0.000 C 
ATOM     23  F   UNL     1      -0.870   9.036  22.245  0.00  0.00    +0.000 F 
ATOM     24  F   UNL     1       1.168   9.465  22.837  0.00  0.00    +0.000 F 
ATOM     25  F   UNL     1      -0.320  11.026  22.860  0.00  0.00    +0.000 F 
ENDBRANCH  17  22
BRANCH  17  26
ATOM     26  O   UNL     1       1.520  11.328  20.658  0.00  0.00    +0.000 OA
ATOM     27  H   UNL     1       1.488  11.770  21.529  0.00  0.00    +0.000 HD
ENDBRANCH  17  26
ENDBRANCH   4  17
TORSDOF 7
ENDMDL
MODEL 5
REMARK VINA RESULT:      -7.7      1.158      1.738
REMARK  Name = 
REMARK  8 active torsions:
REMARK  status: ('A' for Active; 'I' for Inactive)
REMARK    1  A    between atoms: C_1  and  N_2
REMARK    2  A    between atoms: N_2  and  C_3
REMARK    3  A    between atoms: N_2  and  S_19
REMARK    4  A    between atoms: C_6  and  C_7
REMARK    5  A    between atoms: C_7  and  O_8
REMARK    6  A    between atoms: C_7  and  C_9
REMARK    7  A    between atoms: C_7  and  C_13
REMARK    8  A    between atoms: S_19  and  C_22
REMARK                            x       y       z     vdW  Elec       q    Type
REMARK                         _______ _______ _______ _____ _____    ______ ____
ROOT
ATOM      1  C   UNL     1       2.815   7.089  18.559  0.00  0.00    +0.000 A 
ATOM      2  C   UNL     1       2.824   8.051  17.559  0.00  0.00    +0.000 A 
ATOM      3  C   UNL     1       2.098   9.242  17.712  0.00  0.00    +0.000 A 
ATOM      4  C   UNL     1       1.323   9.489  18.867  0.00  0.00    +0.000 A 
ATOM      5  C   UNL     1       1.367   8.515  19.885  0.00  0.00    +0.000 A 
ATOM      6  C   UNL     1       2.102   7.329  19.732  0.00  0.00    +0.000 A 
ENDROOT
BRANCH   1   8
ATOM      7  C   UNL     1       4.923   5.925  17.887  0.00  0.00    +0.000 C 
ATOM      8  N   UNL     1       3.534   5.868  18.349  0.00  0.00    +0.000 N 
BRANCH   8   9
ATOM      9  S   UNL     1       2.658   4.450  18.045  0.00  0.00    +0.000 S 
ATOM     10  O   UNL     1       1.365   4.813  17.507  0.00  0.00    +0.000 OA
ATOM     11  O   UNL     1       3.517   3.512  17.337  0.00  0.00    +0.000 OA
BRANCH   9  12
ATOM     12  C   UNL     1       2.291   3.603  19.578  0.00  0.00    +0.000 A 
ATOM     13  C   UNL     1       1.148   3.577  20.357  0.00  0.00    +0.000 A 
ATOM     14  C   UNL     1       1.327   2.843  21.564  0.00  0.00    +0.000 A 
ATOM     15  C   UNL     1       2.593   2.305  21.654  0.00  0.00    +0.000 A 
ATOM     16  S   UNL     1       3.552   2.698  20.294  0.00  0.00    +0.000 S 
ENDBRANCH   9  12
ENDBRANCH   8   9
ENDBRANCH   1   8
BRANCH   4  17
ATOM     17  C   UNL     1       0.412  10.741  18.988  0.00  0.00    +0.000 C 
BRANCH  17  18
ATOM     18  C   UNL     1      -0.988  10.492  18.350  0.00  0.00    +0.000 C 
ATOM     19  F   UNL     1      -1.814   9.793  19.169  0.00  0.00    +0.000 F 
ATOM     20  F   UNL     1      -1.681  11.573  17.957  0.00  0.00    +0.000 F 
ATOM     21  F   UNL     1      -0.847   9.705  17.243  0.00  0.00    +0.000 F 
ENDBRANCH  17  18
BRANCH  17  22
ATOM     22  C   UNL     1       0.241  11.240  20.452  0.00  0.00    +0.000 C 
ATOM     23  F   UNL     1      -0.548  12.340  20.531  0.00  0.00    +0.000 F 
ATOM     24  F   UNL     1      -0.360  10.299  21.229  0.00  0.00    +0.000 F 
ATOM     25  F   UNL     1       1.381  11.564  21.094  0.00  0.00    +0.000 F 
ENDBRANCH  17  22
BRANCH  17  26
ATOM     26  O   UNL     1       1.095  11.800  18.215  0.00  0.00    +0.000 OA
ATOM     27  H   UNL     1       2.038  11.785  18.473  0.00  0.00    +0.000 HD
ENDBRANCH  17  26
ENDBRANCH   4  17
TORSDOF 7
ENDMDL
MODEL 6
REMARK VINA RESULT:      -7.7      4.530      7.131
REMARK  Name = 
REMARK  8 active torsions:
REMARK  status: ('A' for Active; 'I' for Inactive)
REMARK    1  A    between atoms: C_1  and  N_2
REMARK    2  A    between atoms: N_2  and  C_3
REMARK    3  A    between atoms: N_2  and  S_19
REMARK    4  A    between atoms: C_6  and  C_7
REMARK    5  A    between atoms: C_7  and  O_8
REMARK    6  A    between atoms: C_7  and  C_9
REMARK    7  A    between atoms: C_7  and  C_13
REMARK    8  A    between atoms: S_19  and  C_22
REMARK                            x       y       z     vdW  Elec       q    Type
REMARK                         _______ _______ _______ _____ _____    ______ ____
ROOT
ATOM      1  C   UNL     1       1.490   9.242  18.942  0.00  0.00    +0.000 A 
ATOM      2  C   UNL     1       1.377   8.737  20.230  0.00  0.00    +0.000 A 
ATOM      3  C   UNL     1       1.802   7.432  20.521  0.00  0.00    +0.000 A 
ATOM      4  C   UNL     1       2.331   6.589  19.519  0.00  0.00    +0.000 A 
ATOM      5  C   UNL     1       2.476   7.143  18.231  0.00  0.00    +0.000 A 
ATOM      6  C   UNL     1       2.059   8.452  17.946  0.00  0.00    +0.000 A 
ENDROOT
BRANCH   1   8
ATOM      7  C   UNL     1       1.967  11.634  18.389  0.00  0.00    +0.000 C 
ATOM      8  N   UNL     1       1.007  10.564  18.674  0.00  0.00    +0.000 N 
BRANCH   8   9
ATOM      9  S   UNL     1      -0.517  11.008  19.265  0.00  0.00    +0.000 S 
ATOM     10  O   UNL     1      -0.840  10.162  20.394  0.00  0.00    +0.000 OA
ATOM     11  O   UNL     1      -0.567  12.457  19.389  0.00  0.00    +0.000 OA
BRANCH   9  12
ATOM     12  C   UNL     1      -1.784  10.650  18.052  0.00  0.00    +0.000 A 
ATOM     13  C   UNL     1      -1.778   9.827  16.941  0.00  0.00    +0.000 A 
ATOM     14  C   UNL     1      -2.984   9.917  16.188  0.00  0.00    +0.000 A 
ATOM     15  C   UNL     1      -3.885  10.784  16.767  0.00  0.00    +0.000 A 
ATOM     16  S   UNL     1      -3.267  11.485  18.199  0.00  0.00    +0.000 S 
ENDBRANCH   9  12
ENDBRANCH   8   9
ENDBRANCH   1   8
BRANCH   4  17
ATOM     17  C   UNL     1       2.680   5.102  19.801  0.00  0.00    +0.000 C 
BRANCH  17  18
ATOM     18  C   UNL     1       1.594   4.143  19.228  0.00  0.00    +0.000 C 
ATOM     19  F   UNL     1       1.181   4.510  17.988  0.00  0.00    +0.000 F 
ATOM     20  F   UNL     1       1.912   2.841  19.142  0.00  0.00    +0.000 F 
ATOM     21  F   UNL     1       0.473   4.213  20.003  0.00  0.00    +0.000 F 
ENDBRANCH  17  18
BRANCH  17  22
ATOM     22  C   UNL     1       4.083   4.686  19.271  0.00  0.00    +0.000 C 
ATOM     23  F   UNL     1       4.520   3.529  19.828  0.00  0.00    +0.000 F 
ATOM     24  F   UNL     1       4.059   4.463  17.930  0.00  0.00    +0.000 F 
ATOM     25  F   UNL     1       5.070   5.582  19.472  0.00  0.00    +0.000 F 
ENDBRANCH  17  22
BRANCH  17  26
ATOM     26  O   UNL     1       2.685   4.973  21.274  0.00  0.00    +0.000 OA
ATOM     27  H   UNL     1       2.004   4.312  21.509  0.00  0.00    +0.000 HD
ENDBRANCH  17  26
ENDBRANCH   4  17
TORSDOF 7
ENDMDL
MODEL 7
REMARK VINA RESULT:      -7.7      4.632      7.241
REMARK  Name = 
REMARK  8 active torsions:
REMARK  status: ('A' for Active; 'I' for Inactive)
REMARK    1  A    between atoms: C_1  and  N_2
REMARK    2  A    between atoms: N_2  and  C_3
REMARK    3  A    between atoms: N_2  and  S_19
REMARK    4  A    between atoms: C_6  and  C_7
REMARK    5  A    between atoms: C_7  and  O_8
REMARK    6  A    between atoms: C_7  and  C_9
REMARK    7  A    between atoms: C_7  and  C_13
REMARK    8  A    between atoms: S_19  and  C_22
REMARK                            x       y       z     vdW  Elec       q    Type
REMARK                         _______ _______ _______ _____ _____    ______ ____
ROOT
ATOM      1  C   UNL     1       1.339   9.714  18.927  0.00  0.00    +0.000 A 
ATOM      2  C   UNL     1       1.742   9.128  17.735  0.00  0.00    +0.000 A 
ATOM      3  C   UNL     1       2.230   7.813  17.720  0.00  0.00    +0.000 A 
ATOM      4  C   UNL     1       2.349   7.058  18.907  0.00  0.00    +0.000 A 
ATOM      5  C   UNL     1       1.892   7.661  20.095  0.00  0.00    +0.000 A 
ATOM      6  C   UNL     1       1.395   8.974  20.105  0.00  0.00    +0.000 A 
ENDROOT
BRANCH   1   8
ATOM      7  C   UNL     1       1.868  12.158  18.960  0.00  0.00    +0.000 C 
ATOM      8  N   UNL     1       0.885  11.073  18.909  0.00  0.00    +0.000 N 
BRANCH   8   9
ATOM      9  S   UNL     1      -0.691  11.411  19.433  0.00  0.00    +0.000 S 
ATOM     10  O   UNL     1      -0.967  10.616  20.610  0.00  0.00    +0.000 OA
ATOM     11  O   UNL     1      -0.878  12.854  19.454  0.00  0.00    +0.000 OA
BRANCH   9  12
ATOM     12  C   UNL     1      -1.883  10.855  18.219  0.00  0.00    +0.000 A 
ATOM     13  C   UNL     1      -1.774   9.948  17.180  0.00  0.00    +0.000 A 
ATOM     14  C   UNL     1      -2.957   9.879  16.390  0.00  0.00    +0.000 A 
ATOM     15  C   UNL     1      -3.942  10.714  16.869  0.00  0.00    +0.000 A 
ATOM     16  S   UNL     1      -3.432  11.576  18.254  0.00  0.00    +0.000 S 
ENDBRANCH   9  12
ENDBRANCH   8   9
ENDBRANCH   1   8
BRANCH   4  17
ATOM     17  C   UNL     1       3.011   5.653  18.919  0.00  0.00    +0.000 C 
BRANCH  17  18
ATOM     18  C   UNL     1       1.997   4.541  18.515  0.00  0.00    +0.000 C 
ATOM     19  F   UNL     1       1.075   4.302  19.482  0.00  0.00    +0.000 F 
ATOM     20  F   UNL     1       1.303   4.730  17.380  0.00  0.00    +0.000 F 
ATOM     21  F   UNL     1       2.659   3.357  18.365  0.00  0.00    +0.000 F 
ENDBRANCH  17  18
BRANCH  17  22
ATOM     22  C   UNL     1       4.279   5.560  18.023  0.00  0.00    +0.000 C 
ATOM     23  F   UNL     1       3.974   5.295  16.727  0.00  0.00    +0.000 F 
ATOM     24  F   UNL     1       4.962   6.736  18.006  0.00  0.00    +0.000 F 
ATOM     25  F   UNL     1       5.180   4.625  18.383  0.00  0.00    +0.000 F 
ENDBRANCH  17  22
BRANCH  17  26
ATOM     26  O   UNL     1       3.418   5.423  20.322  0.00  0.00    +0.000 OA
ATOM     27  H   UNL     1       3.320   6.273  20.795  0.00  0.00    +0.000 HD
ENDBRANCH  17  26
ENDBRANCH   4  17
TORSDOF 7
ENDMDL
MODEL 8
REMARK VINA RESULT:      -7.7      1.385      2.199
REMARK  Name = 
REMARK  8 active torsions:
REMARK  status: ('A' for Active; 'I' for Inactive)
REMARK    1  A    between atoms: C_1  and  N_2
REMARK    2  A    between atoms: N_2  and  C_3
REMARK    3  A    between atoms: N_2  and  S_19
REMARK    4  A    between atoms: C_6  and  C_7
REMARK    5  A    between atoms: C_7  and  O_8
REMARK    6  A    between atoms: C_7  and  C_9
REMARK    7  A    between atoms: C_7  and  C_13
REMARK    8  A    between atoms: S_19  and  C_22
REMARK                            x       y       z     vdW  Elec       q    Type
REMARK                         _______ _______ _______ _____ _____    ______ ____
ROOT
ATOM      1  C   UNL     1       2.546   7.111  18.545  0.00  0.00    +0.000 A 
ATOM      2  C   UNL     1       2.217   8.119  17.649  0.00  0.00    +0.000 A 
ATOM      3  C   UNL     1       1.476   9.232  18.073  0.00  0.00    +0.000 A 
ATOM      4  C   UNL     1       1.023   9.352  19.405  0.00  0.00    +0.000 A 
ATOM      5  C   UNL     1       1.408   8.336  20.303  0.00  0.00    +0.000 A 
ATOM      6  C   UNL     1       2.158   7.229  19.878  0.00  0.00    +0.000 A 
ENDROOT
BRANCH   1   8
ATOM      7  C   UNL     1       4.500   6.171  17.300  0.00  0.00    +0.000 C 
ATOM      8  N   UNL     1       3.268   5.970  18.067  0.00  0.00    +0.000 N 
BRANCH   8   9
ATOM      9  S   UNL     1       2.434   4.511  17.851  0.00  0.00    +0.000 S 
ATOM     10  O   UNL     1       1.103   4.807  17.367  0.00  0.00    +0.000 OA
ATOM     11  O   UNL     1       3.293   3.583  17.131  0.00  0.00    +0.000 OA
BRANCH   9  12
ATOM     12  C   UNL     1       2.176   3.703  19.427  0.00  0.00    +0.000 A 
ATOM     13  C   UNL     1       1.069   3.648  20.255  0.00  0.00    +0.000 A 
ATOM     14  C   UNL     1       1.336   2.968  21.478  0.00  0.00    +0.000 A 
ATOM     15  C   UNL     1       2.630   2.497  21.530  0.00  0.00    +0.000 A 
ATOM     16  S   UNL     1       3.510   2.888  20.118  0.00  0.00    +0.000 S 
ENDBRANCH   9  12
ENDBRANCH   8   9
ENDBRANCH   1   8
BRANCH   4  17
ATOM     17  C   UNL     1       0.091  10.511  19.851  0.00  0.00    +0.000 C 
BRANCH  17  18
ATOM     18  C   UNL     1       0.877  11.848  20.006  0.00  0.00    +0.000 C 
ATOM     19  F   UNL     1       0.056  12.926  20.083  0.00  0.00    +0.000 F 
ATOM     20  F   UNL     1       1.717  11.946  21.049  0.00  0.00    +0.000 F 
ATOM     21  F   UNL     1       1.630  12.062  18.887  0.00  0.00    +0.000 F 
ENDBRANCH  17  18
BRANCH  17  22
ATOM     22  C   UNL     1      -1.127  10.723  18.905  0.00  0.00    +0.000 C 
ATOM     23  F   UNL     1      -0.797  11.429  17.794  0.00  0.00    +0.000 F 
ATOM     24  F   UNL     1      -1.616   9.537  18.454  0.00  0.00    +0.000 F 
ATOM     25  F   UNL     1      -2.179  11.367  19.446  0.00  0.00    +0.000 F 
ENDBRANCH  17  22
BRANCH  17  26
ATOM     26  O   UNL     1      -0.420  10.115  21.180  0.00  0.00    +0.000 OA
ATOM     27  H   UNL     1      -1.095   9.422  21.037  0.00  0.00    +0.000 HD
ENDBRANCH  17  26
ENDBRANCH   4  17
TORSDOF 7
ENDMDL
MODEL 9
REMARK VINA RESULT:      -7.7      1.077      2.088
REMARK  Name = 
REMARK  8 active torsions:
REMARK  status: ('A' for Active; 'I' for Inactive)
REMARK    1  A    between atoms: C_1  and  N_2
REMARK    2  A    between atoms: N_2  and  C_3
REMARK    3  A    between atoms: N_2  and  S_19
REMARK    4  A    between atoms: C_6  and  C_7
REMARK    5  A    between atoms: C_7  and  O_8
REMARK    6  A    between atoms: C_7  and  C_9
REMARK    7  A    between atoms: C_7  and  C_13
REMARK    8  A    between atoms: S_19  and  C_22
REMARK                            x       y       z     vdW  Elec       q    Type
REMARK                         _______ _______ _______ _____ _____    ______ ____
ROOT
ATOM      1  C   UNL     1       2.641   6.797  18.521  0.00  0.00    +0.000 A 
ATOM      2  C   UNL     1       2.228   7.835  17.698  0.00  0.00    +0.000 A 
ATOM      3  C   UNL     1       1.521   8.924  18.229  0.00  0.00    +0.000 A 
ATOM      4  C   UNL     1       1.190   8.990  19.600  0.00  0.00    +0.000 A 
ATOM      5  C   UNL     1       1.659   7.944  20.420  0.00  0.00    +0.000 A 
ATOM      6  C   UNL     1       2.374   6.861  19.886  0.00  0.00    +0.000 A 
ENDROOT
BRANCH   1   8
ATOM      7  C   UNL     1       4.456   5.924  17.038  0.00  0.00    +0.000 C 
ATOM      8  N   UNL     1       3.324   5.681  17.936  0.00  0.00    +0.000 N 
BRANCH   8   9
ATOM      9  S   UNL     1       2.496   4.211  17.783  0.00  0.00    +0.000 S 
ATOM     10  O   UNL     1       1.173   4.478  17.261  0.00  0.00    +0.000 OA
ATOM     11  O   UNL     1       3.368   3.249  17.127  0.00  0.00    +0.000 OA
BRANCH   9  12
ATOM     12  C   UNL     1       2.211   3.485  19.394  0.00  0.00    +0.000 A 
ATOM     13  C   UNL     1       1.073   3.416  20.177  0.00  0.00    +0.000 A 
ATOM     14  C   UNL     1       1.321   2.827  21.449  0.00  0.00    +0.000 A 
ATOM     15  C   UNL     1       2.636   2.437  21.585  0.00  0.00    +0.000 A 
ATOM     16  S   UNL     1       3.556   2.793  20.189  0.00  0.00    +0.000 S 
ENDBRANCH   9  12
ENDBRANCH   8   9
ENDBRANCH   1   8
BRANCH   4  17
ATOM     17  C   UNL     1       0.295  10.123  20.172  0.00  0.00    +0.000 C 
BRANCH  17  18
ATOM     18  C   UNL     1      -0.101   9.844  21.653  0.00  0.00    +0.000 C 
ATOM     19  F   UNL     1      -0.810   8.695  21.793  0.00  0.00    +0.000 F 
ATOM     20  F   UNL     1       0.897   9.776  22.550  0.00  0.00    +0.000 F 
ATOM     21  F   UNL     1      -0.941  10.828  22.089  0.00  0.00    +0.000 F 
ENDBRANCH  17  18
BRANCH  17  22
ATOM     22  C   UNL     1       0.939  11.535  20.056  0.00  0.00    +0.000 C 
ATOM     23  F   UNL     1       1.801  11.623  19.012  0.00  0.00    +0.000 F 
ATOM     24  F   UNL     1      -0.002  12.492  19.838  0.00  0.00    +0.000 F 
ATOM     25  F   UNL     1       1.632  11.949  21.135  0.00  0.00    +0.000 F 
ENDBRANCH  17  22
BRANCH  17  26
ATOM     26  O   UNL     1      -0.934  10.106  19.350  0.00  0.00    +0.000 OA
ATOM     27  H   UNL     1      -0.762  10.656  18.561  0.00  0.00    +0.000 HD
ENDBRANCH  17  26
ENDBRANCH   4  17
TORSDOF 7
ENDMDL
