MODEL 1
REMARK VINA RESULT:      -7.1      0.000      0.000
REMARK  Name = 
REMARK  6 active torsions:
REMARK  status: ('A' for Active; 'I' for Inactive)
REMARK    1  A    between atoms: C_1  and  C_2
REMARK    2  A    between atoms: C_6  and  N_7
REMARK    3  A    between atoms: N_12  and  C_13
REMARK    4  A    between atoms: C_13  and  C_14
REMARK    5  A    between atoms: C_14  and  C_15
REMARK    6  A    between atoms: C_15  and  O_16
REMARK                            x       y       z     vdW  Elec       q    Type
REMARK                         _______ _______ _______ _____ _____    ______ ____
ROOT
ATOM      1  N   UNL     1       5.241   5.185  15.654  0.00  0.00    +0.000 N 
ATOM      2  N   UNL     1       5.185   6.511  15.997  0.00  0.00    +0.000 NA
ATOM      3  C   UNL     1       4.445   6.539  17.104  0.00  0.00    +0.000 A 
ATOM      4  C   UNL     1       4.022   5.266  17.519  0.00  0.00    +0.000 A 
ATOM      5  C   UNL     1       3.312   4.721  18.597  0.00  0.00    +0.000 A 
ATOM      6  N   UNL     1       2.726   5.505  19.568  0.00  0.00    +0.000 N 
ATOM      7  N   UNL     1       3.167   3.374  18.644  0.00  0.00    +0.000 NA
ATOM      8  C   UNL     1       3.719   2.633  17.665  0.00  0.00    +0.000 A 
ATOM      9  N   UNL     1       4.420   3.054  16.605  0.00  0.00    +0.000 NA
ATOM     10  C   UNL     1       4.552   4.397  16.578  0.00  0.00    +0.000 A 
ATOM     11  H   UNL     1       2.649   6.502  19.423  0.00  0.00    +0.000 HD
ENDROOT
BRANCH   1  17
ATOM     12  C   UNL     1       5.572   2.431  11.521  0.00  0.00    +0.000 C 
ATOM     13  C   UNL     1       6.157   3.452  12.451  0.00  0.00    +0.000 A 
ATOM     14  C   UNL     1       7.377   4.075  12.169  0.00  0.00    +0.000 A 
ATOM     15  C   UNL     1       7.884   5.046  13.029  0.00  0.00    +0.000 A 
ATOM     16  C   UNL     1       7.173   5.410  14.174  0.00  0.00    +0.000 A 
ATOM     17  C   UNL     1       5.951   4.791  14.480  0.00  0.00    +0.000 A 
ATOM     18  C   UNL     1       5.453   3.809  13.613  0.00  0.00    +0.000 A 
ENDBRANCH   1  17
BRANCH   6  19
ATOM     19  C   UNL     1       2.512   4.985  20.906  0.00  0.00    +0.000 C 
BRANCH  19  20
ATOM     20  C   UNL     1       1.267   4.108  20.933  0.00  0.00    +0.000 C 
BRANCH  20  21
ATOM     21  C   UNL     1       1.492   2.763  21.613  0.00  0.00    +0.000 C 
BRANCH  21  22
ATOM     22  O   UNL     1       2.875   2.541  21.857  0.00  0.00    +0.000 OA
ATOM     23  H   UNL     1       3.322   2.650  20.992  0.00  0.00    +0.000 HD
ENDBRANCH  21  22
ENDBRANCH  20  21
ENDBRANCH  19  20
ENDBRANCH   6  19
TORSDOF 5
ENDMDL
MODEL 2
REMARK VINA RESULT:      -7.1      5.075      7.574
REMARK  Name = 
REMARK  6 active torsions:
REMARK  status: ('A' for Active; 'I' for Inactive)
REMARK    1  A    between atoms: C_1  and  C_2
REMARK    2  A    between atoms: C_6  and  N_7
REMARK    3  A    between atoms: N_12  and  C_13
REMARK    4  A    between atoms: C_13  and  C_14
REMARK    5  A    between atoms: C_14  and  C_15
REMARK    6  A    between atoms: C_15  and  O_16
REMARK                            x       y       z     vdW  Elec       q    Type
REMARK                         _______ _______ _______ _____ _____    ______ ____
ROOT
ATOM      1  N   UNL     1       2.487   6.880  19.050  0.00  0.00    +0.000 N 
ATOM      2  N   UNL     1       2.824   7.283  17.783  0.00  0.00    +0.000 NA
ATOM      3  C   UNL     1       2.343   8.522  17.688  0.00  0.00    +0.000 A 
ATOM      4  C   UNL     1       1.712   8.962  18.862  0.00  0.00    +0.000 A 
ATOM      5  C   UNL     1       1.114  10.141  19.327  0.00  0.00    +0.000 A 
ATOM      6  N   UNL     1       0.937  11.247  18.521  0.00  0.00    +0.000 N 
ATOM      7  N   UNL     1       0.657  10.161  20.602  0.00  0.00    +0.000 NA
ATOM      8  C   UNL     1       0.810   9.057  21.357  0.00  0.00    +0.000 A 
ATOM      9  N   UNL     1       1.373   7.891  21.013  0.00  0.00    +0.000 NA
ATOM     10  C   UNL     1       1.820   7.895  19.740  0.00  0.00    +0.000 A 
ATOM     11  H   UNL     1       1.078  11.163  17.524  0.00  0.00    +0.000 HD
ENDROOT
BRANCH   1  17
ATOM     12  C   UNL     1       1.395   2.725  21.564  0.00  0.00    +0.000 C 
ATOM     13  C   UNL     1       2.345   3.518  20.715  0.00  0.00    +0.000 A 
ATOM     14  C   UNL     1       3.563   2.977  20.294  0.00  0.00    +0.000 A 
ATOM     15  C   UNL     1       4.415   3.718  19.477  0.00  0.00    +0.000 A 
ATOM     16  C   UNL     1       4.052   5.002  19.067  0.00  0.00    +0.000 A 
ATOM     17  C   UNL     1       2.836   5.567  19.487  0.00  0.00    +0.000 A 
ATOM     18  C   UNL     1       1.991   4.817  20.315  0.00  0.00    +0.000 A 
ENDBRANCH   1  17
BRANCH   6  19
ATOM     19  C   UNL     1       0.868  12.576  19.099  0.00  0.00    +0.000 C 
BRANCH  19  20
ATOM     20  C   UNL     1      -0.395  13.286  18.627  0.00  0.00    +0.000 C 
BRANCH  20  21
ATOM     21  C   UNL     1      -1.551  12.334  18.344  0.00  0.00    +0.000 C 
BRANCH  21  22
ATOM     22  O   UNL     1      -1.724  12.143  16.947  0.00  0.00    +0.000 OA
ATOM     23  H   UNL     1      -2.622  11.768  16.835  0.00  0.00    +0.000 HD
ENDBRANCH  21  22
ENDBRANCH  20  21
ENDBRANCH  19  20
ENDBRANCH   6  19
TORSDOF 5
ENDMDL
MODEL 3
REMARK VINA RESULT:      -7.0      4.745      6.391
REMARK  Name = 
REMARK  6 active torsions:
REMARK  status: ('A' for Active; 'I' for Inactive)
REMARK    1  A    between atoms: C_1  and  C_2
REMARK    2  A    between atoms: C_6  and  N_7
REMARK    3  A    between atoms: N_12  and  C_13
REMARK    4  A    between atoms: C_13  and  C_14
REMARK    5  A    between atoms: C_14  and  C_15
REMARK    6  A    between atoms: C_15  and  O_16
REMARK                            x       y       z     vdW  Elec       q    Type
REMARK                         _______ _______ _______ _____ _____    ______ ____
ROOT
ATOM      1  N   UNL     1       2.448   7.721  18.230  0.00  0.00    +0.000 N 
ATOM      2  N   UNL     1       2.354   8.715  17.290  0.00  0.00    +0.000 NA
ATOM      3  C   UNL     1       1.682   9.689  17.900  0.00  0.00    +0.000 A 
ATOM      4  C   UNL     1       1.342   9.380  19.227  0.00  0.00    +0.000 A 
ATOM      5  C   UNL     1       0.723  10.026  20.306  0.00  0.00    +0.000 A 
ATOM      6  N   UNL     1       0.163  11.281  20.193  0.00  0.00    +0.000 N 
ATOM      7  N   UNL     1       0.640   9.358  21.482  0.00  0.00    +0.000 NA
ATOM      8  C   UNL     1       1.164   8.120  21.557  0.00  0.00    +0.000 A 
ATOM      9  N   UNL     1       1.781   7.424  20.593  0.00  0.00    +0.000 NA
ATOM     10  C   UNL     1       1.851   8.108  19.432  0.00  0.00    +0.000 A 
ATOM     11  H   UNL     1       0.033  11.687  19.276  0.00  0.00    +0.000 HD
ENDROOT
BRANCH   1  17
ATOM     12  C   UNL     1       2.346   2.775  17.674  0.00  0.00    +0.000 C 
ATOM     13  C   UNL     1       3.097   4.073  17.622  0.00  0.00    +0.000 A 
ATOM     14  C   UNL     1       4.430   4.121  17.203  0.00  0.00    +0.000 A 
ATOM     15  C   UNL     1       5.098   5.342  17.128  0.00  0.00    +0.000 A 
ATOM     16  C   UNL     1       4.437   6.525  17.464  0.00  0.00    +0.000 A 
ATOM     17  C   UNL     1       3.102   6.496  17.897  0.00  0.00    +0.000 A 
ATOM     18  C   UNL     1       2.441   5.263  17.976  0.00  0.00    +0.000 A 
ENDBRANCH   1  17
BRANCH   6  19
ATOM     19  C   UNL     1       0.054  12.146  21.352  0.00  0.00    +0.000 C 
BRANCH  19  20
ATOM     20  C   UNL     1      -1.412  12.355  21.713  0.00  0.00    +0.000 C 
BRANCH  20  21
ATOM     21  C   UNL     1      -1.803  11.716  23.040  0.00  0.00    +0.000 C 
BRANCH  21  22
ATOM     22  O   UNL     1      -0.866  10.717  23.419  0.00  0.00    +0.000 OA
ATOM     23  H   UNL     1      -0.856  10.066  22.686  0.00  0.00    +0.000 HD
ENDBRANCH  21  22
ENDBRANCH  20  21
ENDBRANCH  19  20
ENDBRANCH   6  19
TORSDOF 5
ENDMDL
MODEL 4
REMARK VINA RESULT:      -7.0      5.135      7.749
REMARK  Name = 
REMARK  6 active torsions:
REMARK  status: ('A' for Active; 'I' for Inactive)
REMARK    1  A    between atoms: C_1  and  C_2
REMARK    2  A    between atoms: C_6  and  N_7
REMARK    3  A    between atoms: N_12  and  C_13
REMARK    4  A    between atoms: C_13  and  C_14
REMARK    5  A    between atoms: C_14  and  C_15
REMARK    6  A    between atoms: C_15  and  O_16
REMARK                            x       y       z     vdW  Elec       q    Type
REMARK                         _______ _______ _______ _____ _____    ______ ____
ROOT
ATOM      1  N   UNL     1       2.212   7.241  19.199  0.00  0.00    +0.000 N 
ATOM      2  N   UNL     1       2.360   7.691  17.912  0.00  0.00    +0.000 NA
ATOM      3  C   UNL     1       1.858   8.924  17.929  0.00  0.00    +0.000 A 
ATOM      4  C   UNL     1       1.395   9.316  19.195  0.00  0.00    +0.000 A 
ATOM      5  C   UNL     1       0.857  10.470  19.780  0.00  0.00    +0.000 A 
ATOM      6  N   UNL     1       0.555  11.598  19.047  0.00  0.00    +0.000 N 
ATOM      7  N   UNL     1       0.586  10.441  21.108  0.00  0.00    +0.000 NA
ATOM      8  C   UNL     1       0.857   9.315  21.795  0.00  0.00    +0.000 A 
ATOM      9  N   UNL     1       1.377   8.171  21.334  0.00  0.00    +0.000 NA
ATOM     10  C   UNL     1       1.639   8.222  20.011  0.00  0.00    +0.000 A 
ATOM     11  H   UNL     1       0.553  11.550  18.037  0.00  0.00    +0.000 HD
ENDROOT
BRANCH   1  17
ATOM     12  C   UNL     1       1.347   2.846  21.369  0.00  0.00    +0.000 C 
ATOM     13  C   UNL     1       2.255   3.756  20.595  0.00  0.00    +0.000 A 
ATOM     14  C   UNL     1       3.506   3.321  20.147  0.00  0.00    +0.000 A 
ATOM     15  C   UNL     1       4.318   4.172  19.400  0.00  0.00    +0.000 A 
ATOM     16  C   UNL     1       3.884   5.462  19.088  0.00  0.00    +0.000 A 
ATOM     17  C   UNL     1       2.635   5.920  19.536  0.00  0.00    +0.000 A 
ATOM     18  C   UNL     1       1.829   5.060  20.294  0.00  0.00    +0.000 A 
ENDBRANCH   1  17
BRANCH   6  19
ATOM     19  C   UNL     1       0.554  12.906  19.674  0.00  0.00    +0.000 C 
BRANCH  19  20
ATOM     20  C   UNL     1       1.333  13.897  18.818  0.00  0.00    +0.000 C 
BRANCH  20  21
ATOM     21  C   UNL     1       2.706  13.383  18.401  0.00  0.00    +0.000 C 
BRANCH  21  22
ATOM     22  O   UNL     1       2.602  12.492  17.298  0.00  0.00    +0.000 OA
ATOM     23  H   UNL     1       3.433  11.974  17.292  0.00  0.00    +0.000 HD
ENDBRANCH  21  22
ENDBRANCH  20  21
ENDBRANCH  19  20
ENDBRANCH   6  19
TORSDOF 5
ENDMDL
MODEL 5
REMARK VINA RESULT:      -7.0      4.198      8.218
REMARK  Name = 
REMARK  6 active torsions:
REMARK  status: ('A' for Active; 'I' for Inactive)
REMARK    1  A    between atoms: C_1  and  C_2
REMARK    2  A    between atoms: C_6  and  N_7
REMARK    3  A    between atoms: N_12  and  C_13
REMARK    4  A    between atoms: C_13  and  C_14
REMARK    5  A    between atoms: C_14  and  C_15
REMARK    6  A    between atoms: C_15  and  O_16
REMARK                            x       y       z     vdW  Elec       q    Type
REMARK                         _______ _______ _______ _____ _____    ______ ____
ROOT
ATOM      1  N   UNL     1       1.775   8.432  19.470  0.00  0.00    +0.000 N 
ATOM      2  N   UNL     1       2.147   9.064  18.311  0.00  0.00    +0.000 NA
ATOM      3  C   UNL     1       2.898   8.171  17.669  0.00  0.00    +0.000 A 
ATOM      4  C   UNL     1       3.022   6.955  18.359  0.00  0.00    +0.000 A 
ATOM      5  C   UNL     1       3.610   5.702  18.135  0.00  0.00    +0.000 A 
ATOM      6  N   UNL     1       4.385   5.438  17.025  0.00  0.00    +0.000 N 
ATOM      7  N   UNL     1       3.438   4.744  19.077  0.00  0.00    +0.000 NA
ATOM      8  C   UNL     1       2.706   5.037  20.168  0.00  0.00    +0.000 A 
ATOM      9  N   UNL     1       2.099   6.193  20.469  0.00  0.00    +0.000 NA
ATOM     10  C   UNL     1       2.283   7.132  19.518  0.00  0.00    +0.000 A 
ATOM     11  H   UNL     1       4.689   6.202  16.437  0.00  0.00    +0.000 HD
ENDROOT
BRANCH   1  17
ATOM     12  C   UNL     1      -1.580  11.946  20.553  0.00  0.00    +0.000 C 
ATOM     13  C   UNL     1      -0.668  10.840  20.996  0.00  0.00    +0.000 A 
ATOM     14  C   UNL     1      -0.624  10.430  22.332  0.00  0.00    +0.000 A 
ATOM     15  C   UNL     1       0.205   9.377  22.716  0.00  0.00    +0.000 A 
ATOM     16  C   UNL     1       0.990   8.720  21.766  0.00  0.00    +0.000 A 
ATOM     17  C   UNL     1       0.967   9.124  20.421  0.00  0.00    +0.000 A 
ATOM     18  C   UNL     1       0.137  10.189  20.047  0.00  0.00    +0.000 A 
ENDBRANCH   1  17
BRANCH   6  19
ATOM     19  C   UNL     1       4.502   4.085  16.513  0.00  0.00    +0.000 C 
BRANCH  19  20
ATOM     20  C   UNL     1       5.761   3.954  15.666  0.00  0.00    +0.000 C 
BRANCH  20  21
ATOM     21  C   UNL     1       7.005   4.514  16.345  0.00  0.00    +0.000 C 
BRANCH  21  22
ATOM     22  O   UNL     1       7.345   5.787  15.813  0.00  0.00    +0.000 OA
ATOM     23  H   UNL     1       8.323   5.843  15.852  0.00  0.00    +0.000 HD
ENDBRANCH  21  22
ENDBRANCH  20  21
ENDBRANCH  19  20
ENDBRANCH   6  19
TORSDOF 5
ENDMDL
MODEL 6
REMARK VINA RESULT:      -7.0      4.165      7.220
REMARK  Name = 
REMARK  6 active torsions:
REMARK  status: ('A' for Active; 'I' for Inactive)
REMARK    1  A    between atoms: C_1  and  C_2
REMARK    2  A    between atoms: C_6  and  N_7
REMARK    3  A    between atoms: N_12  and  C_13
REMARK    4  A    between atoms: C_13  and  C_14
REMARK    5  A    between atoms: C_14  and  C_15
REMARK    6  A    between atoms: C_15  and  O_16
REMARK                            x       y       z     vdW  Elec       q    Type
REMARK                         _______ _______ _______ _____ _____    ______ ____
ROOT
ATOM      1  N   UNL     1       5.079   4.603  18.909  0.00  0.00    +0.000 N 
ATOM      2  N   UNL     1       6.082   4.534  19.842  0.00  0.00    +0.000 NA
ATOM      3  C   UNL     1       6.935   5.494  19.488  0.00  0.00    +0.000 A 
ATOM      4  C   UNL     1       6.518   6.214  18.356  0.00  0.00    +0.000 A 
ATOM      5  C   UNL     1       6.967   7.318  17.619  0.00  0.00    +0.000 A 
ATOM      6  N   UNL     1       8.167   7.945  17.883  0.00  0.00    +0.000 N 
ATOM      7  N   UNL     1       6.203   7.741  16.583  0.00  0.00    +0.000 NA
ATOM      8  C   UNL     1       5.054   7.091  16.323  0.00  0.00    +0.000 A 
ATOM      9  N   UNL     1       4.535   6.039  16.970  0.00  0.00    +0.000 NA
ATOM     10  C   UNL     1       5.312   5.634  17.997  0.00  0.00    +0.000 A 
ATOM     11  H   UNL     1       8.831   7.505  18.506  0.00  0.00    +0.000 HD
ENDROOT
BRANCH   1  17
ATOM     12  C   UNL     1       1.208   2.656  21.359  0.00  0.00    +0.000 C 
ATOM     13  C   UNL     1       2.092   2.695  20.148  0.00  0.00    +0.000 A 
ATOM     14  C   UNL     1       1.843   1.874  19.043  0.00  0.00    +0.000 A 
ATOM     15  C   UNL     1       2.656   1.951  17.914  0.00  0.00    +0.000 A 
ATOM     16  C   UNL     1       3.718   2.856  17.875  0.00  0.00    +0.000 A 
ATOM     17  C   UNL     1       3.990   3.683  18.977  0.00  0.00    +0.000 A 
ATOM     18  C   UNL     1       3.173   3.592  20.111  0.00  0.00    +0.000 A 
ENDBRANCH   1  17
BRANCH   6  19
ATOM     19  C   UNL     1       8.357   9.343  17.547  0.00  0.00    +0.000 C 
BRANCH  19  20
ATOM     20  C   UNL     1       9.026  10.073  18.705  0.00  0.00    +0.000 C 
BRANCH  20  21
ATOM     21  C   UNL     1       9.622  11.418  18.306  0.00  0.00    +0.000 C 
BRANCH  21  22
ATOM     22  O   UNL     1      10.719  11.246  17.420  0.00  0.00    +0.000 OA
ATOM     23  H   UNL     1      10.419  10.607  16.740  0.00  0.00    +0.000 HD
ENDBRANCH  21  22
ENDBRANCH  20  21
ENDBRANCH  19  20
ENDBRANCH   6  19
TORSDOF 5
ENDMDL
MODEL 7
REMARK VINA RESULT:      -6.9      4.760      6.505
REMARK  Name = 
REMARK  6 active torsions:
REMARK  status: ('A' for Active; 'I' for Inactive)
REMARK    1  A    between atoms: C_1  and  C_2
REMARK    2  A    between atoms: C_6  and  N_7
REMARK    3  A    between atoms: N_12  and  C_13
REMARK    4  A    between atoms: C_13  and  C_14
REMARK    5  A    between atoms: C_14  and  C_15
REMARK    6  A    between atoms: C_15  and  O_16
REMARK                            x       y       z     vdW  Elec       q    Type
REMARK                         _______ _______ _______ _____ _____    ______ ____
ROOT
ATOM      1  N   UNL     1       2.430   7.569  18.280  0.00  0.00    +0.000 N 
ATOM      2  N   UNL     1       2.408   8.531  17.304  0.00  0.00    +0.000 NA
ATOM      3  C   UNL     1       1.786   9.566  17.867  0.00  0.00    +0.000 A 
ATOM      4  C   UNL     1       1.411   9.327  19.199  0.00  0.00    +0.000 A 
ATOM      5  C   UNL     1       0.817  10.047  20.244  0.00  0.00    +0.000 A 
ATOM      6  N   UNL     1       0.333  11.328  20.077  0.00  0.00    +0.000 N 
ATOM      7  N   UNL     1       0.680   9.430  21.443  0.00  0.00    +0.000 NA
ATOM      8  C   UNL     1       1.129   8.167  21.571  0.00  0.00    +0.000 A 
ATOM      9  N   UNL     1       1.716   7.401  20.643  0.00  0.00    +0.000 NA
ATOM     10  C   UNL     1       1.842   8.035  19.458  0.00  0.00    +0.000 A 
ATOM     11  H   UNL     1       0.239  11.706  19.144  0.00  0.00    +0.000 HD
ENDROOT
BRANCH   1  17
ATOM     12  C   UNL     1       6.441   4.746  17.428  0.00  0.00    +0.000 C 
ATOM     13  C   UNL     1       4.953   4.880  17.571  0.00  0.00    +0.000 A 
ATOM     14  C   UNL     1       4.114   3.765  17.486  0.00  0.00    +0.000 A 
ATOM     15  C   UNL     1       2.738   3.907  17.657  0.00  0.00    +0.000 A 
ATOM     16  C   UNL     1       2.191   5.163  17.923  0.00  0.00    +0.000 A 
ATOM     17  C   UNL     1       3.015   6.297  18.003  0.00  0.00    +0.000 A 
ATOM     18  C   UNL     1       4.396   6.145  17.821  0.00  0.00    +0.000 A 
ENDBRANCH   1  17
BRANCH   6  19
ATOM     19  C   UNL     1       0.260  12.241  21.202  0.00  0.00    +0.000 C 
BRANCH  19  20
ATOM     20  C   UNL     1      -1.195  12.512  21.561  0.00  0.00    +0.000 C 
BRANCH  20  21
ATOM     21  C   UNL     1      -1.635  11.827  22.849  0.00  0.00    +0.000 C 
BRANCH  21  22
ATOM     22  O   UNL     1      -0.596  11.011  23.372  0.00  0.00    +0.000 OA
ATOM     23  H   UNL     1      -0.146  10.618  22.595  0.00  0.00    +0.000 HD
ENDBRANCH  21  22
ENDBRANCH  20  21
ENDBRANCH  19  20
ENDBRANCH   6  19
TORSDOF 5
ENDMDL
MODEL 8
REMARK VINA RESULT:      -6.9      4.078      8.095
REMARK  Name = 
REMARK  6 active torsions:
REMARK  status: ('A' for Active; 'I' for Inactive)
REMARK    1  A    between atoms: C_1  and  C_2
REMARK    2  A    between atoms: C_6  and  N_7
REMARK    3  A    between atoms: N_12  and  C_13
REMARK    4  A    between atoms: C_13  and  C_14
REMARK    5  A    between atoms: C_14  and  C_15
REMARK    6  A    between atoms: C_15  and  O_16
REMARK                            x       y       z     vdW  Elec       q    Type
REMARK                         _______ _______ _______ _____ _____    ______ ____
ROOT
ATOM      1  N   UNL     1       1.870   8.457  19.061  0.00  0.00    +0.000 N 
ATOM      2  N   UNL     1       2.361   9.023  17.912  0.00  0.00    +0.000 NA
ATOM      3  C   UNL     1       3.166   8.094  17.399  0.00  0.00    +0.000 A 
ATOM      4  C   UNL     1       3.211   6.918  18.164  0.00  0.00    +0.000 A 
ATOM      5  C   UNL     1       3.810   5.654  18.070  0.00  0.00    +0.000 A 
ATOM      6  N   UNL     1       4.690   5.327  17.060  0.00  0.00    +0.000 N 
ATOM      7  N   UNL     1       3.537   4.749  19.041  0.00  0.00    +0.000 NA
ATOM      8  C   UNL     1       2.702   5.105  20.036  0.00  0.00    +0.000 A 
ATOM      9  N   UNL     1       2.076   6.276  20.210  0.00  0.00    +0.000 NA
ATOM     10  C   UNL     1       2.361   7.160  19.231  0.00  0.00    +0.000 A 
ATOM     11  H   UNL     1       5.058   6.056  16.465  0.00  0.00    +0.000 HD
ENDROOT
BRANCH   1  17
ATOM     12  C   UNL     1      -0.002   9.520  23.549  0.00  0.00    +0.000 C 
ATOM     13  C   UNL     1       0.024   9.745  22.066  0.00  0.00    +0.000 A 
ATOM     14  C   UNL     1      -0.784  10.716  21.467  0.00  0.00    +0.000 A 
ATOM     15  C   UNL     1      -0.718  10.933  20.092  0.00  0.00    +0.000 A 
ATOM     16  C   UNL     1       0.162  10.188  19.305  0.00  0.00    +0.000 A 
ATOM     17  C   UNL     1       0.975   9.201  19.887  0.00  0.00    +0.000 A 
ATOM     18  C   UNL     1       0.896   8.985  21.268  0.00  0.00    +0.000 A 
ENDBRANCH   1  17
BRANCH   6  19
ATOM     19  C   UNL     1       4.848   3.948  16.638  0.00  0.00    +0.000 C 
BRANCH  19  20
ATOM     20  C   UNL     1       5.845   3.863  15.489  0.00  0.00    +0.000 C 
BRANCH  20  21
ATOM     21  C   UNL     1       7.223   4.408  15.846  0.00  0.00    +0.000 C 
BRANCH  21  22
ATOM     22  O   UNL     1       7.266   5.821  15.694  0.00  0.00    +0.000 OA
ATOM     23  H   UNL     1       6.336   6.126  15.746  0.00  0.00    +0.000 HD
ENDBRANCH  21  22
ENDBRANCH  20  21
ENDBRANCH  19  20
ENDBRANCH   6  19
TORSDOF 5
ENDMDL
MODEL 9
REMARK VINA RESULT:      -6.7      4.614      6.438
REMARK  Name = 
REMARK  6 active torsions:
REMARK  status: ('A' for Active; 'I' for Inactive)
REMARK    1  A    between atoms: C_1  and  C_2
REMARK    2  A    between atoms: C_6  and  N_7
REMARK    3  A    between atoms: N_12  and  C_13
REMARK    4  A    between atoms: C_13  and  C_14
REMARK    5  A    between atoms: C_14  and  C_15
REMARK    6  A    between atoms: C_15  and  O_16
REMARK                            x       y       z     vdW  Elec       q    Type
REMARK                         _______ _______ _______ _____ _____    ______ ____
ROOT
ATOM      1  N   UNL     1       2.351   6.904  19.159  0.00  0.00    +0.000 N 
ATOM      2  N   UNL     1       1.947   6.593  20.432  0.00  0.00    +0.000 NA
ATOM      3  C   UNL     1       1.421   7.723  20.901  0.00  0.00    +0.000 A 
ATOM      4  C   UNL     1       1.446   8.773  19.969  0.00  0.00    +0.000 A 
ATOM      5  C   UNL     1       0.993  10.098  19.902  0.00  0.00    +0.000 A 
ATOM      6  N   UNL     1       0.412  10.735  20.979  0.00  0.00    +0.000 N 
ATOM      7  N   UNL     1       1.182  10.775  18.744  0.00  0.00    +0.000 NA
ATOM      8  C   UNL     1       1.782  10.141  17.719  0.00  0.00    +0.000 A 
ATOM      9  N   UNL     1       2.240   8.883  17.679  0.00  0.00    +0.000 NA
ATOM     10  C   UNL     1       2.041   8.228  18.842  0.00  0.00    +0.000 A 
ATOM     11  H   UNL     1       0.465  10.312  21.895  0.00  0.00    +0.000 HD
ENDROOT
BRANCH   1  17
ATOM     12  C   UNL     1       2.638   2.221  17.495  0.00  0.00    +0.000 C 
ATOM     13  C   UNL     1       3.172   3.622  17.528  0.00  0.00    +0.000 A 
ATOM     14  C   UNL     1       4.269   3.998  16.747  0.00  0.00    +0.000 A 
ATOM     15  C   UNL     1       4.727   5.314  16.767  0.00  0.00    +0.000 A 
ATOM     16  C   UNL     1       4.088   6.267  17.561  0.00  0.00    +0.000 A 
ATOM     17  C   UNL     1       2.990   5.908  18.360  0.00  0.00    +0.000 A 
ATOM     18  C   UNL     1       2.542   4.581  18.339  0.00  0.00    +0.000 A 
ENDBRANCH   1  17
BRANCH   6  19
ATOM     19  C   UNL     1      -0.529  11.820  20.773  0.00  0.00    +0.000 C 
BRANCH  19  20
ATOM     20  C   UNL     1      -0.885  12.464  22.107  0.00  0.00    +0.000 C 
BRANCH  20  21
ATOM     21  C   UNL     1      -1.626  11.524  23.050  0.00  0.00    +0.000 C 
BRANCH  21  22
ATOM     22  O   UNL     1      -0.773  10.482  23.505  0.00  0.00    +0.000 OA
ATOM     23  H   UNL     1      -1.224  10.083  24.278  0.00  0.00    +0.000 HD
ENDBRANCH  21  22
ENDBRANCH  20  21
ENDBRANCH  19  20
ENDBRANCH   6  19
TORSDOF 5
ENDMDL
